#------------------------------------------------------------------------------
#$Date: 2019-11-23 07:54:47 +0200 (Sat, 23 Nov 2019) $
#$Revision: 232487 $
#$URL: file:///home/coder/svn-repositories/cod/cif/4/34/77/4347758.cif $
#------------------------------------------------------------------------------
#
# This file is available in the Crystallography Open Database (COD),
# http://www.crystallography.net/
#
# All data on this site have been placed in the public domain by the
# contributors.
#
data_4347758
loop_
_publ_author_name
'Huo, Peng'
'Chen, Ting'
'Hou, Jin-Le'
'Yu, Lei'
'Zhu, Qin-Yu'
'Dai, Jie'
_publ_section_title
;
 Ligand-to-Ligand Charge Transfer within Metal-Organic Frameworks Based on
 Manganese Coordination Polymers with Tetrathiafulvalene-Bicarboxylate and
 Bipyridine Ligands.
;
_journal_issue                   13
_journal_name_full               'Inorganic chemistry'
_journal_page_first              6496
_journal_page_last               6503
_journal_paper_doi               10.1021/acs.inorgchem.6b00571
_journal_volume                  55
_journal_year                    2016
_chemical_formula_sum            'C22 H24 Mn N2 O7 S6'
_chemical_formula_weight         675.76
_space_group_crystal_system      monoclinic
_space_group_IT_number           14
_space_group_name_Hall           '-P 2yn'
_space_group_name_H-M_alt        'P 1 21/n 1'
_atom_sites_solution_hydrogens   geom
_audit_creation_method           SHELXL-2014/7
_cell_angle_alpha                90
_cell_angle_beta                 94.31(3)
_cell_angle_gamma                90
_cell_formula_units_Z            4
_cell_length_a                   16.022(3)
_cell_length_b                   8.5321(17)
_cell_length_c                   21.559(4)
_cell_measurement_reflns_used    10914
_cell_measurement_temperature    293(2)
_cell_measurement_theta_max      27.5
_cell_measurement_theta_min      3.0
_cell_volume                     2938.8(10)
_computing_structure_refinement  'SHELXL-2014/7 (Sheldrick, 2014)'
_diffrn_ambient_temperature      293(2)
_diffrn_measured_fraction_theta_full 0.998
_diffrn_measured_fraction_theta_max 0.998
_diffrn_measurement_device_type  'Rigaku Saturn'
_diffrn_radiation_type           MoK\a
_diffrn_radiation_wavelength     0.71073
_diffrn_reflns_av_R_equivalents  0.0672
_diffrn_reflns_av_unetI/netI     0.0585
_diffrn_reflns_Laue_measured_fraction_full 0.998
_diffrn_reflns_Laue_measured_fraction_max 0.998
_diffrn_reflns_limit_h_max       19
_diffrn_reflns_limit_h_min       -19
_diffrn_reflns_limit_k_max       9
_diffrn_reflns_limit_k_min       -10
_diffrn_reflns_limit_l_max       25
_diffrn_reflns_limit_l_min       -19
_diffrn_reflns_number            21818
_diffrn_reflns_point_group_measured_fraction_full 0.998
_diffrn_reflns_point_group_measured_fraction_max 0.998
_diffrn_reflns_theta_full        24.999
_diffrn_reflns_theta_max         24.999
_diffrn_reflns_theta_min         3.027
_exptl_absorpt_coefficient_mu    0.909
_exptl_absorpt_correction_T_max  1.000
_exptl_absorpt_correction_T_min  0.8434
_exptl_absorpt_correction_type   multi-scan
_exptl_absorpt_process_details   'Jacobson, R. (1998) Private communication'
_exptl_crystal_colour            Orange-yellow
_exptl_crystal_density_diffrn    1.450
_exptl_crystal_description       Block
_exptl_crystal_F_000             1316
_exptl_crystal_size_max          1.000
_exptl_crystal_size_mid          0.130
_exptl_crystal_size_min          0.080
_refine_diff_density_max         1.638
_refine_diff_density_min         -0.506
_refine_diff_density_rms         0.094
_refine_ls_extinction_method     none
_refine_ls_goodness_of_fit_ref   1.055
_refine_ls_hydrogen_treatment    constr
_refine_ls_matrix_type           full
_refine_ls_number_parameters     345
_refine_ls_number_reflns         5173
_refine_ls_number_restraints     0
_refine_ls_restrained_S_all      1.055
_refine_ls_R_factor_all          0.1161
_refine_ls_R_factor_gt           0.0955
_refine_ls_shift/su_max          0.000
_refine_ls_shift/su_mean         0.000
_refine_ls_structure_factor_coef Fsqd
_refine_ls_weighting_details
'w=1/[\s^2^(Fo^2^)+(0.0277P)^2^+20.0000P] where P=(Fo^2^+2Fc^2^)/3'
_refine_ls_weighting_scheme      calc
_refine_ls_wR_factor_gt          0.1638
_refine_ls_wR_factor_ref         0.1752
_reflns_Friedel_coverage         0.000
_reflns_number_gt                4349
_reflns_number_total             5173
_reflns_threshold_expression     'I > 2\s(I)'
_cod_data_source_file            ic6b00571_si_002.cif
_cod_data_source_block           3
_cod_depositor_comments
;
The following automatic conversions were performed:

data item '_exptl_absorpt_correction_type' value 'Multi-scan' was
changed to 'multi-scan' in accordance with the
/home/saulius/struct/COD-crude-data/automatic-downloads/DataCite-retrospective/ACS/depositions/lib/dictionaries/cif_core.dic
dictionary named 'cif_core.dic' version 2.4.2 last updated on
2011-04-26.

Automatic conversion script
Id: cif_fix_values 6909 2019-04-08 15:41:33Z antanas 
;
_cod_original_sg_symbol_H-M      'P 21/n'
_cod_database_code               4347758
_shelx_shelxl_version_number     2014/7
_shelx_space_group_comment
;
The symmetry employed for this shelxl refinement is uniquely defined
by the following loop, which should always be used as a source of
symmetry information in preference to the above space-group names.
They are only intended as comments.
;
_shelx_estimated_absorpt_t_min   0.463
_shelx_estimated_absorpt_t_max   0.931
_shelx_res_file
;

    l.res created by SHELXL-2014/7


TITL t in P-1                         New: P21/n
CELL  0.71073   16.0220    8.5321   21.5590    90.000    94.310    90.000
ZERR        4    0.0030    0.0017    0.0040     0.000     0.030     0.000
LATT   1
SYMM     0.50000 - X ,    0.50000 + Y ,    0.50000 - Z
SFAC  C  H  N  O  S  Mn
UNIT  88 88 8  20 24 4
L.S. 20
omit -3 50
FMAP 2
PLAN 100
SIZE 0.0800 0.1300 1.0000
ACTA
BOND $H
CONF
WGHT    0.027700   20.000000
FVAR       0.29127
MN1   6    0.187052    0.733228    0.195896    11.00000    0.03214    0.04022 =
         0.03343    0.00033    0.01183    0.00093
S1    5    0.025568    1.213861    0.277266    11.00000    0.03541    0.05438 =
         0.06008   -0.01788    0.01213   -0.00247
S2    5   -0.092910    1.022980    0.197250    11.00000    0.03104    0.07009 =
         0.05377   -0.01166    0.00326    0.00151
S3    5   -0.116567    1.290618    0.369628    11.00000    0.04283    0.08370 =
         0.07984   -0.03293    0.01715   -0.01345
S4    5   -0.239852    1.110960    0.291400    11.00000    0.03868    0.10734 =
         0.07044   -0.03211    0.01467   -0.01158
S5    5   -0.211530    1.287987    0.482157    11.00000    0.06633    0.08974 =
         0.06037   -0.01941    0.00534    0.00718
S6    5   -0.361127    1.094367    0.390813    11.00000    0.06374    0.09855 =
         0.10898   -0.03851    0.04264   -0.02899
O1    4    0.193378    1.218781    0.248171    11.00000    0.03114    0.03917 =
         0.05986   -0.00824    0.00770   -0.00351
O2    4    0.202461    0.982832    0.206611    11.00000    0.03346    0.03972 =
         0.05112   -0.00132    0.01493    0.00250
O3    4    0.078049    0.786139    0.136793    11.00000    0.04496    0.06372 =
         0.04024   -0.00527   -0.00027    0.01131
O4    4   -0.012494    0.938449    0.081999    11.00000    0.08017    0.08583 =
         0.04202   -0.00638   -0.01527    0.02314
O5    4    0.162450    0.488686    0.177451    11.00000    0.06001    0.03945 =
         0.04736   -0.00011    0.00805   -0.00682
N1    3    0.266857    0.749684    0.112465    11.00000    0.04565    0.04459 =
         0.03711    0.00111    0.01856   -0.00276
N2    3    0.109010    0.723893    0.280611    11.00000    0.04083    0.04850 =
         0.03960    0.00266    0.01500    0.00022
C1    1    0.067942    1.086300    0.223878    11.00000    0.04027    0.04059 =
         0.03708    0.00116    0.01016    0.00054
C2    1    0.013662    1.001085    0.186647    11.00000    0.03121    0.03640 =
         0.03920    0.00264    0.00231    0.00386
C3    1   -0.075498    1.139868    0.264930    11.00000    0.03970    0.04572 =
         0.05560   -0.00780    0.00847    0.00218
C4    1   -0.135761    1.172149    0.303129    11.00000    0.03873    0.06680 =
         0.06034   -0.01347    0.00842   -0.00054
C5    1   -0.206575    1.232421    0.404306    11.00000    0.04485    0.06418 =
         0.05878   -0.00999    0.01382    0.00389
C6    1   -0.263111    1.148340    0.368838    11.00000    0.04121    0.06724 =
         0.06234   -0.01436    0.01908   -0.00204
C7    1   -0.294784    1.428584    0.478016    11.00000    0.05736    0.14519 =
         0.13586   -0.08222   -0.01171    0.03002
AFIX 137
H7A   2   -0.277497    1.520986    0.457039    11.00000   -1.50000
H7B   2   -0.308303    1.455545    0.519316    11.00000   -1.50000
H7C   2   -0.343172    1.384576    0.455474    11.00000   -1.50000
AFIX   0
C8    1   -0.371909    0.903726    0.362963    11.00000    0.13252    0.10875 =
         0.18273   -0.03294    0.07747   -0.05946
AFIX 137
H8A   2   -0.377830    0.905260    0.318324    11.00000   -1.50000
H8B   2   -0.420628    0.856672    0.378478    11.00000   -1.50000
H8C   2   -0.323227    0.843940    0.376702    11.00000   -1.50000
AFIX   0
C9    1    0.162004    1.093393    0.225141    11.00000    0.03419    0.03554 =
         0.03854    0.00249    0.00342   -0.00317
C10   1    0.029329    0.900079    0.130275    11.00000    0.04112    0.05099 =
         0.03907    0.00022   -0.00090   -0.00603
C11   1    0.327306    0.856941    0.113151    11.00000    0.05016    0.05467 =
         0.03868   -0.00110    0.01059   -0.00323
AFIX  43
H11   2    0.333559    0.925190    0.146814    11.00000   -1.20000
AFIX   0
C12   1    0.380998    0.871931    0.066578    11.00000    0.05655    0.05127 =
         0.04742   -0.00250    0.02502   -0.01309
AFIX  43
H12   2    0.421388    0.950423    0.068856    11.00000   -1.20000
AFIX   0
C13   1    0.375067    0.771505    0.016893    11.00000    0.05610    0.05901 =
         0.04716    0.00236    0.02622   -0.00655
C14   1    0.312279    0.662493    0.015007    11.00000    0.08348    0.07239 =
         0.04803   -0.01708    0.03706   -0.01684
AFIX  43
H14   2    0.304680    0.594213   -0.018567    11.00000   -1.20000
AFIX   0
C15   1    0.259643    0.654150    0.063694    11.00000    0.06672    0.05496 =
         0.05230   -0.00586    0.03261   -0.01416
AFIX  43
H15   2    0.217754    0.578477    0.061893    11.00000   -1.20000
AFIX   0
C16   1    0.030966    0.676071    0.273133    11.00000    0.04205    0.10875 =
         0.03148    0.00283    0.01235   -0.01821
AFIX  43
H16   2    0.014778    0.622590    0.236607    11.00000   -1.20000
AFIX   0
C17   1   -0.028466    0.698429    0.314631    11.00000    0.05606    0.08241 =
         0.06605    0.00687    0.02870   -0.01223
AFIX  43
H17   2   -0.081858    0.656497    0.307185    11.00000   -1.20000
AFIX   0
C18   1   -0.007812    0.783656    0.367276    11.00000    0.06167    0.07933 =
         0.04173    0.01405    0.03011    0.01459
C19   1    0.073375    0.837565    0.376405    11.00000    0.07235    0.08846 =
         0.03944   -0.00124    0.01820    0.00623
AFIX  43
H19   2    0.090649    0.894714    0.411800    11.00000   -1.20000
AFIX   0
C20   1    0.128390    0.804798    0.331842    11.00000    0.04770    0.08497 =
         0.04022    0.00363    0.01319   -0.00446
AFIX  43
H20   2    0.182841    0.842310    0.338371    11.00000   -1.20000
AFIX   0
C21   1    0.435125    0.790155   -0.034117    11.00000    0.07942    0.09199 =
         0.06749   -0.00813    0.04486   -0.01711
AFIX  23
H21A  2    0.428556    0.895522   -0.050664    11.00000   -1.20000
H21B  2    0.491691    0.782098   -0.014929    11.00000   -1.20000
AFIX   0
C22   1    0.427608    0.682316   -0.085924    11.00000    0.08833    0.11060 =
         0.06999   -0.03020    0.05596   -0.02994
AFIX  23
H22A  2    0.371845    0.690230   -0.106555    11.00000   -1.20000
H22B  2    0.435136    0.576010   -0.070562    11.00000   -1.20000
AFIX   0
O6    4    0.029997    0.771131   -0.018967    11.00000    0.12302    0.07479 =
         0.08175   -0.02463   -0.01023    0.00073
O7    4    0.068001    0.458770    0.070830    11.00000    0.11044    0.10940 =
         0.10624    0.00466   -0.03018   -0.02173

HKLF 4 1  0.0000  1.0000  0.0000 -1.0000  0.0000  0.0000  0.0000  0.0000  1.0000

REM  t in P-1                         New: P21/n
REM R1 =  0.0955 for    4349 Fo > 4sig(Fo)  and  0.1161 for all    5173 data
REM    345 parameters refined using      0 restraints

END

WGHT      0.0772      7.8414

REM Highest difference peak  1.638,  deepest hole -0.506,  1-sigma level  0.094
Q1    1   0.1856  1.2614  0.1972  11.00000  0.05    1.64
Q2    1  -0.3412  0.9669  0.4119  11.00000  0.05    0.77
Q3    1   0.3797  0.7811 -0.1251  11.00000  0.05    0.75
Q4    1  -0.2381  0.9230  0.3023  11.00000  0.05    0.74
Q5    1   0.2929  0.7739 -0.0114  11.00000  0.05    0.63
Q6    1   0.0230  0.7873  0.2736  11.00000  0.05    0.57
Q7    1   0.1676  0.4142  0.2023  11.00000  0.05    0.49
Q8    1   0.1867  0.7700  0.2502  11.00000  0.05    0.46
Q9    1   0.1212  0.3418  0.0633  11.00000  0.05    0.45
Q10   1   0.1730  0.5318  0.1839  11.00000  0.05    0.42
Q11   1   0.2243  0.7391  0.3844  11.00000  0.05    0.41
Q12   1   0.1307  0.4602  0.1437  11.00000  0.05    0.40
Q13   1   0.0763  1.2159  0.1385  11.00000  0.05    0.40
Q14   1   0.1189  0.4862  0.1915  11.00000  0.05    0.38
Q15   1   0.1063  1.2784  0.2887  11.00000  0.05    0.36
Q16   1   0.0643  0.8849  0.2269  11.00000  0.05    0.35
Q17   1  -0.0302  1.0896  0.0889  11.00000  0.05    0.34
Q18   1   0.0209  0.8517  0.0166  11.00000  0.05    0.34
Q19   1   0.0193  0.6428  0.2584  11.00000  0.05    0.33
Q20   1  -0.4023  1.2757  0.3399  11.00000  0.05    0.31
Q21   1   0.0398  0.6390  0.2926  11.00000  0.05    0.31
Q22   1   0.3730  1.1179  0.0724  11.00000  0.05    0.30
Q23   1  -0.3772  0.8627  0.3629  11.00000  0.05    0.30
Q24   1   0.1619  0.9170  0.2224  11.00000  0.05    0.29
Q25   1   0.2227  1.2350  0.2513  11.00000  0.05    0.29
Q26   1  -0.2240  0.8145  0.3404  11.00000  0.05    0.29
Q27   1   0.3148  1.1205  0.1111  11.00000  0.05    0.29
Q28   1   0.1419  0.8587  0.2347  11.00000  0.05    0.28
Q29   1   0.2373  0.9780  0.1938  11.00000  0.05    0.28
Q30   1   0.0741  1.1613  0.3746  11.00000  0.05    0.27
Q31   1  -0.3944  1.0367  0.3622  11.00000  0.05    0.27
Q32   1   0.0387  1.0081  0.2485  11.00000  0.05    0.27
Q33   1  -0.1381  0.8272  0.3059  11.00000  0.05    0.27
Q34   1  -0.0858  0.8935  0.2604  11.00000  0.05    0.27
Q35   1   0.4791  0.8768 -0.0366  11.00000  0.05    0.26
Q36   1   0.0389  1.1040  0.1291  11.00000  0.05    0.26
Q37   1   0.0544  0.8568 -0.0561  11.00000  0.05    0.26
Q38   1  -0.5016  0.9406  0.3802  11.00000  0.05    0.26
Q39   1   0.5557  0.7469  0.0256  11.00000  0.05    0.25
Q40   1  -0.2598  0.8598  0.3818  11.00000  0.05    0.25
Q41   1   0.2975  0.6338 -0.0114  11.00000  0.05    0.25
Q42   1   0.0633  0.7932 -0.0254  11.00000  0.05    0.25
Q43   1  -0.3973  0.9554  0.3073  11.00000  0.05    0.25
Q44   1  -0.4546  0.9078  0.3460  11.00000  0.05    0.25
Q45   1   0.2797  0.7359 -0.0761  11.00000  0.05    0.25
Q46   1  -0.0252  0.6843 -0.0475  11.00000  0.05    0.25
Q47   1   0.0660  0.5615  0.0496  11.00000  0.05    0.25
Q48   1  -0.2998  1.3663  0.3941  11.00000  0.05    0.24
Q49   1  -0.1227  1.2674  0.5226  11.00000  0.05    0.24
Q50   1   0.2375  0.3338  0.0623  11.00000  0.05    0.24
Q51   1   0.0257  0.6740 -0.0006  11.00000  0.05    0.24
Q52   1   0.4976  0.9497  0.1502  11.00000  0.05    0.24
Q53   1  -0.0191  1.1444  0.1406  11.00000  0.05    0.24
Q54   1  -0.2159  0.5596  0.3257  11.00000  0.05    0.24
Q55   1   0.1552  0.8242  0.3347  11.00000  0.05    0.24
Q56   1   0.2786  0.7412  0.1598  11.00000  0.05    0.24
Q57   1  -0.3003  1.6036  0.4978  11.00000  0.05    0.24
Q58   1  -0.0909  1.0494  0.2362  11.00000  0.05    0.24
Q59   1   0.4431  0.6922 -0.1159  11.00000  0.05    0.23
Q60   1   0.1205  1.0880  0.2135  11.00000  0.05    0.23
Q61   1  -0.1743  1.1637  0.5247  11.00000  0.05    0.23
Q62   1   0.1682  1.2742  0.2536  11.00000  0.05    0.23
Q63   1   0.0985  0.8609  0.2586  11.00000  0.05    0.23
Q64   1  -0.0194  0.8111 -0.0105  11.00000  0.05    0.23
Q65   1  -0.0076  1.2181  0.3680  11.00000  0.05    0.23
Q66   1  -0.1171  1.2834  0.2362  11.00000  0.05    0.23
Q67   1  -0.0342  0.7776  0.3127  11.00000  0.05    0.23
Q68   1   0.0239  1.3462  0.2773  11.00000  0.05    0.23
Q69   1  -0.4039  1.0242  0.2994  11.00000  0.05    0.23
Q70   1   0.5931  0.7972  0.0209  11.00000  0.05    0.23
Q71   1   0.0205  0.9352  0.1696  11.00000  0.05    0.22
Q72   1  -0.0802  1.1966  0.3103  11.00000  0.05    0.22
Q73   1  -0.0963  0.9407  0.1887  11.00000  0.05    0.22
Q74   1   0.4550  0.7009 -0.0364  11.00000  0.05    0.22
Q75   1   0.3180  0.4980 -0.0011  11.00000  0.05    0.22
Q76   1   0.0216  0.4475  0.2337  11.00000  0.05    0.22
Q77   1  -0.0626  0.9232  0.3196  11.00000  0.05    0.22
Q78   1   0.3562  0.7115  0.1602  11.00000  0.05    0.22
Q79   1   0.0008  0.8396 -0.0490  11.00000  0.05    0.21
Q80   1   0.3782  0.6153 -0.0973  11.00000  0.05    0.21
Q81   1  -0.0681  1.3553  0.2961  11.00000  0.05    0.21
Q82   1   0.1979  1.0272  0.2277  11.00000  0.05    0.21
Q83   1  -0.3482  1.4562  0.4079  11.00000  0.05    0.21
Q84   1   0.1297  0.9665  0.3094  11.00000  0.05    0.21
Q85   1  -0.1147  1.1693  0.1440  11.00000  0.05    0.21
Q86   1   0.0065  0.5886  0.2070  11.00000  0.05    0.21
Q87   1  -0.0161  1.2289  0.2249  11.00000  0.05    0.21
Q88   1   0.0413  0.4520  0.0881  11.00000  0.05    0.21
Q89   1   0.1041  0.7159  0.3945  11.00000  0.05    0.20
Q90   1   0.4304  0.7944 -0.0857  11.00000  0.05    0.20
Q91   1   0.3783  0.9127 -0.0707  11.00000  0.05    0.20
Q92   1   0.0352  0.8050 -0.0831  11.00000  0.05    0.20
Q93   1   0.1214  0.9372  0.4376  11.00000  0.05    0.20
Q94   1   0.0651  1.0533  0.3112  11.00000  0.05    0.20
Q95   1   0.1307  0.9216  0.4251  11.00000  0.05    0.20
Q96   1   0.2227  0.7407  0.3333  11.00000  0.05    0.20
Q97   1   0.0650  1.2984  0.2399  11.00000  0.05    0.20
Q98   1   0.1416  0.7336  0.3801  11.00000  0.05    0.20
Q99   1   0.2238  0.6270  0.1474  11.00000  0.05    0.20
Q100  1   0.0584  0.6994 -0.0317  11.00000  0.05    0.20
;
_shelx_res_checksum              58237
_shelx_hkl_file
;
   0   0   4  136.81    6.73
   0   0  -4  132.10    6.71
   0   0   4  141.98    6.60
   0   0   5   15.23    7.51
   0   0   5   11.40    4.33
   0   0   6   54.26   10.76
   0   0  -6   29.43    6.18
   0   0   6   31.33    6.41
   0   0   7   -1.30    5.03
   0   0  -7    1.92    5.41
   0   0   7   -0.55    3.73
   0   0   8    9.18    3.15
   0   0  -8   10.16    5.28
   0   0   8   14.39    4.26
   0   0   9   -1.84    5.69
   0   0  -9    2.90    5.07
   0   0   9    1.53    3.79
   0   0  10 2774.77   33.27
   0   0 -10 2845.97   32.36
   0   0  10 2814.95   33.86
   0   0  11   18.53   10.11
   0   0 -11   14.89    8.45
   0   0  11    1.53    4.37
   0   0  12 1301.09   38.40
   0   0 -12 1299.37   37.17
   0   0  12 1288.30   36.96
   0   0  13    6.68    6.35
   0   0 -13    6.49    5.81
   0   0  13    3.93    4.84
   0   0  14  169.17   15.45
   0   0  14  152.10   12.67
   0   0  15    9.12    9.50
   0   0  15   -0.97    5.38
   0   0  16  205.02   22.72
   0   0  16  153.46   16.33
   0   0  17   -1.87    7.26
   0   0  17    8.18    6.19
   0   0  17    7.18    6.31
   0   0  18  214.27   19.94
   0   0  18  195.24   21.23
   0   0  19    5.95    9.26
   0   0  19    1.07    5.85
   0   0  20   25.34   11.00
   0   0  20   12.94    6.10
   0   0  21    2.18    6.10
   0   0  21    9.47    7.20
   0   0  22   18.72    9.83
   0   0  22   10.83    5.70
   0   0  23    8.49    6.05
   0   0  23    8.77    5.40
   0   0  24   24.76   10.19
   0   0  24   28.01   12.80
   0   0  25    7.53    6.56
   0   0  25   19.12   12.22
   0   0  26   13.97    8.25
   0   0  26    8.32    9.15
   0   0  27    3.36    4.85
   0   0  27    2.64    5.59
   0   1  27    6.60    8.07
   0   1  27    7.29    7.16
   0   1  26    2.32    4.95
   0   1  26   -1.26    5.83
   0   1  25   57.31   10.94
   0   1  25   47.89   15.91
   0   1  24    8.20    5.63
   0   1  24    5.68    5.48
   0   1  23   15.89    9.15
   0   1  23    1.66    5.36
   0   1  22   17.90    9.92
   0   1  22    6.24    7.15
   0   1  21   22.26   11.79
   0   1  21   17.09   10.13
   0   1  20    8.42    9.54
   0   1  20   14.02    7.60
   0   1  19   10.48    9.31
   0   1  19    2.68    4.58
   0   1  18   10.82    9.90
   0   1  18    1.33    2.26
   0   1  18    3.25    5.43
   0   1  17   99.39   14.74
   0   1  17  101.34   14.15
   0   1  16   -1.07    8.12
   0   1  16    0.71    2.88
   0   1  16    1.25    5.32
   0   1  15  615.10   25.20
   0   1  15  621.83   24.71
   0   1  15  587.61   21.30
   0   1  14   -5.05    6.62
   0   1  14    2.95    2.08
   0   1  14    5.29    4.31
   0   1  13  104.12   10.61
   0  -1 -13   88.65   11.71
   0   1  13  182.77   36.33
   0   1  13  105.75    8.08
   0   1  12   -0.23    6.50
   0  -1 -12    1.00    4.76
   0   1  12   -3.78    6.01
   0   1  12    2.59    3.86
   0  -1 -10   -1.62    5.34
   0   1  10   -0.38    6.09
   0   1  10    5.46    3.80
   0   1   9   28.81    9.19
   0  -1  -9   16.57    4.85
   0   1   9   69.26   19.52
   0   1   9   32.19    8.99
   0   1   8    0.54    5.72
   0  -1  -8   -1.90    5.08
   0   1   8    4.54    5.25
   0   1   8    7.03    4.50
   0   1   7  147.95    8.99
   0  -1  -7  141.49    8.31
   0   1   7  301.47   43.38
   0   1   7  147.73    8.32
   0   1   6    6.18    6.11
   0  -1  -6    1.71    5.76
   0   1   6    3.38    4.02
   0   1   5   79.90    8.93
   0  -1  -5   81.61    6.36
   0   1   5   46.96    9.97
   0   1   4    0.72    4.53
   0  -1  -4   -0.61    3.71
   0   1   4   -0.08    2.27
   0   1   3  425.85   14.55
   0  -1  -3  429.89   14.41
   0  -1  -3  489.77   15.96
   0   1   3  464.09   15.16
   0  -1   3 2056.21   19.99
   0   1  -3 2103.98   20.43
   0  -1   3 2123.81   22.28
   0   1  -3 2087.35   21.21
   0  -1   4   -0.72    2.80
   0   1  -4   -2.86    3.46
   0  -1   4   -4.60    3.77
   0   1  -4    3.94    3.41
   0  -1   5  131.59    6.14
   0   1  -5  141.39    8.43
   0  -1   5  138.02   16.57
   0   1  -5  135.38    6.01
   0  -1   6    2.64    4.46
   0   1  -6   26.15    9.99
   0  -1   6    1.08    4.73
   0   1  -6    2.29    3.11
   0  -1   7    3.27    6.10
   0   1  -7    9.69    7.71
   0  -1   7   -0.81    4.13
   0   1  -7    7.79    2.81
   0  -1   8    3.99    4.84
   0   1  -8    0.99    5.33
   0  -1   8   -1.13    5.46
   0   1  -8    3.51    4.32
   0  -1   9 1086.56   18.95
   0   1  -9 1115.85   17.92
   0  -1   9 1040.16   17.09
   0   1  -9 1109.51   17.78
   0   1 -10    2.53    5.45
   0  -1  10    7.16    5.59
   0   1 -10    6.16    3.52
   0  -1  11   53.33    8.32
   0   1 -11   74.37   10.34
   0  -1  11   77.02   12.19
   0   1 -12    4.35    4.54
   0  -1  12   -0.63    6.04
   0  -1  13  328.53   15.99
   0   1 -13  322.93   14.83
   0  -1  14    0.64    6.10
   0   1 -14    7.00    6.13
   0  -1  14    4.47    5.95
   0  -1  15    8.24    6.10
   0  -1  15    6.18    6.27
   0  -1  16   12.84    9.29
   0  -1  16    4.42    6.48
   0  -1  17   53.13   13.66
   0  -1  17   34.49   10.87
   0  -1  18    6.12    6.32
   0  -1  18    7.45    9.06
   0  -1  19    8.69    6.11
   0  -1  19    0.70    6.52
   0  -1  20    1.15    5.60
   0  -1  20    3.86    6.58
   0  -1  21  109.57   13.09
   0  -1  21   79.22   11.20
   0  -1  22    3.07    5.61
   0  -1  22    0.31    5.78
   0  -1  23   32.39   12.97
   0  -1  23   17.71   10.88
   0  -1  24    6.21    7.49
   0  -1  24    4.53    6.37
   0  -1  25    4.56    6.48
   0  -1  25    6.59    9.44
   0  -1  26    6.75    4.70
   0  -1  26    6.93    6.90
   0  -1  27    6.47    8.32
   0  -1  27   11.68    9.17
   0   2  27   15.09    9.95
   0   2  27   -0.06    4.75
   0   2  26   11.00    8.17
   0   2  26   13.25    6.97
   0   2  25    8.17    5.66
   0   2  25    4.57    5.03
   0   2  24   -1.07    5.03
   0   2  24    8.75    6.45
   0   2  23    2.63    6.12
   0   2  23   12.38    6.96
   0   2  22  144.17   16.60
   0   2  22  128.43   16.92
   0   2  21   21.91   13.68
   0   2  21    6.63    4.59
   0   2  20    8.20    7.39
   0   2  20    8.19    4.80
   0   2  19    9.71    9.86
   0   2  19    3.00    4.27
   0   2  18    9.18    7.88
   0   2  18    4.60    3.03
   0   2  18    4.63    4.73
   0   2  17   10.19    7.88
   0   2  17    1.38    1.62
   0   2  17    1.12    4.55
   0   2  16  231.80   23.35
   0   2  16  221.43   19.63
   0   2  15    6.82    8.81
   0   2  15    0.29    1.92
   0   2  15    8.37    4.39
   0   2  14  314.14   26.20
   0   2  14  303.25   22.14
   0   2  13    1.85    6.53
   0   2  13    4.25    2.95
   0   2  13    1.30    3.28
   0   2  12   46.59    9.28
   0  -2 -12   79.12   11.80
   0   2  12   52.98   12.65
   0   2  12   70.78   10.61
   0   2  11   12.57    9.62
   0  -2 -11    3.07    3.97
   0   2  11    1.19    2.48
   0   2  11    7.18    4.48
   0   2  10  380.93   18.36
   0  -2 -10  405.00   18.42
   0   2  10  487.60   21.19
   0   2   9    9.83    7.16
   0  -2  -9    4.01    4.43
   0   2   9    1.54    2.00
   0   2   8   34.46   11.12
   0  -2  -8   23.07    6.65
   0   2   8   29.61    9.58
   0   2   7   -3.15    5.68
   0  -2  -7    3.84    4.08
   0   2   7    5.64    3.28
   0   2   6 1219.79   21.57
   0   2   5    9.95    8.01
   0  -2  -5    4.67    3.48
   0  -2  -5    6.73    2.73
   0   2   5    2.70    2.26
   0   2   4  125.41    6.54
   0  -2  -4  117.64    5.59
   0  -2  -4  112.74    9.45
   0   2   4  132.25   15.05
   0   2   3    0.46    3.58
   0  -2  -3    0.99    2.92
   0  -2  -3    0.87    1.47
   0   2   3    0.99    1.93
   0   2   2  275.19   10.67
   0  -2  -2  269.92   10.33
   0  -2  -2  265.37   10.06
   0   2   2  270.67   10.12
   0  -2   2   24.91    4.41
   0   2  -2   24.40    4.80
   0  -2   2   20.87    5.60
   0   2  -2   63.73    9.13
   0  -2   3    4.13    2.16
   0   2  -3    6.50    3.33
   0  -2   3   -4.16    5.09
   0   2  -3   -1.59    5.43
   0  -2   4 1451.64   16.95
   0   2  -4 1394.34   16.04
   0  -2   4 1478.98   20.15
   0   2  -4 1462.82   18.93
   0  -2   5   11.74    5.94
   0   2  -5    3.31    3.45
   0  -2   5    7.50    6.76
   0   2  -5   14.98    7.94
   0  -2   6    0.77    4.09
   0   2  -6    6.05    4.22
   0  -2   6    5.57    5.58
   0   2  -6   -1.64    4.13
   0  -2   7   -0.39    4.72
   0   2  -7    7.35    5.02
   0  -2   7    3.58    8.22
   0   2  -7    1.14    3.71
   0  -2   8   71.88    7.01
   0   2  -8   76.40    6.58
   0  -2   8   72.43    7.82
   0   2  -8   69.71    5.67
   0  -2   9    2.02    6.62
   0   2  -9   11.83    7.46
   0  -2   9   11.57    7.34
   0   2  -9   16.33    7.51
   0  -2  10  861.12   16.92
   0   2 -10  822.43   16.13
   0  -2  10  838.16   18.81
   0   2 -10  880.40   16.65
   0  -2  11    0.24    6.30
   0   2 -11    1.61    4.91
   0  -2  11   -5.05    6.43
   0   2 -11    2.53    3.95
   0  -2  12   13.97    5.28
   0   2 -12   23.55    6.26
   0  -2  12   13.22    6.31
   0   2 -12   21.55    4.61
   0  -2  13    6.63    5.29
   0   2 -13   -1.59    4.76
   0   2 -13    1.27    2.49
   0  -2  14   24.80   10.70
   0   2 -14    8.29    4.89
   0  -2  14    7.13    7.06
   0  -2  15    0.72    5.25
   0  -2  15    2.07    6.51
   0  -2  16   28.61    9.75
   0  -2  16   24.78   11.94
   0  -2  17   13.03    9.29
   0  -2  17   -0.78    7.24
   0  -2  18   41.25   11.41
   0  -2  18   29.66   12.48
   0  -2  19   -7.06    6.73
   0  -2  19   -4.30    8.00
   0  -2  20  765.11   22.15
   0  -2  20  759.43   30.43
   0  -2  21    7.07    6.46
   0  -2  21    8.92    9.81
   0  -2  22  321.45   26.89
   0  -2  22  282.95   25.18
   0  -2  23    8.98    7.93
   0  -2  23    6.40    7.24
   0  -2  24    9.97    5.10
   0  -2  24   -3.00    6.78
   0  -2  25    8.16    6.59
   0  -2  25    2.09    6.60
   0  -2  26    2.96    4.82
   0  -2  26    9.35    6.43
   0  -2  27    1.85    4.75
   0  -2  27    9.67    9.71
   0   3  27   18.88   11.11
   0   3  27    7.96    6.86
   0   3  26    8.13    6.52
   0   3  26    0.78    4.67
   0   3  25   28.71    9.22
   0   3  25   30.49    9.20
   0   3  24   26.38   10.79
   0   3  24    2.22    4.23
   0   3  23    6.91    6.14
   0   3  23   -0.27    4.11
   0   3  22    7.61    7.22
   0   3  22    4.30    4.69
   0   3  21    2.47    7.50
   0   3  21   10.48    7.60
   0   3  20   12.04   13.21
   0   3  20    8.20    4.47
   0   3  19  277.90   18.85
   0   3  19  236.06   13.81
   0   3  18    4.27    7.35
   0   3  18    0.83    1.66
   0   3  18   11.54    5.44
   0   3  17   79.68   19.20
   0   3  17   36.20   12.74
   0   3  17   82.21   12.36
   0   3  16   18.00   12.41
   0   3  16    1.79    1.11
   0   3  16    3.07    3.61
   0   3  15  575.29   25.85
   0   3  15  448.13   21.16
   0   3  15  509.70   19.02
   0   3  14    7.85    7.81
   0   3  14    4.03    3.43
   0   3  14    1.48    3.51
   0   3  13  272.69   21.49
   0   3  13  257.13   28.66
   0   3  13  257.72   18.41
   0   3  12    2.93    7.63
   0   3  12    1.68    1.54
   0   3  11  128.27   18.08
   0  -3 -11  119.88   15.32
   0   3  11  102.88   18.73
   0   3  10    6.46    6.30
   0  -3 -10   -0.09    3.84
   0   3  10    5.98    3.87
   0   3   9  461.15   19.26
   0  -3  -9  473.25   18.18
   0   3   9  509.36   21.80
   0   3   8    2.76    6.33
   0  -3  -8    7.08    5.31
   0  -3  -8    6.59    4.03
   0   3   8    1.41    3.40
   0  -3  -7 1199.12   18.03
   0  -3  -7 1286.96   20.40
   0   3   7 1232.86   17.80
   0   3   6   -3.80    6.03
   0  -3  -6    6.61    3.98
   0  -3  -6    1.37    2.50
   0   3   6    4.33    3.60
   0   3   5 1949.63   23.07
   0  -3  -5 2016.96   23.25
   0  -3  -5 2012.13   23.06
   0   3   5 1995.03   22.43
   0   3   4    0.10    4.40
   0  -3  -4    9.14    4.61
   0  -3  -4    1.86    1.80
   0   3   4    3.51    2.88
   0   3   3 3102.56   30.69
   0  -3  -3 3045.78   29.88
   0  -3  -3 2967.52   29.11
   0   3   3 2983.60   28.57
   0   3   2    3.40    4.61
   0  -3  -2    4.21    3.72
   0  -3  -2    2.85    2.63
   0   3   2    0.66    2.47
   0   3   1  681.90   70.41
   0  -3  -1  679.36   70.12
   0  -3  -1  709.73   10.49
   0   3   1  669.81   69.06
   0   3   0    4.69    2.94
   0  -3   0    3.68    3.68
   0  -3   0    1.88    2.78
   0   3   0   -0.20    3.24
   0   3  -1  138.93   15.11
   0  -3   1  129.84    6.21
   0   3  -1  129.16    5.94
   0  -3   2    1.69    2.02
   0   3  -2    1.83    1.88
   0   3  -2    0.04    5.51
   0  -3   3 2028.73   21.79
   0   3  -3 2034.66   21.75
   0  -3   3 2145.20   26.03
   0   3  -3 2141.19   24.45
   0  -3   4    1.74    2.73
   0   3  -4    6.51    4.52
   0  -3   4   28.32    9.75
   0   3  -4   21.82   10.73
   0  -3   5  355.08   13.95
   0   3  -5  370.54   14.17
   0  -3   5  355.91   16.12
   0   3  -5  340.04   14.03
   0  -3   6    5.24    4.48
   0   3  -6    3.43    3.50
   0  -3   6   -1.39    5.92
   0   3  -6    1.66    5.09
   0  -3   7 1373.07   20.20
   0   3  -7 1364.97   19.34
   0  -3   7 1337.70   22.94
   0   3  -7 1319.80   20.29
   0  -3   8    6.00    4.87
   0   3  -8    3.58    4.17
   0  -3   8   -2.46    6.02
   0   3  -8   -2.65    5.60
   0  -3   9   88.36   11.54
   0   3  -9   98.17   12.42
   0  -3   9   92.82   15.82
   0   3  -9   87.16   11.46
   0  -3  10    4.28    4.64
   0   3 -10   12.12    6.65
   0  -3  10    9.42    9.56
   0   3 -10    3.11    3.92
   0  -3  11    6.53    4.65
   0   3 -11    0.09    4.08
   0  -3  11   16.89   12.35
   0   3 -11   14.08    6.68
   0  -3  12    1.81    4.71
   0   3 -12    3.62    4.62
   0  -3  12   -5.42    7.95
   0   3 -12    3.18    4.22
   0  -3  13   74.38   11.48
   0   3 -13   59.49    9.91
   0   3 -13   66.70    9.41
   0  -3  14    1.21    5.21
   0   3 -14    6.46    5.33
   0   3 -14    1.96    2.83
   0  -3  15  337.67   15.45
   0  -3  15  353.62   21.42
   0   3 -15  362.68   15.01
   0  -3  16   -9.76    5.60
   0  -3  16    2.80    9.38
   0  -3  17   86.80   13.15
   0  -3  17   89.80   16.96
   0  -3  18   -0.10    6.19
   0  -3  18    2.61    9.49
   0  -3  19  203.19   18.85
   0  -3  19  177.51   20.42
   0  -3  20    5.12    5.62
   0  -3  20   12.19    8.92
   0  -3  21  254.46   23.08
   0  -3  21  262.25   26.97
   0  -3  22    9.08    7.42
   0  -3  22   -3.85    7.42
   0  -3  23   42.87   15.29
   0  -3  23   31.20   14.52
   0  -3  24    2.62    5.67
   0  -3  24   14.51   12.26
   0  -3  25   14.34    8.62
   0  -3  25    4.45    9.13
   0  -3  26    5.56    7.18
   0  -3  26    4.17    6.35
   0  -3  27   28.29   13.94
   0   4  26   20.92   10.64
   0   4  26    8.38    8.31
   0   4  25   10.34    9.21
   0   4  25   -3.25    4.06
   0   4  24   15.33    8.16
   0   4  24    7.52    3.85
   0   4  23    4.43    6.37
   0   4  23    8.72    6.65
   0   4  22   46.67    9.56
   0   4  22   53.86    9.38
   0   4  21    6.13    7.18
   0   4  21    3.81    3.73
   0   4  20   14.39    9.25
   0   4  20    6.17    5.28
   0   4  19    1.10    7.79
   0   4  19    4.16    3.79
   0   4  18   17.94   11.69
   0   4  18   26.58    9.19
   0   4  17   -3.85    8.15
   0   4  17    1.73    1.69
   0   4  17    1.93    3.37
   0   4  16   36.92   13.04
   0   4  16   29.21    9.29
   0   4  16   35.83    8.70
   0   4  15   11.18   12.91
   0   4  15    4.47    2.52
   0   4  15    6.68    3.54
   0   4  14   -1.45    8.49
   0   4  14    2.10    2.02
   0   4  13    5.14    7.46
   0   4  13    2.37    1.95
   0   4  12  382.05   19.19
   0   4  12  335.34   28.56
   0   4  11    2.11    6.98
   0  -4 -11    7.07    3.39
   0   4  11    3.80    2.81
   0   4  10   15.59    4.99
   0  -4 -10   15.29    4.29
   0  -4 -10    5.59    6.52
   0   4  10    4.78    2.01
   0   4   9    8.12    5.90
   0  -4  -9    5.66    3.96
   0  -4  -9   -0.32    2.52
   0   4   9    3.40    2.28
   0   4   8  441.95   19.85
   0  -4  -8  453.32   17.49
   0  -4  -8  465.56   18.09
   0   4   8  458.66   17.55
   0   4   7    0.79    5.57
   0  -4  -7    4.01    3.45
   0  -4  -7    1.92    3.10
   0   4   7    2.07    2.45
   0   4   6 2359.34   29.01
   0  -4  -6 2276.36   26.46
   0  -4  -6 2365.03   27.70
   0   4   6 2323.06   26.29
   0   4   5    2.68    4.34
   0  -4  -5    1.51    3.50
   0  -4  -5    2.96    2.37
   0   4   5    5.76    4.55
   0   4   4  400.51   15.47
   0  -4  -4  393.76   14.79
   0  -4  -4  382.07   14.42
   0   4   4  396.99   14.49
   0   4   3    2.83    3.91
   0  -4  -3    5.09    3.73
   0  -4  -3   11.96    3.78
   0   4   3    0.85    3.00
   0   4   2  103.38    5.78
   0  -4  -2   93.79    5.78
   0  -4  -2   99.05    6.43
   0   4   2   97.94    7.13
   0   4   1    7.58    3.99
   0  -4  -1    5.11    4.47
   0  -4  -1    3.13    3.05
   0   4   1    5.30    4.11
   0   4   0   10.02    5.36
   0  -4   0    7.15    2.40
   0   4  -1    6.61    5.19
   0  -4   1    4.98    3.21
   0  -4   1   13.02    7.16
   0   4  -1   15.43    7.63
   0   4  -2    4.79    3.92
   0   4  -2   12.84    5.67
   0  -4   2   10.57    7.39
   0   4  -2   19.15    7.28
   0  -4   3    5.22    2.88
   0   4  -3    4.04    4.65
   0  -4   3   12.64    7.10
   0   4  -3    9.15    6.41
   0  -4   4 8837.16   76.27
   0   4  -4 8919.95  914.36
   0  -4   4 8896.86   76.64
   0   4  -4 9341.33  957.58
   0  -4   5    5.45    4.42
   0   4  -5    6.77    3.50
   0  -4   5    0.21    5.39
   0   4  -5   -5.29    7.42
   0  -4   6 4314.39   43.01
   0   4  -6 4336.59   42.84
   0  -4   6 4190.67   41.78
   0   4  -6 4467.11   45.04
   0  -4   7   -0.30    4.62
   0   4  -7    1.88    4.63
   0  -4   7   -0.23    6.15
   0   4  -7   -0.57    6.38
   0  -4   8  537.65   20.55
   0   4  -8  545.77   19.99
   0  -4   8  532.39   22.20
   0   4  -8  533.96   21.40
   0  -4   9    6.50    5.86
   0   4  -9    1.57    3.64
   0  -4   9   -3.22    7.06
   0   4  -9    1.34    5.55
   0  -4  10   33.41    7.15
   0   4 -10   43.04    6.37
   0  -4  10   31.51   11.41
   0   4 -10   41.82    6.92
   0  -4  11   10.71    7.84
   0   4 -11    5.64    5.29
   0  -4  11   10.09    8.29
   0   4 -11   18.27    8.58
   0  -4  12  393.46   16.33
   0   4 -12  338.48   13.56
   0  -4  12  332.16   16.91
   0   4 -12  341.21   14.02
   0  -4  13    0.20    7.96
   0   4 -13   15.52    8.58
   0  -4  13   -5.37   11.03
   0   4 -13    7.90    5.31
   0  -4  14  349.44   15.04
   0   4 -14  329.27   14.12
   0   4 -14  294.59   21.91
   0  -4  15   -4.64    5.94
   0  -4  15    8.43   11.23
   0  -4  16  501.22   31.11
   0  -4  16  464.53   32.32
   0  -4  17   -2.05    6.67
   0  -4  17    0.90    9.75
   0  -4  18   29.30    9.53
   0  -4  18   38.16   16.13
   0  -4  19    6.05    7.04
   0  -4  19    9.41   12.76
   0  -4  20   25.66   11.77
   0  -4  20   13.60   12.85
   0  -4  21   12.25    7.57
   0  -4  21    4.69    8.73
   0  -4  22   35.69   12.94
   0  -4  22   19.64   11.84
   0  -4  23    5.36    5.43
   0  -4  23    6.79    7.68
   0  -4  24   24.07    9.93
   0  -4  24   19.12   12.12
   0  -4  25    4.44    4.48
   0  -4  25    3.39    6.25
   0  -4  26   23.11   10.89
   0  -4  26   17.98   10.12
   0  -4  27    1.25    4.65
   0  -4  27    3.40    6.00
   0   5  26   12.79   10.32
   0   5  26    4.09    4.01
   0   5  25   23.34    9.71
   0   5  25   18.66    6.77
   0   5  24    3.72    6.25
   0   5  24    3.04    3.56
   0   5  23   14.91    8.59
   0   5  23    5.74    4.18
   0   5  22   24.26   10.18
   0   5  22    1.49    3.05
   0   5  21   51.98   14.84
   0   5  21   35.22   11.64
   0   5  20   10.14    7.56
   0   5  20    2.70    3.35
   0   5  19   65.68   15.24
   0   5  19  102.05   11.79
   0   5  18   10.01    8.20
   0   5  18    5.92    4.78
   0   5  17   32.45   12.70
   0   5  17    6.58    2.34
   0   5  17   24.18    7.09
   0   5  16    6.83    8.19
   0   5  16    1.89    2.80
   0   5  15  183.35   23.28
   0   5  15  136.49   13.05
   0   5  14    6.19    8.89
   0   5  14    0.17    1.81
   0   5  13   12.40    8.00
   0   5  13   22.65    6.09
   0   5  12    1.31    6.91
   0   5  12    1.80    1.91
   0   5  11  159.99   15.94
   0  -5 -11  159.44   12.77
   0   5  11  186.92   14.23
   0   5  10    9.17    6.54
   0  -5 -10    3.70    3.18
   0  -5 -10    0.94    2.78
   0   5  10    4.49    2.79
   0   5   9  436.96   20.51
   0  -5  -9  428.68   19.06
   0  -5  -9  455.83   12.34
   0   5   9  422.61   18.15
   0   5   8    0.14    5.45
   0  -5  -8    6.51    4.60
   0  -5  -8    2.24    1.67
   0   5   8    1.83    2.26
   0   5   7  563.27   21.50
   0  -5  -7  569.14   20.93
   0  -5  -7  545.14   33.36
   0   5   7  556.09   20.12
   0   5   6    0.65    4.52
   0  -5  -6    4.49    3.59
   0  -5  -6    2.92    2.65
   0   5   6    4.94    2.76
   0   5   5  337.78   15.81
   0  -5  -5  349.13   14.93
   0  -5  -5  326.32   14.32
   0   5   5  315.69   13.18
   0   5   4   13.22    5.90
   0  -5  -4    5.16    4.82
   0  -5  -4    7.78    4.71
   0   5   4    4.98    3.13
   0   5   3 1355.56   18.57
   0  -5  -3 1279.45   18.10
   0  -5  -3 1279.02   17.95
   0   5   3 1318.22   18.77
   0   5   2   -5.77    4.11
   0  -5  -2    4.58    3.62
   0  -5  -2    0.76    2.97
   0   5   2    4.23    3.46
   0   5   1  166.30    8.91
   0  -5  -1  168.90    8.98
   0  -5  -1  168.28   17.69
   0   5   1  162.57    9.46
   0   5   0    8.06    6.59
   0  -5   0    5.49    4.28
   0  -5   0   10.34    5.48
   0   5   0    1.16    4.17
   0   5  -1    3.30    3.54
   0  -5   1   13.98    6.16
   0  -5   1    1.57    3.98
   0   5  -1    0.32    5.24
   0   5  -2    6.49    5.15
   0   5  -2    3.50    3.68
   0  -5   2    0.54    4.29
   0   5  -2    2.49    9.00
   0   5  -3   50.90    8.57
   0  -5   3   55.86    9.40
   0   5  -3   46.03    8.94
   0  -5   4    3.63    4.11
   0   5  -4    4.52    3.32
   0  -5   4   -2.11    5.84
   0   5  -4    8.31    9.97
   0  -5   5    9.58    3.77
   0   5  -5   17.57    4.20
   0  -5   5   17.21    5.99
   0   5  -5   24.45   10.78
   0  -5   6    1.62    3.64
   0   5  -6    3.20    3.12
   0  -5   6   10.56    6.56
   0   5  -6    2.86    6.78
   0  -5   7 3339.64   36.63
   0   5  -7 3375.12   35.67
   0  -5   7 3369.09   39.66
   0   5  -7 3389.47   37.88
   0  -5   8   -1.83    3.71
   0   5  -8    3.31    2.94
   0  -5   8    2.76    6.89
   0   5  -8    6.84    9.08
   0  -5   9    6.89    5.40
   0   5  -9    7.29    2.89
   0  -5   9   14.86   13.54
   0   5  -9   14.87    8.83
   0  -5  10    6.79    7.58
   0   5 -10    8.51    4.76
   0  -5  10    8.99   10.93
   0   5 -10    1.07    5.02
   0  -5  11    9.19    6.58
   0   5 -11    7.92    5.49
   0  -5  11   16.92    8.86
   0   5 -11    8.66    4.95
   0  -5  12    4.73    4.78
   0   5 -12    0.92    4.02
   0  -5  12   10.12    9.82
   0   5 -12    8.23    6.64
   0  -5  13  559.99   18.59
   0   5 -13  543.03   16.72
   0  -5  13  557.63   22.26
   0   5 -13  459.14   16.25
   0  -5  14    0.50    4.92
   0   5 -14    1.48    4.98
   0  -5  14    5.70   11.54
   0  -5  15   44.96   10.76
   0  -5  16   -0.25    4.58
   0  -5  16    1.46   10.14
   0  -5  17  153.04   15.57
   0  -5  17  151.79   18.00
   0  -5  18    5.35    5.30
   0  -5  18  -12.89    8.87
   0  -5  19    4.96    5.09
   0  -5  19    7.43    7.81
   0  -5  20    8.38    4.78
   0  -5  20    0.57    7.50
   0  -5  21    6.01    4.55
   0  -5  21    4.79    7.25
   0  -5  22    4.41    4.66
   0  -5  22    2.77    7.45
   0  -5  23    6.44    5.11
   0  -5  23    0.00    7.10
   0  -5  24   -0.88    4.60
   0  -5  24   16.54    7.61
   0  -5  25    8.76    5.44
   0  -5  25   20.15   12.06
   0  -5  26    5.80    5.06
   0  -5  26   17.85    7.19
   0  -5  27    3.20    6.30
   0  -5  27    0.84    6.68
   0   6  25    7.94   10.54
   0   6  25    4.20    4.17
   0   6  24    9.98    7.01
   0   6  24    8.47    5.40
   0   6  23   10.14    6.67
   0   6  23    4.64    4.25
   0   6  22   16.23   10.22
   0   6  22   10.59    5.49
   0   6  21   13.00    9.36
   0   6  21    3.52    3.11
   0   6  20    3.65    7.20
   0   6  20    2.45    4.03
   0   6  19    4.11    7.96
   0   6  19    1.53    2.87
   0   6  18    3.58    7.67
   0   6  18    5.07    3.36
   0   6  17    5.31    7.64
   0   6  17    1.00    1.65
   0   6  16  127.86   16.20
   0   6  16   75.08   12.74
   0   6  15    8.35    8.60
   0   6  15    2.09    2.62
   0   6  14   25.04   10.16
   0   6  14    9.76    3.08
   0   6  13    6.54    8.72
   0   6  13    4.46    3.29
   0   6  12   55.62   11.26
   0  -6 -12  119.90   22.96
   0   6  12   56.85    8.15
   0   6  11    1.81    6.90
   0  -6 -11    7.11    4.52
   0   6  11   -0.03    2.08
   0   6  10  248.94   20.22
   0  -6 -10  222.48   16.36
   0  -6 -10  261.81   28.45
   0   6  10  238.26   16.52
   0   6   9    8.15    7.91
   0  -6  -9    3.24    3.03
   0  -6  -9    4.43    3.34
   0   6   9    9.88    3.86
   0   6   8    4.28    4.98
   0  -6  -8    8.76    4.87
   0  -6  -8    3.05    2.54
   0   6   8    2.00    2.16
   0   6   7   10.79    7.19
   0  -6  -7   -0.58    2.74
   0  -6  -7    2.24    3.32
   0   6   7    5.97    3.73
   0   6   6  304.21   15.17
   0  -6  -6  306.69   14.77
   0  -6  -6  325.90   15.84
   0   6   6  298.90   13.54
   0   6   5   11.98    7.25
   0  -6  -5   20.61    6.32
   0   6   4  500.29   19.00
   0  -6  -4  461.07   17.61
   0  -6  -4  500.59   19.01
   0   6   4  470.94   17.98
   0   6   3    0.57    3.50
   0  -6  -3    2.58    3.38
   0  -6  -3   13.12    3.70
   0   6   3    5.61    3.67
   0   6   2 1301.41   18.88
   0  -6  -2 1334.80   19.32
   0  -6  -2 1268.62   18.39
   0   6   2 1323.60   17.90
   0   6   1    3.60    3.91
   0  -6  -1    2.34    3.61
   0  -6  -1   -1.42    3.61
   0   6   1   13.16    7.03
   0   6   0    8.16    5.45
   0  -6   0    6.56    3.79
   0  -6   0   11.83    6.62
   0   6   0   15.02    6.76
   0   6  -1    1.55    3.57
   0  -6   1   -1.86    4.09
   0  -6   1   -0.66    4.25
   0   6  -1    2.31    5.23
   0   6  -2  314.84   18.89
   0   6  -2  319.14   13.77
   0  -6   2  322.58   14.53
   0   6  -2  304.95   13.41
   0   6  -3    4.58    2.81
   0   6  -3   10.41    6.91
   0  -6   3    3.36    3.89
   0   6  -3    9.06    6.50
   0   6  -4   53.15    7.34
   0  -6   4   45.53   12.78
   0   6  -4   51.67   10.21
   0  -6   5    1.60    2.19
   0   6  -5    4.15    3.79
   0  -6   5   17.00    5.16
   0   6  -5    5.22    7.27
   0  -6   6 1781.68   28.92
   0   6  -6 1896.99   24.95
   0  -6   6 1713.19   23.97
   0   6  -6 1834.71   26.22
   0  -6   7    6.53    3.66
   0   6  -7    6.94    4.61
   0  -6   7    2.04    5.85
   0   6  -7    5.52    6.63
   0  -6   8  102.04    8.31
   0   6  -8   75.73    7.73
   0  -6   8   83.92   11.14
   0   6  -8   85.25   11.88
   0  -6   9    3.85    5.04
   0   6  -9    7.71    4.47
   0  -6   9    2.48    7.31
   0   6  -9    0.11    5.73
   0  -6  10    5.38    4.12
   0   6 -10    9.19    3.99
   0  -6  10    8.19   10.52
   0   6 -10    2.77    5.33
   0  -6  11    5.18    4.67
   0   6 -11   13.51    4.49
   0  -6  11    6.24    7.97
   0   6 -11    8.00    7.34
   0  -6  12 1312.01   45.81
   0   6 -12 1264.75   44.39
   0  -6  12 1267.68   45.87
   0   6 -12 1210.37   43.71
   0  -6  13   10.52    8.98
   0   6 -13    5.66    4.46
   0  -6  13   11.77   12.94
   0  -6  14  380.53   16.52
   0  -6  14  358.20   19.73
   0  -6  15   -0.17    4.88
   0  -6  15   -5.02    9.59
   0  -6  16  220.04   19.01
   0  -6  17    0.47    5.30
   0  -6  17    3.14    8.66
   0  -6  18   20.93    7.10
   0  -6  18   16.87   11.63
   0  -6  19   11.03    7.32
   0  -6  19   10.84   11.73
   0  -6  20   11.61    4.87
   0  -6  20   10.53    7.63
   0  -6  21   11.49    5.27
   0  -6  21   10.74    7.65
   0  -6  22  128.15   17.02
   0  -6  22  128.38   20.22
   0  -6  23   -1.91    4.99
   0  -6  23    2.51    7.24
   0  -6  24   73.57   12.63
   0  -6  24   55.71   12.71
   0  -6  25    6.09    4.88
   0  -6  25   28.99   13.94
   0  -6  26   32.50   14.10
   0  -6  26   34.90   16.83
   0  -6  27   -0.73    4.88
   0  -6  27   17.90   13.88
   0   7  25    3.38    7.71
   0   7  25    6.21    3.92
   0   7  24   11.28    7.67
   0   7  24    5.91    4.43
   0   7  23   10.46    9.70
   0   7  23    2.61    2.72
   0   7  22   14.19    9.05
   0   7  22    1.21    2.50
   0   7  21   14.41   10.90
   0   7  21    8.12    4.49
   0   7  20    3.06    7.84
   0   7  20    2.56    2.73
   0   7  19   52.83   16.68
   0   7  19   40.77   10.82
   0   7  18    7.83    7.96
   0   7  17   16.94   12.22
   0   7  16    8.15    7.88
   0   7  15   71.72   16.03
   0   7  15   45.19   10.76
   0   7  14   12.65    8.50
   0   7  14    5.17    2.70
   0   7  13  340.61   25.05
   0   7  13  313.24   19.58
   0   7  12    0.05    8.02
   0  -7 -12    2.86    3.01
   0   7  12    8.09    3.53
   0   7  11  152.78   14.73
   0  -7 -11  177.61   18.27
   0   7  11  165.91   11.47
   0   7  10    7.81    6.93
   0  -7 -10    5.93    2.66
   0   7  10   -0.43    1.98
   0   7   9  383.51   19.16
   0  -7  -9  350.80   15.52
   0  -7  -9  377.10   28.95
   0   7   9  343.41   14.33
   0   7   8    3.71    5.01
   0  -7  -8    6.11    4.08
   0  -7  -8    4.37    2.80
   0   7   8    2.93    2.07
   0   7   7   16.06    5.01
   0  -7  -7   20.22    4.54
   0  -7  -7   17.41    4.80
   0   7   7   15.25    2.94
   0   7   6    2.92    4.48
   0  -7  -6    4.36    2.81
   0  -7  -6    3.72    3.17
   0   7   6    1.75    2.16
   0   7   5  109.18    8.55
   0  -7  -5  115.43    6.76
   0  -7  -5  109.16    8.57
   0   7   5  123.46    6.43
   0  -7  -4    4.81    5.32
   0   7   3 3768.39   40.43
   0  -7  -3 3881.55   41.99
   0  -7  -3 3835.66   42.47
   0   7   3 3776.45   38.40
   0   7   2   -2.12    6.84
   0   7   2   12.99    7.32
   0   7   1 2835.39   32.36
   0  -7  -1 2678.98   31.25
   0  -7  -1 2796.77   32.21
   0   7   1 2734.40   30.38
   0   7   0    6.68    4.03
   0  -7   0   17.98    6.61
   0  -7   0    7.27    4.30
   0   7   0    9.13    5.24
   0   7  -1 6462.03   61.57
   0  -7   1 6514.74   37.63
   0  -7   1 6449.18   60.48
   0   7  -1 6496.05   35.30
   0   7  -2    4.49    4.45
   0   7  -2    6.60    4.03
   0  -7   2    7.77    5.18
   0   7  -2    4.06    5.69
   0   7  -3  349.69   18.67
   0   7  -3  362.28   15.38
   0  -7   3  347.36   15.94
   0   7  -3  384.98   17.02
   0   7  -4    3.81    2.92
   0   7  -4   12.40    6.26
   0  -7   4   12.28    5.34
   0   7  -4   -3.51    6.87
   0  -7   5 1062.70   18.69
   0   7  -5 1114.66   20.18
   0  -7   6    5.46    3.68
   0   7  -6    9.23    4.97
   0  -7   6    5.23    5.34
   0   7  -6    4.81    6.92
   0  -7   7   73.19   13.61
   0   7  -7   75.52    7.97
   0  -7   7   68.57   10.14
   0   7  -7   54.06    8.05
   0  -7   8    2.52    2.27
   0   7  -8    8.94    3.82
   0  -7   8    7.18    4.05
   0   7  -8    7.82    9.11
   0  -7   9   56.55    7.60
   0   7  -9   49.28    8.22
   0  -7   9   48.71   10.84
   0   7  -9   39.54    8.26
   0  -7  10    3.82    4.11
   0   7 -10    0.32    2.48
   0  -7  10   -6.40    7.27
   0   7 -10   11.05    8.55
   0  -7  11 1842.06   62.18
   0   7 -11 1843.08   60.96
   0  -7  11 1915.48   29.61
   0  -7  12    8.34    7.11
   0   7 -12    1.88    3.15
   0  -7  12   -0.34    9.19
   0  -7  13  331.04   15.94
   0   7 -13  306.21   13.36
   0  -7  13  330.67   18.76
   0  -7  14   12.25    7.17
   0  -7  14  -10.25    9.85
   0  -7  15  492.55   30.47
   0  -7  15  498.75   35.62
   0  -7  16    1.63    4.61
   0  -7  17  195.07   18.82
   0  -7  18   -0.06    5.50
   0  -7  18    2.19    8.19
   0  -7  19   83.47   17.18
   0  -7  19  103.47   18.44
   0  -7  20    1.42    4.48
   0  -7  21    9.95    5.51
   0  -7  21    4.41    7.75
   0  -7  22    4.04    4.71
   0  -7  22   -2.75    7.83
   0  -7  23    4.41    4.31
   0  -7  23    8.24    7.62
   0  -7  24    8.85    6.01
   0  -7  24   12.15   10.73
   0  -7  25   15.11    7.84
   0  -7  25    2.74    7.12
   0  -7  26    3.66    4.34
   0  -7  26    0.52    6.32
   0   8  24   11.11   11.21
   0   8  24   32.26   10.90
   0   8  23    5.79    6.94
   0   8  23    1.95    3.12
   0   8  22   17.29   11.44
   0   8  22    3.70    3.06
   0   8  21    5.96    7.11
   0   8  21    3.28    2.85
   0   8  20    8.28    7.65
   0   8  20    7.41    5.03
   0   8  19    6.09    8.12
   0   8  18   49.46   16.03
   0   8  17   11.64    7.74
   0   8  16   15.89   11.52
   0   8  15    8.38    7.71
   0   8  14  439.54   35.51
   0   8  14  362.51   27.35
   0   8  13   -0.36    7.96
   0   8  13    4.83    3.41
   0   8  12   75.78   20.19
   0  -8 -12   56.79   15.06
   0   8  12   63.40   12.84
   0   8  11    9.14   10.58
   0  -8 -11    2.63    3.83
   0   8  11    8.84    4.21
   0   8  10  143.45   17.06
   0  -8 -10  139.01   28.82
   0   8  10  128.50   11.47
   0   8   9    8.12    5.49
   0  -8  -9    0.75    3.02
   0   8   9    5.76    3.02
   0   8   8   13.74    5.44
   0  -8  -8    6.70    4.58
   0   8   8    8.11    2.39
   0   8   7   -4.80    4.36
   0  -8  -7    2.54    2.88
   0  -8  -7    3.06    3.44
   0   8   7    5.74    2.74
   0   8   6    7.70    4.61
   0  -8  -6    4.34    2.59
   0  -8  -6    7.83    3.51
   0   8   6    9.53    3.09
   0   8   5   -1.44    4.31
   0  -8  -5    2.82    2.95
   0  -8  -5    6.07    5.58
   0   8   5    5.67    4.60
   0   8   4   72.96    8.94
   0  -8  -4   72.81    8.13
   0  -8  -4   77.75    9.76
   0   8   4   68.79    7.14
   0   8   3   -2.05    6.79
   0  -8  -3    1.85    3.23
   0  -8  -3   -1.62   10.56
   0   8   3    5.09    3.66
   0   8   2  107.10    6.91
   0  -8  -2  106.66    6.84
   0  -8  -2  112.33    9.24
   0   8   2  118.32    7.69
   0   8   1   -4.42    4.25
   0  -8  -1    6.19    3.68
   0  -8  -1    1.60    4.36
   0   8   1    4.27    5.92
   0   8   0   -1.41    4.02
   0  -8   0   13.84    6.40
   0  -8   0    7.46    4.32
   0   8   0    2.38    4.68
   0   8  -1    0.19    4.16
   0  -8   1   -0.80    3.67
   0  -8   1    2.16    5.03
   0   8  -1    2.74    6.53
   0   8  -2    3.21    2.85
   0   8  -2   11.02    6.62
   0  -8   2    9.62    5.97
   0   8  -2    8.81    5.58
   0   8  -3    1.66    2.59
   0   8  -3    4.85    3.80
   0  -8   3    1.20    4.04
   0   8  -3   11.22    8.23
   0   8  -4 1841.64   22.07
   0   8  -4 1771.22   62.76
   0  -8   4 1819.46   65.81
   0   8  -4 1903.20   23.45
   0   8  -5   10.28    4.58
   0   8  -5    8.40    6.59
   0  -8   5    8.88    4.82
   0   8  -5    4.87    6.28
   0   8  -6   18.94    4.40
   0  -8   6   13.41    5.85
   0   8  -6   19.00    9.98
   0  -8   7    2.75    3.64
   0   8  -7    6.84    4.38
   0  -8   7   12.38    7.90
   0  -8   8  551.21   36.51
   0   8  -8  497.69   17.39
   0  -8   8  507.55   21.15
   0   8  -8  491.59   19.56
   0  -8   9    7.95    4.66
   0   8  -9    1.31    2.42
   0  -8   9    2.31    7.14
   0   8  -9    0.57    6.32
   0  -8  10  837.39   22.26
   0   8 -10  841.39   21.37
   0  -8  10  789.77   23.44
   0  -8  11    4.05    4.17
   0   8 -11    2.88    2.86
   0  -8  11    4.73    7.71
   0  -8  12   10.15    7.03
   0   8 -12    9.32    4.53
   0  -8  12   10.03    8.29
   0  -8  13    0.38    3.51
   0   8 -13    4.77    3.92
   0  -8  13   14.71    9.27
   0  -8  14   73.61   14.94
   0  -8  14   94.59   17.52
   0  -8  15   -0.03    3.60
   0  -8  15   13.49    9.24
   0  -8  16    7.96    5.56
   0  -8  16    8.56    8.67
   0  -8  17    4.19    4.23
   0  -8  18  252.72   21.66
   0  -8  18  275.68   26.05
   0  -8  19    4.73    7.57
   0  -8  19   -4.33    7.33
   0  -8  20  209.14   19.59
   0  -8  21    4.47    5.77
   0  -8  21   10.52   10.74
   0  -8  22   21.72    9.16
   0  -8  22    9.19    7.73
   0  -8  23    8.99    6.27
   0  -8  23   19.89   11.99
   0  -8  24    5.62    4.41
   0  -8  24   13.06    9.39
   0  -8  25   14.19    8.69
   0  -8  25    1.25    6.08
   0  -8  26   28.11   10.24
   0  -8  26   25.52   10.69
   0   9  24    7.99    8.36
   0   9  24    1.43    2.48
   0   9  23   14.60   11.20
   0   9  23   12.55    4.83
   0   9  22    6.10    7.25
   0   9  22    1.10    2.72
   0   9  21   28.43   12.21
   0   9  21   18.26    7.20
   0   9  20   22.78   12.36
   0   9  19   59.04   13.16
   0   9  18   13.88    8.78
   0   9  17   35.53   12.52
   0   9  16    4.68    7.16
   0   9  15   54.96   15.16
   0  -9 -15   10.82    7.48
   0   9  14    5.02    6.98
   0  -9 -14    5.63    4.71
   0   9  13   60.72   13.30
   0  -9 -13   67.63   17.12
   0   9  12    5.81    8.63
   0  -9 -12    4.03    4.85
   0   9  12    0.98    1.95
   0   9  11  121.39   14.59
   0  -9 -11  152.38   32.72
   0   9  11  149.13   13.10
   0   9  10    1.05    6.67
   0  -9 -10    7.07    4.55
   0   9  10    3.56    3.30
   0   9   9  242.53   20.86
   0  -9  -9  258.28   19.59
   0   9   9  241.53   18.93
   0   9   8    4.84    5.26
   0  -9  -8    4.85    5.39
   0   9   8    4.92    3.10
   0   9   7    9.19    7.10
   0  -9  -7   13.95    5.58
   0   9   7    5.24    2.47
   0   9   6    6.85    4.89
   0  -9  -6    4.35    4.10
   0  -9  -6    5.15    3.77
   0   9   6    3.46    2.51
   0   9   5  452.04   19.22
   0  -9  -5  408.28   17.96
   0  -9  -5  456.29   20.44
   0   9   5  442.25   17.32
   0   9   4    2.11    4.35
   0  -9  -4   11.19    5.06
   0  -9  -4    9.68    6.14
   0   9   4    6.11    3.92
   0   9   3  143.38   18.67
   0  -9  -3  150.84   19.30
   0  -9  -3  200.17   14.77
   0   9   3  149.43   18.74
   0   9   2    9.93    6.48
   0  -9  -2    0.98    3.06
   0  -9  -2    0.61    3.84
   0   9   2    3.42    3.20
   0   9   1    3.38    4.17
   0  -9  -1    6.55    3.02
   0  -9  -1    6.83    3.98
   0   9   1    5.98    4.94
   0  -9   0    3.82    4.17
   0   9   0   -1.01    4.01
   0   9  -1 1368.43   39.11
   0  -9   1 1355.52   39.16
   0  -9   1 1343.97   38.37
   0   9  -1 1351.88   38.53
   0   9  -2    2.04    2.06
   0   9  -2    3.24    3.97
   0  -9   2    2.00    4.99
   0   9  -2    3.97    4.98
   0   9  -3   76.51   17.00
   0   9  -3   98.70   13.48
   0  -9   3   93.89   13.61
   0   9  -3   92.17   13.33
   0   9  -4    3.64    2.75
   0   9  -4    4.19    3.97
   0  -9   4   -0.51    4.42
   0   9  -4    1.83    6.39
   0   9  -5   27.23    5.35
   0   9  -5   17.23    5.50
   0  -9   5   20.35    5.59
   0   9  -5   34.33    8.82
   0   9  -6    4.18    3.54
   0   9  -6    5.48    3.90
   0  -9   6    8.35    4.95
   0   9  -6    9.41    6.75
   0   9  -7   15.99    4.49
   0  -9   7    8.71    5.88
   0  -9   8    4.49    4.21
   0   9  -8    3.22    2.47
   0  -9   8    5.29    6.73
   0  -9   9   -0.31    3.44
   0   9  -9    0.94    2.59
   0  -9   9   10.43    7.00
   0  -9  10   13.02    5.29
   0   9 -10    4.16    2.89
   0  -9  10    4.22    7.72
   0  -9  11  124.11   16.40
   0   9 -11  111.48   13.24
   0  -9  11  134.13   18.71
   0  -9  12    4.14    5.04
   0   9 -12    2.43    2.92
   0  -9  12    9.56   11.51
   0  -9  13   57.39   12.34
   0  -9  13   58.44   19.95
   0  -9  14    4.63    5.09
   0  -9  14    5.37    8.54
   0  -9  15   15.17    6.47
   0  -9  15   16.72    9.32
   0  -9  16    9.80    5.42
   0  -9  16   13.30   11.97
   0  -9  17  160.59   12.13
   0  -9  17  174.99   15.33
   0  -9  18    4.77    4.50
   0  -9  19  193.62   18.15
   0  -9  19  144.21   18.09
   0  -9  20    2.48    3.95
   0  -9  20   -0.64    8.38
   0  -9  21   24.64    6.90
   0  -9  21   16.52   12.70
   0  -9  22    9.88    5.63
   0  -9  22   11.55   10.21
   0  -9  23   19.21    7.81
   0  -9  23   33.56   13.38
   0  -9  24   10.16    5.44
   0  -9  24    7.66    7.14
   0  -9  25   17.61    7.15
   0  -9  25    8.98    6.72
   0  -9  26    1.33    6.09
   0  10  23    3.11    6.83
   0  10  23    2.44    2.47
   0  10  22   17.95    9.28
   0  10  22   11.62    5.59
   0  10  21    6.72    6.99
   0  10  20   12.17    8.57
   0  10  19   11.54   11.01
   0  10  18   77.53   14.17
   0  10  17   15.04    8.47
   0  10  16   19.84   12.99
   0 -10 -16   20.38   17.40
   0  10  15    3.53    6.11
   0 -10 -15    5.55    2.70
   0  10  14   55.21   13.38
   0 -10 -14   35.56   12.10
   0  10  13    6.20    6.34
   0 -10 -13    7.24    3.77
   0  10  12   87.18   17.17
   0 -10 -12   88.73   22.58
   0 -10 -11    4.41    3.97
   0  10  10   93.73   14.54
   0 -10 -10   94.71   21.15
   0  10   9   15.45    9.41
   0 -10  -9   15.39    8.16
   0  10   9    5.54    3.94
   0  10   8  304.50   16.28
   0 -10  -8  276.79   13.96
   0  10   8  274.16   11.60
   0  10   7    5.68    5.57
   0 -10  -7    4.99    4.10
   0  10   7    5.71    3.83
   0  10   6  576.90   18.64
   0 -10  -6  554.45   18.19
   0  10   6  529.91   15.41
   0  10   5   -0.13    4.55
   0 -10  -5    7.50    4.97
   0 -10  -5    6.65    6.69
   0  10   5    3.00    3.20
   0  10   4   48.07    8.66
   0 -10  -4   51.71    7.83
   0 -10  -4   60.32   10.03
   0  10   4   49.73    7.18
   0  10   3   12.10    6.15
   0 -10  -3    6.46    2.97
   0 -10  -3    2.69    4.62
   0  10   3   11.64    4.97
   0  10   2    8.70    5.03
   0 -10  -2    9.87    5.39
   0 -10  -2    8.50    5.85
   0  10   2   11.67    5.34
   0  10   1    3.12    4.35
   0 -10  -1    8.85    5.13
   0 -10  -1    8.71    5.79
   0  10   1    4.52    3.89
   0 -10   0  432.24   19.09
   0 -10   0  379.15   18.25
   0  10   0  389.00   16.88
   0 -10   1   10.72    5.12
   0 -10   1   10.07    6.34
   0  10  -1    8.89    4.95
   0  10  -2  273.72   32.50
   0 -10   2  318.18   16.04
   0  10  -2  303.00   15.26
   0  10  -3    2.50    2.93
   0  10  -3    1.78    3.94
   0 -10   3    3.74    3.78
   0  10  -4  210.64   15.68
   0  10  -4  191.44   14.80
   0 -10   4  221.53   17.69
   0  10  -5    5.99    3.73
   0  10  -5    3.62    5.95
   0 -10   5    7.81    4.29
   0  10  -6   21.88    6.17
   0  10  -6   15.79    3.82
   0 -10   6   23.20    8.16
   0  10  -7    8.53    3.93
   0  10  -7    5.07    3.82
   0 -10   7   11.41    8.00
   0  10  -8   94.93    9.21
   0  10  -8  102.37   10.33
   0 -10   8   87.84   14.30
   0 -10   9    0.67    2.30
   0  10  -9    8.98    4.10
   0 -10   9    1.63    6.96
   0 -10  10   71.30   16.97
   0  10 -10   46.30    9.26
   0 -10  10   70.41   13.53
   0 -10  11   -1.18    3.59
   0  10 -11    4.72    2.93
   0 -10  11   40.42   16.73
   0 -10  12   29.32    9.50
   0 -10  12   43.86   15.78
   0 -10  13    3.78    3.08
   0 -10  13    8.70    8.20
   0 -10  14   41.05   11.12
   0 -10  14   41.40   13.96
   0 -10  15    4.36    3.73
   0 -10  15    3.09    4.66
   0 -10  16  244.73   14.11
   0 -10  16  314.66   19.15
   0 -10  17    6.14    3.97
   0 -10  17   11.86    5.11
   0 -10  18  237.71   21.30
   0 -10  19    1.27    4.75
   0 -10  19    9.29    6.05
   0 -10  20   55.25   10.23
   0 -10  20   27.46   13.10
   0 -10  21    4.14    3.89
   0 -10  21   11.69    5.63
   0 -10  22   22.48    8.52
   0 -10  22    9.03    6.67
   0 -10  23    5.33    3.72
   0 -10  23   -1.16    6.39
   0 -10  24    6.31    4.86
   0 -10  24    3.35    6.13
   0 -10  25    7.83    5.47
   0 -10  25   -0.35    6.13
   0  11  22    1.81    6.88
   0  11  22    5.78    2.79
   0  11  21   -1.98    6.50
   0  11  20    5.67    6.67
   0  11  19   12.81   11.15
   0  11  18    2.60    7.58
   0  11  17    3.86    8.24
   0 -11 -17   13.32    9.28
   0  11  16    1.70    6.88
   0 -11 -16   14.53   10.75
   0  11  15  110.33   16.84
   0  11  14    1.85    6.07
   0 -11 -14    0.66    2.95
   0  11  13    4.88    6.04
   0 -11 -13   17.22    8.62
   0  11  12    6.57    6.92
   0 -11 -12   13.87    7.30
   0  11  11   31.20   10.44
   0 -11 -11   60.49   17.92
   0  11  10    5.97    9.56
   0 -11 -10    7.24    4.49
   0  11   9  104.66   16.29
   0 -11  -9   90.61   22.46
   0  11   8   -1.85    5.97
   0 -11  -8    0.95    4.01
   0  11   7  362.98   24.59
   0 -11  -7  350.27   22.91
   0  11   6   -0.23    5.00
   0 -11  -6    2.68    4.20
   0  11   5  343.38   16.24
   0 -11  -5  332.67   15.54
   0 -11  -4    3.64    3.80
   0 -11  -3   37.19    8.16
   0 -11  -2    4.94    4.02
   0 -11  -1   10.01    5.27
   0 -11  -1    5.96    3.22
   0 -11   0    8.69    5.42
   0 -11   0    4.68    4.35
   0  11  -1  476.14   15.93
   0 -11   1  542.77   18.85
   0  11  -2    5.48    4.82
   0  11  -2    1.19    3.86
   0 -11   2    8.19    5.30
   0  11  -3 2311.38   54.14
   0  11  -3 2348.94   30.30
   0 -11   3 2371.11   30.63
   0  11  -4    4.55    3.45
   0  11  -4    4.80    4.09
   0 -11   4   11.02    6.25
   0  11  -5 2718.04   72.63
   0  11  -5 2773.58   74.78
   0 -11   5 2833.92   32.43
   0  11  -6    2.57    3.20
   0  11  -6   19.95    8.61
   0 -11   6    1.54    6.16
   0  11  -7  436.33   17.27
   0  11  -7  453.20   18.92
   0 -11   7  442.44   19.95
   0  11  -8    3.80    2.87
   0  11  -8    0.12    3.95
   0 -11   8   -3.65    7.22
   0  11  -9  227.86   19.18
   0  11  -9  238.13   11.95
   0 -11   9  240.07   19.47
   0 -11  10    2.19    7.05
   0 -11  11  156.36   31.96
   0 -11  11  178.32   19.80
   0 -11  12    6.38    5.92
   0 -11  12    5.76    7.70
   0 -11  13  225.33   41.61
   0 -11  13  284.78   24.77
   0 -11  14    8.84    5.08
   0 -11  14    5.60    7.57
   0 -11  15  471.65   46.53
   0 -11  15  477.70   20.06
   0 -11  16    6.04    5.94
   0 -11  16    2.76    7.96
   0 -11  17  263.49   22.67
   0 -11  17  235.29   22.44
   0 -11  18    2.57    3.73
   0 -11  18   -0.49    7.67
   0 -11  19   11.90    5.34
   0 -11  20    5.41    3.72
   0 -11  20    3.75    8.56
   0 -11  21   36.81   10.59
   0 -11  21   40.08   13.84
   0 -11  22    4.02    5.09
   0 -11  22   -1.34    6.12
   0 -11  23   82.14   30.70
   0 -11  23  101.55   38.30
   0 -11  24    8.24    5.59
   0 -11  24    5.40    5.66
   0  12  21    7.71    9.13
   0  12  20   11.16    7.61
   0  12  19    9.38    7.30
   0  12  18    8.58    7.16
   0  12  17    7.08    7.22
   0 -12 -17    8.81    4.53
   0  12  16    7.41    6.95
   0 -12 -16   10.80    5.78
   0  12  15    5.32    8.42
   0 -12 -15    7.88    4.74
   0  12  14  141.75   17.15
   0  12  13    3.50    6.24
   0 -12 -13   15.70    8.08
   0  12  12  181.74   20.25
   0 -12 -12  118.71   29.85
   0  12  11    1.18    6.08
   0 -12 -11    7.45    6.08
   0  12  10   44.51   11.21
   0 -12 -10   58.35   18.99
   0  12   9    8.48    8.96
   0 -12  -9    5.75    5.79
   0  12   8  296.01   25.35
   0 -12  -8  308.04   25.31
   0 -12  -7    8.07    5.74
   0 -12  -6  158.49   15.78
   0 -12  -5    2.28    4.39
   0  12   4   14.99    8.56
   0 -12  -4   10.75    5.05
   0  12   3    7.50    4.82
   0 -12  -3    7.52    6.24
   0  12   2  370.10   24.08
   0 -12  -2  419.96   26.89
   0  12   1    3.23    4.37
   0 -12  -1    0.86    4.54
   0  12   0   13.61    4.95
   0 -12   0   14.51    5.62
   0  12  -1    1.92    3.10
   0  12  -1    9.56    5.80
   0 -12   1    8.20    4.81
   0  12  -2    2.00    2.17
   0  12  -2   17.89    7.64
   0 -12   2   13.23    7.54
   0  12  -3    2.84    3.77
   0  12  -3    4.14    4.13
   0 -12   3    1.29    5.62
   0  12  -4   19.65    6.50
   0  12  -4    7.25    4.29
   0 -12   4   16.63    7.36
   0  12  -5    4.55    4.24
   0  12  -5    3.41    3.81
   0 -12   5   -0.65    5.90
   0  12  -6  542.83   32.72
   0  12  -6  537.62   32.65
   0 -12   6  578.69   35.49
   0  12  -7    8.50    3.17
   0  12  -7    5.55    3.73
   0 -12   7    8.01    5.97
   0  12  -8    8.32    3.40
   0 -12   8   22.30    9.90
   0  12  -9    3.48    3.88
   0 -12   9    3.82    5.91
   0  12 -10   33.09    8.53
   0 -12  10   19.88    7.87
   0  12 -11    6.97    6.34
   0 -12  11    5.48    5.24
   0 -12  12  130.78   25.11
   0 -12  12  128.05   12.27
   0 -12  13    6.82    3.58
   0 -12  13    2.89    6.42
   0 -12  14  373.66   36.62
   0 -12  14  346.19   27.02
   0 -12  15    4.64    2.63
   0 -12  15    1.64    6.30
   0 -12  16    9.28    6.24
   0 -12  16   10.99    6.84
   0 -12  17    3.00    3.13
   0 -12  17   11.38    6.60
   0 -12  18    5.42    5.97
   0 -12  18    8.20    6.79
   0 -12  19    9.41    4.41
   0 -12  19    3.14    5.69
   0 -12  20   11.08    5.08
   0 -12  20    9.87    8.41
   0 -12  21    4.48    3.67
   0 -12  21    6.28    6.58
   0 -12  22   26.65   11.29
   0 -12  22   37.47   16.50
   0 -12  23   10.19    5.33
   0 -12  23   13.24    7.37
   0  13  20    8.86    7.11
   0  13  19   46.16   21.56
   0  13  18   -1.62    7.03
   0 -13 -18    5.89    9.02
   0  13  17   16.36   11.63
   0 -13 -17   13.29   15.38
   0  13  16    4.11    6.69
   0 -13 -16    9.19    5.22
   0  13  15   14.34    8.82
   0 -13 -15    8.55    5.74
   0  13  14   10.33    8.83
   0 -13 -14    4.52    3.38
   0  13  13    8.40    6.88
   0 -13 -13   14.31    8.25
   0  13  12    3.88    6.86
   0 -13 -12    6.39    4.52
   0 -13 -11   87.70   22.03
   0  13  10    6.01    6.54
   0 -13 -10    2.53    2.76
   0 -13  -9   32.20   10.78
   0 -13  -8    2.64    4.39
   0 -13  -7   75.59   13.84
   0 -13  -6    1.83    4.27
   0  13   5  108.56   17.50
   0 -13  -5  113.97   19.17
   0  13   4    5.35    4.02
   0 -13  -4   11.28    6.64
   0  13   3   12.37    4.43
   0 -13  -3    6.65    6.39
   0  13   2    2.62    4.21
   0 -13  -2   11.16    5.15
   0  13   1    6.63    4.25
   0 -13  -1    8.85    4.92
   0  13   0    9.61    6.09
   0 -13   0    5.11    4.63
   0  13  -1  108.98   14.80
   0 -13   1   93.10   12.97
   0  13  -2    3.56    4.69
   0 -13   2    9.06    4.61
   0  13  -3   36.04    8.82
   0 -13   3   52.84   13.32
   0  13  -4    5.36    4.68
   0 -13   4   -1.14    4.85
   0  13  -5   30.78    8.25
   0 -13   5   21.44    8.68
   0  13  -6   -0.46    2.98
   0 -13   6    5.23    5.60
   0  13  -7    7.93    3.55
   0 -13   7   12.87    5.12
   0  13  -8    3.09    5.05
   0 -13   8   11.50    6.07
   0  13  -9   63.70   11.69
   0 -13   9   85.01   21.96
   0  13 -10    5.36    3.84
   0 -13  10    1.59    5.20
   0  13 -11    4.13    3.80
   0 -13  11    6.51    7.42
   0  13 -12    7.95    5.67
   0 -13  12   -3.33    5.17
   0  13 -13  321.79   26.53
   0 -13  13  282.63   24.64
   0 -13  14    1.90    2.40
   0 -13  14   10.24    6.54
   0 -13  15   61.54   20.60
   0 -13  15   80.06   13.45
   0 -13  16    8.50    4.66
   0 -13  16    1.55    6.32
   0 -13  17    8.85    5.60
   0 -13  17   16.72    9.23
   0 -13  18    4.89    4.35
   0 -13  18   -3.68    5.32
   0 -13  19    6.97    5.64
   0 -13  19    7.58    7.60
   0 -13  20    8.05    3.60
   0 -13  21   15.18   10.56
   0 -13  21   22.90   11.06
   0 -13  22    2.75    2.73
   0 -13  22    7.95    6.00
   0 -13  23   45.86   24.65
   0 -13  23  116.74   31.66
   0  14  19    9.44    9.73
   0  14  18    5.83   10.25
   0 -14 -18   17.86   13.69
   0  14  17    2.92    6.80
   0 -14 -17    3.02    2.71
   0  14  16    5.79    6.90
   0 -14 -16    4.88    5.31
   0  14  15   12.75    9.01
   0 -14 -15    8.29    4.97
   0  14  14   53.46   12.41
   0 -14 -13    3.90    3.18
   0 -14 -12   82.10   33.90
   0 -14 -11   12.94    5.70
   0  14  10    6.17    6.44
   0 -14 -10   13.83    7.21
   0  14   9    5.10    6.13
   0 -14  -9    5.97    5.93
   0  14   8    7.54    5.67
   0 -14  -8    5.37    4.76
   0  14   7    7.83    7.67
   0 -14  -7    0.59    4.54
   0  14   6   18.09    6.22
   0 -14  -6   14.89    6.61
   0  14   5    3.48    4.40
   0 -14  -5    4.30    4.78
   0  14   4   71.82   14.26
   0 -14  -4   83.80   10.27
   0  14   3    5.55    5.74
   0 -14  -3    8.72    4.76
   0  14   2  589.02   43.69
   0 -14  -2  631.22   19.78
   0  14   1    7.07    4.59
   0 -14  -1   16.40    8.98
   0  14   0   76.08   14.96
   0 -14   0   95.24   16.85
   0  14  -1    9.50    5.68
   0 -14   1    1.27    4.48
   0  14  -2   66.83   13.10
   0 -14   2   69.90   14.48
   0  14  -3    5.80    3.72
   0 -14   3   17.05    8.68
   0  14  -4    4.87    4.79
   0 -14   4    6.09    5.17
   0  14  -5    3.18    3.33
   0 -14   5    5.11    4.60
   0  14  -6   77.69   13.80
   0 -14   6   69.93   12.77
   0  14  -7    1.73    4.47
   0 -14   7    3.54    3.12
   0  14  -8  370.38   17.11
   0 -14   8  414.63   59.13
   0  14  -9    4.52    3.98
   0 -14   9    2.91    5.11
   0  14 -10   57.06   11.85
   0 -14  10   82.95   18.79
   0  14 -11    4.50    4.02
   0 -14  11   -0.21    5.62
   0  14 -12   29.27    8.16
   0 -14  12   33.07   10.24
   0  14 -13    4.49    5.13
   0 -14  13    8.62    6.27
   0  14 -14    6.89    3.68
   0 -14  14   11.75    6.65
   0  14 -15    5.59    4.08
   0 -14  15   12.76   11.07
   0 -14  16  114.05   19.99
   0 -14  17    4.56    2.86
   0 -14  17    7.18    5.82
   0 -14  18    9.13    5.36
   0 -14  18   17.49    9.41
   0 -14  19    5.41    6.09
   0 -14  19   -0.15    5.30
   0 -14  20   11.54    8.72
   0 -14  20    9.84    8.02
   0 -14  21    8.63    5.36
   0 -14  21    5.44    8.81
   0 -14  22    5.01    3.57
   0 -14  22    5.49    5.68
   0 -15 -17   -0.52    3.76
   0 -15 -16    7.93    4.90
   0 -15 -15    2.72    4.41
   0  15  14   15.60    7.86
   0 -15 -14    6.53    4.89
   0  15  13   21.43    8.98
   0 -15 -13   31.73   14.08
   0  15  12   -0.19    5.99
   0 -15 -12    3.78    2.79
   0  15  11   14.94    8.37
   0 -15 -11    2.61    2.74
   0  15  10    4.63    8.19
   0 -15 -10    6.04    3.34
   0  15   9    5.75    8.68
   0 -15  -9   10.92    6.73
   0 -15  -8    4.49    6.56
   0  15   7    4.53    5.20
   0 -15  -7    5.42    6.51
   0 -15  -6   -1.98    3.81
   0  15   5   35.35   10.52
   0 -15  -5   54.46   13.57
   0  15   4    8.51    5.58
   0 -15  -4    5.68    4.11
   0  15   3   26.57    6.06
   0 -15  -3   21.54    9.66
   0  15   2    4.59    4.02
   0 -15  -2    0.76    4.04
   0  15   1   15.79    7.11
   0 -15  -1   10.78    4.22
   0  15   0    6.07    6.14
   0 -15   0    7.84    3.99
   0  15  -1    6.60    4.46
   0 -15   1   12.95    5.89
   0  15  -2    1.49    3.89
   0 -15   2    5.78    4.64
   0  15  -3   16.16    7.47
   0 -15   3   37.03   12.34
   0  15  -4    3.55    3.65
   0 -15   4    3.60    4.53
   0  15  -5    7.81    3.67
   0 -15   5    4.56    5.03
   0  15  -6    3.49    3.31
   0 -15   6   11.96    7.75
   0  15  -7  421.22   30.85
   0 -15   7  448.52   33.35
   0  15  -8    1.33    3.33
   0 -15   8    2.32    7.72
   0  15  -9  524.02   17.37
   0 -15   9  502.58   39.47
   0  15 -10    6.39    5.22
   0 -15  10    9.08    6.36
   0  15 -11  109.37   11.84
   0 -15  11  105.64   12.71
   0 -15  12    3.16    8.19
   0 -15  13  117.83   27.76
   0  15 -14    2.98    3.89
   0 -15  14    5.21    8.12
   0  15 -15   20.01    9.17
   0 -15  15   21.41    9.97
   0  15 -16    2.48    4.20
   0 -15  16    3.61    4.14
   0  15 -17   25.36   10.81
   0 -15  17   45.36   13.01
   0 -15  18    4.60    6.00
   0 -15  19   84.75   44.21
   0 -15  19  173.64   19.10
   0 -15  20    3.48    3.62
   0 -15  20    4.93    6.01
   0  16  16    3.81    6.58
   0 -16 -16    8.59    4.73
   0  16  15    3.71    6.58
   0 -16 -15    4.72    4.27
   0  16  14    9.25    8.72
   0 -16 -14    3.76    3.48
   0  16  13   10.27    6.12
   0 -16 -13    4.42    6.05
   0  16  12    4.13    5.88
   0 -16 -12    6.92    5.23
   0  16  11   -0.06    5.36
   0 -16 -11    6.56    3.93
   0  16  10    7.77    7.32
   0 -16 -10   14.73    7.18
   0  16   9    5.59    8.29
   0 -16  -9    0.08    3.94
   0  16   8   14.43   10.17
   0 -16  -8   20.61   10.38
   0  16   7    4.96    5.25
   0 -16  -7    4.74    6.11
   0  16   6    5.44    4.90
   0 -16  -6    6.17    6.17
   0  16   5    0.25    4.43
   0 -16  -5    6.09    4.23
   0  16   4   41.17   10.64
   0 -16  -4   22.38    5.94
   0  16   3    0.09    4.05
   0 -16  -3    6.79    5.74
   0  16   2    2.72    4.86
   0 -16  -2    9.50    6.03
   0  16   1    1.08    3.55
   0 -16  -1    0.91    4.33
   0  16   0   14.94    6.81
   0 -16   0   26.26    8.56
   0  16  -1    2.77    4.27
   0 -16   1    6.03    4.55
   0  16  -2    6.48    5.71
   0 -16   2   12.81    7.33
   0  16  -3   10.83    7.00
   0 -16   3    4.75    4.68
   0  16  -4    3.08    5.18
   0 -16   4    4.57    4.56
   0  16  -5    3.30    3.75
   0 -16   5   12.74    6.97
   0  16  -6   17.85    5.80
   0 -16   6    5.75    4.93
   0  16  -7    4.83    3.33
   0 -16   7    8.76    4.87
   0  16  -8   15.18    5.08
   0 -16   8    5.16    4.72
   0  16  -9    9.04    5.55
   0 -16   9    0.07    4.56
   0 -16  10   12.30    7.10
   0  16 -11    3.03    3.58
   0 -16  11    1.49    6.59
   0  16 -12   12.03    5.31
   0 -16  12   19.47   10.73
   0  16 -13    7.91    5.05
   0 -16  13   -1.75    4.70
   0  16 -14    8.37    5.63
   0 -16  14    7.84    4.29
   0  16 -15   11.59    7.83
   0 -16  15    6.16    5.26
   0  16 -16   75.70   18.27
   0 -16  16   49.82   13.62
   0  16 -17    4.14    6.25
   0 -16  17    5.61    6.27
   0  16 -18   11.14    4.67
   0 -16  18   16.61    8.56
   0  16 -19    4.35    5.26
   0 -16  19   12.72    5.54
   0  17  14    6.22    5.80
   0 -17 -14    7.54    6.89
   0  17  13   12.05    6.02
   0 -17 -13   17.49    9.72
   0  17  12    2.13    6.24
   0 -17 -12   12.29    7.72
   0  17  11   12.64    8.50
   0 -17 -11    4.28    5.39
   0  17  10   -3.17    5.78
   0 -17 -10    8.17    5.13
   0  17   9   12.59    9.54
   0 -17  -9    6.27    6.08
   0  17   8    6.88    8.33
   0 -17  -8    8.37    4.75
   0  17   7   61.77   12.46
   0 -17  -7   57.17   11.74
   0  17   6    7.75    7.06
   0 -17  -6   16.74    7.09
   0  17   5   11.65    5.38
   0 -17  -5    8.58    6.24
   0  17   4    6.08    4.26
   0 -17  -4    2.52    4.06
   0  17   3   65.02   10.43
   0 -17  -3   94.42   15.67
   0  17   2    0.56    3.95
   0 -17  -2    6.62    6.03
   0  17   1  115.84   13.32
   0 -17  -1  141.09   18.41
   0  17   0    2.42    3.60
   0 -17   0    5.74    6.80
   0  17  -1    8.70    5.74
   0 -17   1    6.08    4.63
   0  17  -2    3.60    4.00
   0 -17   2    6.16    4.85
   0  17  -3    2.99    4.05
   0 -17   3    7.11    4.33
   0  17  -4    3.18    3.79
   0 -17   4    4.87    4.59
   0  17  -5    8.26    4.05
   0 -17   5   15.66    5.68
   0  17  -6   10.57    5.36
   0 -17   6    8.10    6.21
   0 -17   7   30.64   11.46
   0 -17   8    8.77    6.27
   0  17  -9   23.44    8.02
   0 -17   9   30.27   10.43
   0  17 -10    7.16    5.65
   0 -17  10    5.28    4.63
   0  17 -11   13.08    6.84
   0 -17  11   22.47    9.03
   0  17 -12    5.18    4.01
   0 -17  12    9.61    5.90
   0  17 -13   25.98   11.08
   0 -17  13   20.74    9.34
   0  17 -14    5.53    5.61
   0 -17  14    7.80    5.34
   0  17 -15   62.52   23.93
   0 -17  15   37.55   15.40
   0  17 -16   10.30    5.73
   0 -17  16    5.60    6.97
   0  17 -17   57.25   16.45
   0 -17  17   76.20   21.44
   0  18  12    4.47    6.50
   0 -18 -12    7.15    6.40
   0  18  11    7.54    6.52
   0 -18 -11    3.69    3.15
   0  18  10   -1.22    5.63
   0 -18 -10    9.02    6.71
   0  18   9    1.29    5.62
   0 -18  -9    9.92    7.04
   0  18   8   32.61   10.96
   0 -18  -8   51.14   15.44
   0  18   7    7.29    7.18
   0 -18  -7   12.77    7.80
   0  18   6   25.98   12.12
   0 -18  -6   35.95   10.55
   0 -18  -5    2.41    4.46
   0  18   4   39.10   12.09
   0 -18  -4    9.55    4.99
   0  18   3    2.56    4.08
   0 -18  -3    3.50    4.79
   0  18   2   25.77    9.02
   0 -18  -2   21.04    9.19
   0  18   1   12.74    6.27
   0 -18  -1    4.10    5.23
   0  18   0  168.82   22.19
   0 -18   0  148.19   21.73
   0  18  -1    7.75    3.96
   0 -18   1    5.02    4.84
   0  18  -2  228.23   28.46
   0 -18   2  236.46   30.35
   0  18  -3    6.26    5.76
   0 -18   3    2.94    4.24
   0  18  -4  304.05   36.62
   0 -18   4  355.77   18.25
   0  18  -5    8.26    6.35
   0 -18   5    2.05    4.15
   0  18  -6   70.63   10.41
   0 -18   6   57.20   11.59
   0  18  -7    5.00    5.02
   0 -18   7    2.20    4.16
   0  18  -8    2.51    3.46
   0 -18   8    3.27    4.48
   0  18  -9    5.18    3.88
   0 -18   9    9.73    6.84
   0  18 -10   83.90   19.01
   0 -18  10   94.86   11.96
   0  18 -11    9.23    5.61
   0 -18  11    0.14    4.49
   0  18 -12   24.89   11.64
   0 -18  12   19.55   10.01
   0  18 -13   17.08    7.49
   0 -18  13    8.19    7.37
   0  18 -14   33.90   14.05
   0 -18  14   52.79   25.67
   0  18 -15    7.98    3.79
   0 -18  15    2.81    4.57
   0  19   9   19.61    9.68
   0 -19  -9   31.65   12.73
   0  19   8    5.48    7.54
   0 -19  -8    3.53    4.98
   0  19   7   51.50   20.67
   0 -19  -7   39.16   16.63
   0  19   6    0.92    4.01
   0 -19  -6   14.51    8.15
   0  19   5    8.24    4.63
   0 -19  -5   15.19    9.12
   0  19   4    4.56    4.33
   0 -19  -4    6.50    4.91
   0  19   3    6.83    4.22
   0 -19  -3    3.02    4.80
   0  19   2    3.35    4.09
   0 -19  -2    9.57    7.55
   0  19   1   14.90    7.31
   0 -19  -1   23.00   11.00
   0  19   0    7.31    5.15
   0 -19   0    7.84    4.60
   0  19  -1    0.79    3.27
   0 -19   1    6.36    4.63
   0  19  -2    2.79    3.53
   0 -19   2    5.89    6.20
   0  19  -3    1.82    3.42
   0 -19   3    8.58    6.55
   0  19  -4    4.37    5.17
   0 -19   4    5.66    6.10
   0  19  -5   31.16    9.67
   0 -19   5   10.86    5.78
   0  19  -6    4.38    4.26
   0 -19   6    2.10    4.37
   0  19  -7   18.57    6.32
   0 -19   7   20.51    9.58
   0  19  -8    4.13    3.86
   0 -19   8    8.09    4.68
   0  19  -9    8.02    6.65
   0 -19   9   13.87    7.88
   0  19 -10    6.26    5.29
   0 -19  10    1.66    4.72
   0  19 -11    1.86    3.54
   0 -19  11    4.75    4.92
   0  19 -12    6.24    4.56
   0 -19  12   15.71   10.81
   0  19 -13   43.25   12.94
   0 -19  13   82.36   24.41
   0  20   5    2.19    3.92
   0 -20  -5    0.23    4.60
   0  20   4    9.19    6.51
   0 -20  -4    2.88    4.92
   0  20   3    5.71    4.62
   0 -20  -3    3.97    6.54
   0  20   2    8.05    4.54
   0 -20  -2    4.59    4.81
   0  20   1    3.30    4.09
   0 -20  -1    4.70    4.68
   0  20   0   19.47    5.85
   0 -20   0   16.10    8.84
   0  20  -1   -1.87    3.31
   0 -20   1    1.57    4.18
   0 -20   2   16.78    9.09
   0  20  -3    5.28    3.40
   0 -20   3    5.47    4.49
   0  20  -4   37.14   14.41
   0 -20   4   28.26   12.56
   0  20  -5    4.28    5.75
   0 -20   5    5.06    4.61
   0  20  -6   15.88    7.72
   0 -20   6   22.56    8.94
   0  20  -7    2.39    3.41
   0 -20   7   12.57    7.04
   0  20  -8    7.91    6.21
   0 -20   8   13.61    7.62
   0  20  -9    3.41    3.32
   0 -20   9   18.59    9.50
  -1  20  -9    5.43    4.34
   1 -20   9    8.43    6.17
  -1  20  -8   56.53   15.84
   1 -20   8   30.88   11.37
  -1  20  -7    1.14    2.86
   1 -20   7    4.36    4.67
  -1  20  -6    3.90    4.17
   1 -20   6   10.59    7.74
  -1  20  -5    9.76    4.35
   1 -20   5    5.40    4.56
  -1  20  -4    9.98    3.57
   1 -20   4   10.27    5.74
  -1  20  -3   29.94   12.06
   1 -20   3   48.21   19.10
  -1  20  -2   59.39   22.65
   1 -20   2   51.74   21.47
  -1  20  -1   15.43    7.34
   1 -20   1   14.77    7.61
  -1  20   0    1.80    3.29
   1 -20   0    7.47    6.51
  -1  20   1   16.10    8.28
   1 -20  -1    7.00    6.36
  -1  20   2    6.70    4.94
   1 -20  -2    6.12    6.19
  -1  20   3    8.94    4.97
   1 -20  -3    8.47    4.61
  -1  20   4    5.22    5.41
   1 -20  -4    6.78    4.22
  -1  20   5    8.00    4.85
  -1  19 -13    6.19    4.74
   1 -19  13   13.32    7.84
  -1  19 -12    4.20    3.00
   1 -19  12   10.74    8.62
  -1  19 -11    5.34    3.31
   1 -19  11   14.31    9.51
  -1  19 -10    0.21    3.12
   1 -19  10    9.66    7.71
  -1  19  -9    7.81    4.53
   1 -19   9    0.60    4.49
  -1  19  -8    5.48    3.20
   1 -19   8    4.01    4.69
  -1  19  -7    4.02    2.97
   1 -19   7    4.12    6.36
  -1  19  -6    7.71    3.50
   1 -19   6    4.44    6.37
  -1  19  -5   63.09   15.02
   1 -19   5   45.14   12.48
  -1  19  -4   10.94    4.61
   1 -19   4   13.37    6.70
  -1  19  -3   32.36    8.78
   1 -19   3   63.62   16.30
  -1  19  -2    8.10    4.61
   1 -19   2   11.63    5.72
  -1  19  -1   10.06    5.27
   1 -19   1    5.62    6.13
  -1  19   0    9.15    6.49
   1 -19   0    2.11    4.26
  -1  19   1    3.62    3.79
   1 -19  -1   15.92    8.64
  -1  19   2    4.67    3.58
   1 -19  -2    5.83    4.16
  -1  19   3    4.91    3.63
   1 -19  -3    5.16    5.59
  -1  19   4    9.31    5.55
   1 -19  -4    5.41    4.27
  -1  19   5    7.16    6.59
   1 -19  -5    8.87    6.26
  -1  19   6    7.33    5.51
   1 -19  -6   14.94    8.09
  -1  19   7    5.28    5.23
   1 -19  -7    4.91    5.45
  -1  19   8    1.79    5.09
   1 -19  -8    2.94    4.20
  -1  19   9    3.13    4.97
  -1  18 -15    6.46    3.98
   1 -18  15   11.55    6.23
  -1  18 -14    2.51    3.06
   1 -18  14    8.91    7.60
  -1  18 -13   -0.97    2.98
   1 -18  13   12.02    8.11
  -1  18 -12    8.20    4.55
   1 -18  12    9.06    7.71
  -1  18 -11    1.32    2.76
   1 -18  11    8.17    7.40
  -1  18 -10   26.55   10.25
   1 -18  10   39.89   11.21
  -1  18  -9   12.44    6.16
   1 -18   9    9.29    7.55
  -1  18  -8  152.31   14.74
   1 -18   8  151.61   17.47
  -1  18  -7   -0.02    2.57
   1 -18   7    7.99    5.22
  -1  18  -6  126.36   12.94
   1 -18   6  154.72   17.09
  -1  18  -5   25.83    9.03
   1 -18   5   18.88    8.31
  -1  18  -4   50.20    9.54
   1 -18   4   27.67    9.93
  -1  18  -3    3.22    3.95
   1 -18   3    8.34    6.18
  -1  18  -2   12.81    4.55
   1 -18   2   21.97    9.09
  -1  18  -1    9.51    4.78
   1 -18   1    7.96    6.46
  -1  18   0    5.46    4.33
   1 -18   0   11.75    6.43
  -1  18   1    3.16    3.40
   1 -18  -1    5.72    4.38
  -1  18   2  103.13   12.94
   1 -18  -2   95.06   14.15
  -1  18   3    3.46    5.58
   1 -18  -3    5.82    4.18
  -1  18   4   14.17    6.59
   1 -18  -4   17.53    8.05
  -1  18   5    4.88    4.34
   1 -18  -5    8.34    5.00
  -1  18   6   14.94    8.40
   1 -18  -6   19.66    9.46
  -1  18   7   11.58    7.49
   1 -18  -7    3.86    4.25
  -1  18   8    6.24    5.07
   1 -18  -8   12.93    7.12
  -1  18   9   10.58    7.22
   1 -18  -9   23.60    6.84
  -1  18  10    5.89    5.57
   1 -18 -10    4.70    2.90
  -1  18  11   17.51   10.07
   1 -18 -11   11.13    5.93
  -1  17 -17    4.80    4.38
   1 -17  17   16.33    9.81
  -1  17 -16    6.66    4.72
   1 -17  16   16.17    9.50
  -1  17 -15    8.02    4.92
   1 -17  15    1.23    5.56
  -1  17 -14   11.78    4.73
   1 -17  14   26.35   13.80
  -1  17 -13   13.25    5.21
   1 -17  13   12.22    6.50
  -1  17 -12   26.94    9.15
   1 -17  12   28.05    9.23
  -1  17 -11    1.94    2.96
   1 -17  11    5.45    5.45
  -1  17 -10    3.42    2.99
   1 -17  10    5.04    5.20
  -1  17  -9   11.76    4.06
   1 -17   9   21.02    9.08
  -1  17  -8    4.63    3.47
   1 -17   8    8.89    7.32
  -1  17  -7   55.06    8.75
   1 -17   7   30.16   11.21
  -1  17  -6   10.43    5.05
   1 -17   6   13.18    9.36
  -1  17  -5    8.43    4.09
   1 -17   5    5.95    4.82
  -1  17  -4   18.79   10.08
   1 -17   4   15.67    7.79
   1 -17   3   11.97    6.30
  -1  17  -2   37.54   11.69
   1 -17   2   28.29    8.74
   1 -17   1   19.01    9.95
   1 -17   0   28.61    7.30
  -1  17   1    9.96    3.76
   1 -17  -1    8.34    5.41
  -1  17   2    7.93    5.62
   1 -17  -2    2.63    4.04
  -1  17   3   27.78    7.31
   1 -17  -3   21.82    7.58
  -1  17   4   18.45    9.67
   1 -17  -4   21.31    6.65
  -1  17   5  109.59   17.00
   1 -17  -5   86.32   14.32
  -1  17   6    8.00    4.78
   1 -17  -6   12.75    4.64
  -1  17   7    5.89    6.51
   1 -17  -7    5.17    3.85
  -1  17   8   13.82    8.33
   1 -17  -8    6.42    4.99
  -1  17   9    2.10    5.24
   1 -17  -9    7.65    5.37
  -1  17  10   12.58    7.92
   1 -17 -10    8.61    6.24
  -1  17  11   22.76   11.50
   1 -17 -11    1.95    3.65
  -1  17  12    5.69    6.44
   1 -17 -12   10.89    4.99
  -1  17  13    3.18    5.95
   1 -17 -13    5.27    3.27
  -1  17  14   -0.77    5.96
   1 -17 -14    5.07    3.59
  -1  16 -19    3.36    3.47
   1 -16  19    8.99    7.29
  -1  16 -18    8.78    6.56
   1 -16  18    9.39    5.48
   1 -16  17   17.18    9.04
  -1  16 -16    6.85    3.39
   1 -16  16   25.45   11.24
  -1  16 -15   24.87    9.83
   1 -16  15    4.94    6.19
  -1  16 -14   31.72    9.06
   1 -16  14   54.79   11.13
  -1  16 -13   12.55    4.36
   1 -16  13    6.68    5.67
  -1  16 -12   13.27    4.99
   1 -16  12   12.11    5.81
  -1  16 -11   12.95    7.31
   1 -16  11   13.27    8.62
  -1  16 -10   14.56    9.20
   1 -16  10    3.68    5.54
  -1  16  -9   38.93   12.37
   1 -16   9   50.53   11.59
  -1  16  -8    4.93    3.54
   1 -16   8   13.86    8.32
  -1  16  -7    8.42    5.30
   1 -16   7   18.28    7.74
  -1  16  -6    4.50    3.28
   1 -16   6   16.04    8.16
  -1  16  -5   43.87   10.80
   1 -16   5   36.96    8.55
  -1  16  -4   43.51   10.36
   1 -16   4   45.24   12.49
  -1  16  -3    9.06    3.56
   1 -16   3   15.44    6.99
  -1  16  -2    2.90    2.83
   1 -16   2    3.07    3.93
  -1  16  -1    3.90    3.02
   1 -16   1    4.53    3.78
  -1  16   0   13.27    5.91
   1 -16   0    5.16    6.05
  -1  16   1   65.83   14.38
   1 -16  -1   82.05   12.79
  -1  16   2  131.58   13.11
   1 -16  -2  124.18   13.27
  -1  16   3   38.31   10.62
   1 -16  -3   17.65    5.92
  -1  16   4   63.21   15.12
   1 -16  -4   74.45   11.40
  -1  16   5   21.22    7.34
   1 -16  -5   13.10    6.28
  -1  16   6   31.73   10.81
   1 -16  -6   39.36   12.69
  -1  16   7    8.32    7.13
   1 -16  -7   10.60    5.53
  -1  16   8   11.12    7.33
   1 -16  -8    4.67    4.84
  -1  16   9   11.17    7.63
   1 -16  -9    3.26    3.51
  -1  16  10   18.24   10.70
   1 -16 -10    5.35    5.30
  -1  16  11   14.79   10.53
   1 -16 -11   10.86    7.84
  -1  16  12    9.59    6.54
   1 -16 -12   17.63    8.69
  -1  16  13   15.47    9.71
   1 -16 -13   11.58    5.82
  -1  16  14   46.85   19.40
  -1  16  15    5.10    6.36
   1 -16 -15    3.66    5.09
   1 -15  20   20.43   10.52
  -1  15 -19    5.03    4.11
   1 -15  19   15.31    9.32
  -1  15 -18   18.36    7.04
   1 -15  18    6.23    5.55
  -1  15 -17   18.25    7.24
   1 -15  17   19.56   11.14
  -1  15 -16    9.35    3.55
   1 -15  16    6.83    5.86
  -1  15 -15    1.39    3.07
   1 -15  15    2.97    5.91
  -1  15 -14    3.65    3.28
   1 -15  14    6.08    5.93
  -1  15 -13  124.93   13.75
   1 -15  13  112.20   15.31
  -1  15 -12   19.69    9.87
   1 -15  12   25.96   10.16
  -1  15 -11  318.01   23.70
   1 -15  11  352.02   26.19
  -1  15 -10   23.16    8.65
   1 -15  10   10.23    6.47
  -1  15  -9   46.79   11.54
   1 -15   9   60.88   21.04
  -1  15  -8    6.91    4.23
   1 -15   8   -1.93    5.65
  -1  15  -7   11.84    3.73
   1 -15   7   14.17    8.92
  -1  15  -6   18.79    8.52
   1 -15   6   11.66    5.41
  -1  15  -5   19.39    8.73
   1 -15   5   14.53    6.71
  -1  15  -4    9.15    5.78
   1 -15   4    9.78    6.25
  -1  15  -3   32.66   10.76
   1 -15   3   18.52    8.07
  -1  15  -2    2.14    3.05
   1 -15   2    3.12    3.99
  -1  15  -1   90.93   16.97
   1 -15   1   86.89   17.76
  -1  15   0   29.25    9.39
   1 -15   0   12.77    7.03
  -1  15   1   18.02    4.87
   1 -15  -1   10.17    6.15
  -1  15   2    8.85    4.10
   1 -15  -2   12.87    6.36
  -1  15   3   20.81    9.19
   1 -15  -3   18.74    9.02
  -1  15   4    6.30    6.39
   1 -15  -4    9.74    6.27
  -1  15   5   55.67   13.77
   1 -15  -5   48.53   12.57
  -1  15   6   12.62    6.77
   1 -15  -6   17.45    9.68
  -1  15   7    8.12    7.55
   1 -15  -7    7.13    5.09
  -1  15   8    9.12    5.83
   1 -15  -8    5.51    5.05
  -1  15   9    9.21    8.07
   1 -15  -9    5.56    3.85
  -1  15  10   13.67    8.89
   1 -15 -10   16.80   10.48
  -1  15  11   16.07    9.50
   1 -15 -11   11.98    6.17
  -1  15  12   11.59    6.77
   1 -15 -12   21.50   10.48
  -1  15  13    5.02    5.86
   1 -15 -13    3.92    3.35
  -1  15  14   16.08    9.92
   1 -15 -14    9.44    5.11
  -1  15  15    3.15    6.22
   1 -15 -15   10.13    4.92
  -1  15  16    0.62    6.10
   1 -15 -16    4.10    4.27
  -1  15  17    9.15    6.65
   1 -15 -17    5.98    4.51
   1 -14  21    8.94    5.47
   1 -14  21   12.12   11.71
   1 -14  20    4.87    4.35
   1 -14  20    0.61    6.92
   1 -14  19    5.40    5.03
   1 -14  19   16.09   10.78
   1 -14  18    3.70    3.11
   1 -14  18    3.80    6.08
   1 -14  17   16.12   11.00
  -1  14 -16    6.05    4.86
   1 -14  16    2.91    6.51
  -1  14 -15    5.66    3.35
   1 -14  15   16.52   11.59
  -1  14 -14  132.03   13.20
   1 -14  14  113.48   14.92
  -1  14 -13   15.57    5.66
   1 -14  13   25.12   10.97
  -1  14 -12   30.04    8.44
   1 -14  12   34.76   12.03
  -1  14 -11   54.22   12.91
   1 -14  11   71.36   13.76
  -1  14 -10    9.54    4.89
   1 -14  10   19.68   11.41
  -1  14  -9    8.88    4.83
   1 -14   9   18.56   11.17
  -1  14  -8    4.25    2.78
   1 -14   8   -0.52    5.74
  -1  14  -7   21.00    7.38
   1 -14   7   22.17   10.41
  -1  14  -6    7.96    4.20
   1 -14   6    5.82    5.05
  -1  14  -5  105.54    9.37
   1 -14   5   88.33   18.69
  -1  14  -4    6.85    4.23
   1 -14   4    1.40    5.38
  -1  14  -3   59.12   13.82
   1 -14   3   30.24    8.75
  -1  14  -2  191.11   16.31
   1 -14   2  209.03   19.11
  -1  14  -1  110.48   17.51
   1 -14   1  117.14   20.57
  -1  14   0  126.41   12.06
   1 -14   0  106.05   17.26
  -1  14   1   39.54    9.81
   1 -14  -1   27.70    7.32
  -1  14   2    6.13    4.77
   1 -14  -2    1.87    4.24
  -1  14   3    9.19    4.69
   1 -14  -3    3.37    4.11
  -1  14   4  148.78   13.96
   1 -14  -4  143.51   12.02
  -1  14   5   27.88    7.52
   1 -14  -5   20.55    8.32
  -1  14   6   19.87    9.11
   1 -14  -6   12.52    5.97
  -1  14   7    6.92    4.76
   1 -14  -7   10.10    6.49
  -1  14   8   55.70   13.86
   1 -14  -8   59.01   14.71
   1 -14  -9   17.38    9.37
   1 -14 -10   11.30    5.50
  -1  14  11    5.23    6.85
   1 -14 -11    9.87    4.33
  -1  14  12   11.88    7.09
   1 -14 -12   21.41    7.10
  -1  14  13    9.16    5.72
   1 -14 -13    6.19    3.77
  -1  14  14   29.80   13.01
  -1  14  15   10.29    6.35
   1 -14 -15    4.46    3.48
  -1  14  16    2.22    6.10
   1 -14 -16    1.62    2.18
  -1  14  17    7.44    6.81
   1 -14 -17    4.21    4.76
  -1  14  18   13.10    7.85
   1 -13  22    3.89    3.67
   1 -13  21   20.08    8.18
   1 -13  21   40.47   19.26
   1 -13  20    8.66    4.57
   1 -13  20    4.91    9.09
   1 -13  19   11.82    5.76
   1 -13  19   13.92    8.34
   1 -13  18    2.60    2.48
   1 -13  18    7.63    5.36
   1 -13  17    4.98    5.18
   1 -13  17    7.42    5.22
   1 -13  16    5.25    3.22
   1 -13  16   14.11   12.89
   1 -13  15   11.16    6.13
   1 -13  15   11.50   11.22
  -1  13 -14   61.33   13.84
   1 -13  14   62.70   17.62
  -1  13 -13   30.44    8.18
   1 -13  13   17.20   10.80
  -1  13 -12   60.71   12.67
   1 -13  12   58.36   17.19
  -1  13 -11  100.09    9.39
   1 -13  11   93.17   11.91
  -1  13 -10    6.89    2.55
  -1  13 -10   12.84    4.65
   1 -13  10   17.16   10.16
  -1  13  -9  133.21   12.25
  -1  13  -9  180.56   17.22
   1 -13   9  166.64   19.25
  -1  13  -8    6.60    2.91
  -1  13  -8   12.48    5.52
   1 -13   8   11.72    6.22
  -1  13  -7   87.29   14.09
  -1  13  -7  113.36   17.66
   1 -13   7   80.16   22.17
  -1  13  -6   15.04    3.40
   1 -13   6   14.89    6.14
  -1  13  -5   41.25    9.74
  -1  13  -5   55.85   11.71
   1 -13   5   76.77   17.14
  -1  13  -4   30.72    7.54
  -1  13  -4   24.39    7.36
   1 -13   4   31.78   10.47
  -1  13  -3  343.14   26.51
  -1  13  -3  409.92   30.50
   1 -13   3  424.91   39.72
  -1  13  -2   73.47   22.06
  -1  13  -2  138.31   16.63
   1 -13   2  129.56   16.82
  -1  13  -1  138.31   38.37
  -1  13  -1  248.67   20.21
   1 -13   1  260.99   22.87
  -1  13   0   34.51    9.20
   1 -13   0   22.28    6.99
   1 -13   0   29.98    8.89
  -1  13   1   12.26    3.94
   1 -13  -1   15.51    4.82
  -1  13   2   -1.34    3.27
   1 -13  -2   13.53    4.32
  -1  13   3   34.29   10.68
   1 -13  -3   49.02   12.79
  -1  13   4   10.25    4.93
   1 -13  -4    1.75    3.88
  -1  13   5    3.28    4.76
   1 -13  -5    3.72    3.91
  -1  13   6   17.20    6.67
   1 -13  -6   15.99    6.92
  -1  13   7   85.14   12.10
   1 -13  -7  115.42   13.26
  -1  13   8   39.42    9.46
   1 -13  -8   60.44   12.17
  -1  13   9  295.22   24.54
   1 -13  -9  344.74   26.50
  -1  13  10    1.07    6.28
   1 -13 -10   16.53    5.74
  -1  13  11   15.25   11.10
   1 -13 -11    8.34    6.25
  -1  13  12    8.66    7.13
   1 -13 -12    1.68    4.60
  -1  13  13    6.75    6.65
   1 -13 -13    7.38    4.07
  -1  13  14    2.71    5.78
   1 -13 -14   11.52    4.43
  -1  13  15    9.53    9.03
   1 -13 -15    5.84    4.85
   1 -13 -16    4.13    2.50
   1 -13 -17    6.96    6.13
  -1  13  18    8.35    7.24
  -1  13  19    9.65    7.82
  -1  13  20    0.69    7.43
   1 -12  23    2.23    2.92
   1 -12  23    2.59    7.18
   1 -12  22    1.13    2.96
   1 -12  21   11.79    5.60
   1 -12  21   11.72    9.77
   1 -12  20   26.68    8.62
   1 -12  20   14.10   10.39
   1 -12  19    3.83    3.94
   1 -12  19    7.94    6.96
   1 -12  18   12.41    6.37
   1 -12  18    5.49    8.08
   1 -12  17    3.75    2.68
   1 -12  17   22.08   11.92
   1 -12  16   87.43   25.79
   1 -12  16  124.74   18.89
   1 -12  15    7.17    4.28
   1 -12  15   -3.67    7.28
   1 -12  14    6.29    3.55
   1 -12  14    5.23    7.03
   1 -12  13   11.28    5.40
   1 -12  13   14.48   10.69
  -1  12 -12   20.22    7.36
   1 -12  12   14.26    8.14
  -1  12 -11    4.59    2.91
  -1  12 -11    5.11    5.43
   1 -12  11    0.06    7.14
  -1  12 -10  247.49   19.51
  -1  12 -10  323.72   25.35
   1 -12  10  311.34   26.64
  -1  12  -9    8.99    5.47
   1 -12   9   12.29    9.82
  -1  12  -8   15.08    3.70
  -1  12  -8   18.86    7.20
   1 -12   8   18.13    8.33
  -1  12  -7   17.45    5.89
  -1  12  -7   12.12    4.30
   1 -12   7   15.56    7.84
  -1  12  -6    3.36    2.56
  -1  12  -6    6.02    4.43
   1 -12   6   17.18   10.85
  -1  12  -5    6.77    4.30
  -1  12  -5    2.28    4.57
   1 -12   5   15.96   10.50
  -1  12  -4    8.87    3.12
  -1  12  -4   21.34    7.25
   1 -12   4   16.55    7.22
  -1  12  -3   44.28   14.28
  -1  12  -3   61.58   13.50
   1 -12   3   65.87   14.89
  -1  12  -2   13.14    5.55
  -1  12  -2   17.13    5.72
   1 -12   2   21.88    7.86
  -1  12  -1    9.22    3.56
   1 -12   1   19.76    8.47
  -1  12   0   68.05   13.86
   1 -12   0   51.51   11.12
   1 -12   0   77.40   10.07
  -1  12   1    8.56    3.83
   1 -12  -1    1.56    3.40
   1 -12  -1    4.65    3.98
  -1  12   2   35.06    8.76
   1 -12  -2   24.13    7.30
   1 -12  -2   25.29    6.89
  -1  12   3    7.30    5.20
   1 -12  -3    6.73    5.34
  -1  12   4  174.43   16.50
   1 -12  -4  205.81   18.98
  -1  12   5    7.57    5.39
   1 -12  -5    5.99    5.57
  -1  12   6   40.65   12.66
   1 -12  -6   21.22    8.02
  -1  12   7   27.85   10.14
   1 -12  -7   10.53    5.43
  -1  12   8   60.69   13.32
   1 -12  -8   47.37   12.34
  -1  12   9    4.70    6.07
   1 -12  -9    2.87    3.42
  -1  12  10    3.45    7.16
   1 -12 -10    2.38    2.43
  -1  12  11   17.95   10.88
   1 -12 -11   24.43   11.90
   1 -12 -12   52.58   19.42
   1 -12 -13    7.01    3.65
  -1  12  14    0.19    6.02
   1 -12 -14    6.05    4.85
  -1  12  15   10.76    6.71
   1 -12 -15    5.84    5.10
  -1  12  16    7.59    6.29
   1 -12 -16   14.95   14.14
  -1  12  17    4.37    6.58
  -1  12  18   21.04    9.88
  -1  12  19    8.73    7.46
  -1  12  20    0.23    7.63
  -1  12  21    5.49    9.85
   1 -11  24    4.22    3.40
   1 -11  24   24.06   13.53
   1 -11  23    8.01    3.58
   1 -11  23    5.34    7.20
   1 -11  22    3.15    4.13
   1 -11  22    0.51    6.70
   1 -11  21    6.81    4.19
   1 -11  20    1.74    2.89
   1 -11  20   10.33    9.75
   1 -11  19   42.52   13.33
   1 -11  19   20.28   11.85
   1 -11  18    4.47    3.85
   1 -11  18   11.82   10.66
   1 -11  17   69.05   15.21
   1 -11  17   49.06   14.55
   1 -11  16    9.04    4.64
   1 -11  16    0.42    7.81
   1 -11  15   11.70    3.69
   1 -11  15    7.99    8.35
   1 -11  14   38.17   12.36
   1 -11  14   67.46   18.44
   1 -11  13   63.63   16.49
  -1  11 -13   64.63   10.73
   1 -11  13   93.08   18.14
   1 -11  12    5.02    4.01
  -1  11 -12    3.75    3.53
   1 -11  12    7.74    9.19
  -1  11 -11  203.92   17.00
   1 -11  11  177.86   19.66
  -1  11 -10   12.30    3.89
  -1  11 -10    9.76    3.41
   1 -11  10   17.60    9.63
  -1  11  -9  215.91   17.83
  -1  11  -9  222.42   19.01
   1 -11   9  244.14   24.39
  -1  11  -8   85.12    9.16
  -1  11  -8   75.89   15.28
   1 -11   8  102.22   14.91
  -1  11  -7  710.57   22.95
  -1  11  -7  728.28   24.11
   1 -11   7  735.85   27.69
  -1  11  -6   15.08    4.55
  -1  11  -6   15.08    6.22
   1 -11   6    9.90    8.23
  -1  11  -5  305.21   13.49
  -1  11  -5  272.77   12.75
   1 -11   5  317.01   18.16
  -1  11  -4    7.09    3.05
  -1  11  -4   12.47    5.26
   1 -11   4    9.21    6.60
  -1  11  -3    7.14    3.52
  -1  11  -3   15.32    3.61
   1 -11   3   16.94    8.05
  -1  11  -2    6.36    4.90
  -1  11  -2   10.79    3.65
   1 -11   2   12.30    6.46
  -1  11  -1  368.94   12.72
   1 -11   1  366.89   13.26
   1 -11   1  382.69   14.18
  -1  11   0  133.74   10.82
   1 -11   0  116.36    9.80
   1 -11   0  127.26   11.85
  -1  11   1   35.97    9.09
   1 -11  -1   24.67    6.63
   1 -11  -1   59.46   10.60
  -1  11   1   41.97   11.23
  -1  11   2    1.06    3.51
   1 -11  -2    4.78    4.41
   1 -11  -2   12.98    6.37
  -1  11   2    5.76    5.31
  -1  11   3   87.61   11.83
   1 -11  -3   97.55   11.35
   1 -11  -3  120.85   15.23
  -1  11   3  104.03   13.18
  -1  11   4    8.71    5.03
   1 -11  -4   10.77    4.99
   1 -11  -4    8.37    3.75
  -1  11   4   20.27    8.19
  -1  11   5  188.58   18.42
   1 -11  -5  197.22   17.27
  -1  11   5  179.38   15.72
  -1  11   6    1.23    5.35
   1 -11  -6    5.79    4.15
  -1  11   6    6.08    3.83
  -1  11   7   10.82    6.01
   1 -11  -7   11.60    4.76
  -1  11   7   15.97    5.17
  -1  11   8   21.68    9.64
   1 -11  -8   13.13    4.76
  -1  11   8   11.08    3.29
   1 -11  -9   27.23    8.31
  -1  11   9   19.08    7.60
   1 -11 -10   98.89   23.17
  -1  11  10   69.12   22.07
   1 -11 -11   54.53   17.56
  -1  11  11   38.62    9.77
  -1  11  12    8.03    6.38
   1 -11 -12    3.34    2.53
  -1  11  12    5.48    3.07
  -1  11  13   10.63    6.57
   1 -11 -13   11.98    4.96
  -1  11  14    5.72    6.27
   1 -11 -14    7.99    4.73
  -1  11  15   10.89    6.59
   1 -11 -15    4.06    5.06
  -1  11  16   14.68   11.26
   1 -11 -16    6.04    5.25
  -1  11  17   21.16   11.08
  -1  11  18   24.16   11.62
  -1  11  19    8.96    7.28
  -1  11  20    1.93    7.49
  -1  11  21    8.44    9.74
  -1  11  21    1.89    2.19
  -1  11  22    9.83   10.13
   1 -10  25   16.20    7.59
   1 -10  25    8.86    6.95
   1 -10  24   34.39   14.02
   1 -10  24   24.91   11.12
   1 -10  23    2.55    2.97
   1 -10  23   -2.09    7.81
   1 -10  22    6.66    3.29
   1 -10  22   16.71    9.51
   1 -10  21    5.72    4.98
   1 -10  20    5.47    4.14
   1 -10  20   16.90   11.12
   1 -10  19    5.82    3.51
   1 -10  19   11.46   11.93
   1 -10  18    8.36    4.67
   1 -10  18    8.66    8.49
   1 -10  17    9.04    5.23
   1 -10  17    1.39    8.91
   1 -10  16  196.06   16.57
   1 -10  16  188.47   20.47
   1 -10  15    8.45    4.34
   1 -10  15   16.19   12.90
   1 -10  14    1.51    2.72
  -1  10 -14    3.27    2.45
   1 -10  14   -1.34    8.64
   1 -10  13   43.32   12.93
  -1  10 -13   25.95    7.36
   1 -10  13   53.21   15.36
  -1  10 -12   12.64    3.90
   1 -10  12   15.45   14.05
   1 -10  11   73.99   21.73
  -1  10 -11   79.30    6.40
   1 -10  11   71.72   18.06
   1 -10  10   51.50   15.84
  -1  10 -10   55.04   11.39
   1 -10  10   54.45   19.26
  -1  10  -9   15.25    4.39
   1 -10   9   14.60   10.09
  -1  10  -8   11.05    3.26
  -1  10  -8    6.21    3.16
   1 -10   8   16.08    9.96
  -1  10  -7  117.40    9.11
  -1  10  -7  109.31    9.62
   1 -10   7  125.83   16.43
  -1  10  -6   37.36    9.46
  -1  10  -6   18.43    4.81
   1 -10   6   26.48    9.14
  -1  10  -5    3.94    2.50
  -1  10  -5    5.93    3.86
   1 -10   5    6.16    9.10
  -1  10  -4   10.25    3.03
  -1  10  -4   14.08    4.57
   1 -10   4    2.93    5.82
  -1  10  -3   82.10   17.82
  -1  10  -3   89.26   11.27
   1 -10   3  101.49   18.97
  -1  10  -3   85.28   13.86
  -1  10  -2   39.36   12.28
  -1  10  -2   49.11    9.40
   1 -10   2   32.66    7.46
  -1  10  -2   42.00    9.11
  -1  10  -1  537.99   20.88
   1 -10   1  509.97   20.15
   1 -10   1  536.89   28.77
  -1  10  -1  497.27   21.24
  -1  10   0   26.47    6.33
   1 -10   0   54.54    9.01
   1 -10   0   27.29    6.43
  -1  10   0   31.71    7.36
  -1  10   1   32.15    7.04
   1 -10  -1   47.75    9.71
   1 -10  -1   30.73    7.81
  -1  10   1   45.73   10.28
  -1  10   2  237.42   17.40
   1 -10  -2  227.44   16.42
   1 -10  -2  244.48   18.92
  -1  10   2  224.19   16.52
  -1  10   3  269.04   19.81
   1 -10  -3  280.22   20.98
   1 -10  -3  283.50   21.09
  -1  10   3  264.33   19.67
  -1  10   4    8.89    6.25
   1 -10  -4    8.28    5.20
   1 -10  -4    5.25    4.07
  -1  10   4   11.64    4.26
   1 -10  -5  264.25   19.40
   1 -10  -5  300.53   22.37
  -1  10   5  280.50   20.02
   1 -10  -6   58.08   11.45
   1 -10  -6   66.63    9.70
  -1  10   6   56.67   10.84
   1 -10  -7  143.47   13.45
  -1  10   7  127.39   11.33
   1 -10  -8  157.10   15.05
  -1  10   8  142.57   12.98
  -1  10   9   15.93   10.17
   1 -10  -9   16.70    6.13
  -1  10   9   20.17    6.70
  -1  10  10   18.81    8.47
   1 -10 -10   21.60    9.23
  -1  10  10   20.01    6.78
  -1  10  11   14.06    8.00
   1 -10 -11   11.32    6.55
  -1  10  11   12.94    3.11
  -1  10  12  111.57   20.07
   1 -10 -12   87.74   22.15
  -1  10  12  110.65   17.52
  -1  10  13   35.69   11.11
   1 -10 -13   52.05   14.71
  -1  10  13   31.35    5.97
  -1  10  14    3.71    6.38
   1 -10 -14    2.85    3.77
  -1  10  14    1.58    2.32
  -1  10  15  111.29   15.91
   1 -10 -15  147.76   36.05
  -1  10  15   79.28   12.65
  -1  10  16   13.40    9.68
  -1  10  17   60.10   15.92
  -1  10  18   10.66    7.31
  -1  10  19    6.81    7.11
  -1  10  20   12.87    8.85
  -1  10  20   11.90    3.66
  -1  10  21    7.00    7.07
  -1  10  21    3.03    2.35
  -1  10  22    1.56    6.47
  -1  10  22    4.72    2.86
  -1  10  23    4.63    6.43
   1  -9  25   31.49   13.78
   1  -9  25   63.05   27.11
   1  -9  24   10.65    6.37
   1  -9  24   18.41   11.40
   1  -9  23   12.99    6.51
   1  -9  23    2.35    7.75
   1  -9  22    2.67    3.10
   1  -9  22    8.94    8.21
   1  -9  21    8.89    5.17
   1  -9  21    8.37   11.73
   1  -9  20   20.71    5.87
   1  -9  19   16.91    6.06
   1  -9  19   52.33   18.88
   1  -9  18   11.63    4.84
   1  -9  18    1.15    9.19
   1  -9  17  332.99   24.87
   1  -9  17  387.10   35.27
   1  -9  16   21.15    7.70
   1  -9  16   21.98   12.48
   1  -9  15  170.34   15.13
   1  -9  15  136.48   22.56
   1  -9  14  147.83    9.27
  -1   9 -14  140.74   16.43
   1  -9  14  145.81   19.38
   1  -9  13  211.99   18.51
  -1   9 -13  208.99   17.45
   1  -9  13  250.96   27.09
   1  -9  12  107.88   11.73
  -1   9 -12   97.54   10.09
   1  -9  12  107.64   21.30
   1  -9  11    9.65    4.72
  -1   9 -11    7.52    3.99
   1  -9  11   17.66   12.65
   1  -9  10  290.03   22.76
  -1   9 -10  247.83    8.86
   1  -9  10  267.48   20.00
   1  -9   9    8.85    5.12
  -1   9  -9    4.17    2.71
   1  -9   9   16.61    8.91
   1  -9   8  289.39   20.84
  -1   9  -8  368.74   11.82
   1  -9   8  359.05   18.17
  -1   9  -7  175.07   12.88
  -1   9  -7  179.75   13.77
   1  -9   7  208.13   21.05
  -1   9  -6   55.78    7.77
  -1   9  -6   56.71    8.34
   1  -9   6   56.63   12.77
  -1   9  -6   37.49    8.37
  -1   9  -5   61.32    5.09
  -1   9  -5   50.05    8.60
   1  -9   5   48.95    9.81
  -1   9  -5   50.40   10.44
  -1   9  -4   42.58    6.93
  -1   9  -4   47.02    8.17
   1  -9   4   37.16    7.96
  -1   9  -4   22.52    6.28
  -1   9  -3 1068.20   33.44
  -1   9  -3 1109.22   31.81
   1  -9   3 1016.21   31.04
  -1   9  -3 1061.61   33.33
  -1   9  -2   45.05    9.72
  -1   9  -2   59.89    5.27
   1  -9   2   64.10   10.33
  -1   9  -2   53.84   10.54
  -1   9  -1   66.65    9.34
   1  -9   1   71.18   10.18
   1  -9   1   66.70    9.84
  -1   9  -1   55.81    9.60
  -1   9   0  155.70   19.47
   1  -9   0  150.80   18.74
   1  -9   0  168.91   27.08
  -1   9   0  152.50   19.40
  -1   9   1  108.39   14.10
   1  -9  -1  103.20   13.26
   1  -9  -1  119.18   15.66
  -1   9   1  108.69   14.31
  -1   9   2  345.01   13.42
   1  -9  -2  347.67   14.12
   1  -9  -2  328.63   13.36
  -1   9   2  349.01   13.51
   1  -9  -3  170.62   11.05
   1  -9  -3  176.75   12.86
  -1   9   3  189.95   12.80
   1  -9  -4   41.82    8.73
   1  -9  -4   23.23    5.39
  -1   9   4   34.43    6.93
  -1   9   5   12.55    4.29
   1  -9  -5   12.16    3.63
   1  -9  -5   16.50    7.53
  -1   9   5   12.24    3.52
  -1   9   6    8.59    7.72
   1  -9  -6    5.10    3.47
   1  -9  -6   12.34    5.06
  -1   9   6   11.62    3.97
  -1   9   7    8.65    5.80
   1  -9  -7    1.57    3.22
   1  -9  -7    1.89    2.79
  -1   9   7    4.54    3.40
  -1   9   8  132.36   14.11
   1  -9  -8  116.96   13.76
  -1   9   8  128.37   11.39
  -1   9   9    2.17    6.29
   1  -9  -9    8.38    5.26
  -1   9   9   10.37    4.12
  -1   9  10   57.09   17.08
   1  -9 -10   35.47   11.27
  -1   9  10   38.25   10.15
  -1   9  11  235.81   22.58
   1  -9 -11  263.36   29.93
  -1   9  11  231.34   21.09
  -1   9  12   92.43   16.59
   1  -9 -12   54.98   17.48
  -1   9  12   52.92   15.61
  -1   9  13  183.29   23.73
   1  -9 -13  160.22   24.62
  -1   9  13  122.02   19.20
  -1   9  14   31.82    9.74
   1  -9 -14   57.06   19.96
  -1   9  14   20.19    6.50
  -1   9  15   74.33   16.73
  -1   9  15   75.62   13.87
  -1   9  16    4.38    6.51
  -1   9  16    5.73    2.89
  -1   9  17    8.89    9.10
  -1   9  18   21.10   13.05
  -1   9  19   16.14   13.65
  -1   9  20   -0.88    7.74
  -1   9  20   11.03    4.26
  -1   9  21   30.06   11.65
  -1   9  21   24.46    8.18
  -1   9  22   29.11   11.41
  -1   9  22    4.84    3.51
  -1   9  23   15.52    9.87
   1  -8  26    8.88    6.52
   1  -8  26   -0.18    8.19
   1  -8  25    2.38    4.44
   1  -8  25   11.26    7.90
   1  -8  24    4.59    4.60
   1  -8  24    4.02    8.04
   1  -8  23    7.65    4.56
   1  -8  23    4.11    8.34
   1  -8  22   29.66   10.32
   1  -8  22   31.31   15.37
   1  -8  21   31.88   11.86
   1  -8  21   17.73   14.24
   1  -8  20    8.22    4.93
   1  -8  19  110.28   13.30
   1  -8  18   17.59    7.93
   1  -8  18   21.59   15.20
   1  -8  17   12.68    7.39
   1  -8  17    8.88    9.74
   1  -8  16  126.64   13.21
   1  -8  16  129.62   20.69
   1  -8  15    5.17    4.66
   1  -8  14   75.28   15.46
  -1   8 -14   49.90   10.71
   1  -8  14   52.83   17.89
   1  -8  13    5.38    4.07
  -1   8 -13    0.13    3.47
   1  -8  13   17.70   13.34
   1  -8  12  393.56   15.71
  -1   8 -12  362.75   14.41
   1  -8  12  401.52   24.07
   1  -8  11  263.05   19.82
  -1   8 -11  257.95   18.67
   1  -8  11  256.16   27.03
   1  -8  10  338.79   12.53
  -1   8 -10  306.62   21.37
   1  -8  10  346.63   24.59
   1  -8   9  522.00   38.29
  -1   8  -9  496.01   19.05
   1  -8   9  479.64   24.28
   1  -8   8    2.51    4.12
  -1   8  -8    4.70    2.29
   1  -8   8   12.47    8.21
  -1   8  -8   16.41    6.85
   1  -8   7    4.60    4.14
  -1   8  -7    5.87    3.57
   1  -8   7    5.60    9.74
  -1   8  -7    8.73    6.20
  -1   8  -6  149.11   18.09
  -1   8  -6  137.99   17.40
   1  -8   6  175.34   17.14
  -1   8  -6  146.53   19.28
  -1   8  -5   19.36    4.97
  -1   8  -5   17.32    4.90
   1  -8   5   17.69    5.93
  -1   8  -5   15.08    4.45
  -1   8  -4  526.17   20.56
  -1   8  -4  507.27   20.15
   1  -8   4  546.44   23.18
  -1   8  -4  542.13   23.14
  -1   8  -3   11.64    5.62
  -1   8  -3    5.14    2.97
   1  -8   3    1.83    6.46
  -1   8  -3    8.54    7.39
  -1   8  -2   14.39    5.38
  -1   8  -2   26.95    6.49
   1  -8   2   27.03    7.58
  -1   8  -2   17.00    6.09
  -1   8  -1  107.10    7.27
   1  -8   1  117.89    6.92
   1  -8   1   98.82    8.94
  -1   8  -1  112.71    8.23
  -1   8   0  588.95   22.47
   1  -8   0  622.55   24.27
   1  -8   0  640.03   25.22
  -1   8   0  638.45   25.47
  -1   8   1  177.87    7.69
   1  -8  -1  164.84    7.51
   1  -8  -1  182.35    9.09
  -1   8   1  173.76    8.08
  -1   8   2  215.56    8.82
   1  -8  -2  207.48    8.13
   1  -8  -2  212.59    8.81
  -1   8   2  197.43   10.88
  -1   8   3  203.89    8.43
   1  -8  -3  218.31    8.57
   1  -8  -3  205.54    9.29
  -1   8   3  205.33    7.76
  -1   8   4  139.23   17.67
   1  -8  -4  138.62   17.54
   1  -8  -4  163.61   11.12
  -1   8   4  149.10   18.57
  -1   8   5  104.03   14.60
   1  -8  -5  101.84   13.74
   1  -8  -5  113.04   15.08
  -1   8   5  109.75   14.29
  -1   8   6  126.87   18.78
   1  -8  -6  120.70   15.91
   1  -8  -6  106.99   14.26
  -1   8   6  110.50   14.09
  -1   8   7    6.22    7.69
   1  -8  -7    1.79    3.19
   1  -8  -7    2.09    3.62
  -1   8   7    0.39    2.27
  -1   8   8   56.35   10.03
   1  -8  -8   74.64   10.65
   1  -8  -8   74.35   10.20
  -1   8   8   79.93    9.81
  -1   8   9    0.05    5.94
   1  -8  -9    5.91    2.89
  -1   8   9    9.19    4.01
  -1   8  10    2.79    6.74
   1  -8 -10    4.63    3.74
  -1   8  10    4.33    2.71
  -1   8  11    3.10    7.26
   1  -8 -11    6.12    2.77
  -1   8  11    4.44    2.61
  -1   8  12    6.79    7.86
   1  -8 -12   16.51    6.76
  -1   8  12    6.38    2.34
   1  -8 -13   56.52   14.66
  -1   8  13   64.54   12.06
  -1   8  14    6.15    8.67
  -1   8  14    4.97    2.40
  -1   8  15   -1.22    6.43
  -1   8  15    1.94    1.74
  -1   8  16   10.30    6.72
  -1   8  16    5.16    2.73
  -1   8  17    7.97    9.37
  -1   8  17    2.11    1.77
  -1   8  18    6.57    7.63
  -1   8  19    8.45    8.42
  -1   8  19    2.62    2.11
  -1   8  20   27.77    9.18
  -1   8  20   27.93    6.12
  -1   8  21    6.16    6.88
  -1   8  21   -0.19    1.91
  -1   8  22   41.27   14.19
  -1   8  22   44.63   11.24
  -1   8  23    6.65    6.55
  -1   8  23    3.73    3.52
  -1   8  24    9.75    8.21
   1  -7  26    7.20    6.19
   1  -7  26    6.63    7.83
   1  -7  25    1.68    3.99
   1  -7  25   12.66    8.85
   1  -7  24    8.58    6.64
   1  -7  24   10.93    9.09
   1  -7  23    3.36    4.88
   1  -7  23   17.24   12.27
   1  -7  22    8.21    4.96
   1  -7  22   14.65   14.67
   1  -7  21    5.74    6.35
   1  -7  21   14.39   10.44
   1  -7  20   34.76    9.44
   1  -7  20   26.95   11.13
   1  -7  19   71.54   14.81
   1  -7  18   13.84    7.98
   1  -7  18   10.67    9.86
   1  -7  17    2.58    3.92
   1  -7  17   -2.80   11.05
   1  -7  16    6.73    7.08
   1  -7  16    5.09   12.21
   1  -7  15  164.00   15.82
   1  -7  15  137.48   21.91
   1  -7  14    8.55    5.09
  -1   7 -14   17.26    7.02
   1  -7  14    7.40   12.61
   1  -7  13  727.68   23.88
  -1   7 -13  719.90   22.90
   1  -7  13  780.91   32.25
   1  -7  12   48.31    8.64
  -1   7 -12   41.40    9.95
   1  -7  12   27.96   13.17
   1  -7  11    9.18    4.63
  -1   7 -11   14.27    4.77
   1  -7  11   10.57   10.32
   1  -7  10   76.93   10.43
  -1   7 -10   81.89   10.13
   1  -7  10   91.33   17.18
  -1   7 -10   88.25   13.06
   1  -7   9  173.49   11.74
  -1   7  -9  163.32   10.07
   1  -7   9  188.56   18.03
  -1   7  -9  153.84   20.76
   1  -7   8   29.14    6.48
  -1   7  -8   21.08    4.32
   1  -7   8   21.79   11.61
  -1   7  -8   12.57    4.25
   1  -7   7    0.64    2.40
  -1   7  -7    5.05    2.69
   1  -7   7   12.31    8.09
  -1   7  -7    5.85    6.52
   1  -7   6   10.64    3.99
  -1   7  -6    7.60    2.04
   1  -7   6    7.34    6.64
  -1   7  -6   19.30   10.27
  -1   7  -5  408.83   17.33
  -1   7  -5  410.02   17.96
   1  -7   5  362.38   18.63
  -1   7  -5  421.46   19.93
  -1   7  -4    9.17    3.87
  -1   7  -4   11.40    6.01
  -1   7  -4   11.37    7.78
  -1   7  -3 1357.42   19.63
  -1   7  -3 1329.70   18.44
   1  -7   3 1369.80   21.48
  -1   7  -3 1364.87   22.30
  -1   7  -2  197.83   20.47
  -1   7  -2  190.74    9.88
   1  -7   2  164.39   11.13
  -1   7  -2  177.04   11.09
  -1   7  -1  373.23   14.64
   1  -7   1  385.50   15.57
   1  -7   1  331.82   15.08
  -1   7  -1  352.58   12.01
  -1   7   0  591.97   20.85
   1  -7   0  610.52   21.60
   1  -7   0  572.83   20.87
  -1   7   0  593.66   22.60
  -1   7   1  182.42    9.18
   1  -7  -1  215.07   11.37
   1  -7  -1  227.51   11.32
  -1   7   1  198.95   11.24
  -1   7   2  184.73    9.39
   1  -7  -2  183.33    9.90
   1  -7  -2  193.79   10.06
  -1   7   2  187.11    9.61
  -1   7   3  837.22   31.29
   1  -7  -3  836.97   31.05
   1  -7  -3  825.06   30.39
  -1   7   3  826.68   30.28
  -1   7   4   11.64    5.44
   1  -7  -4   10.12    4.49
  -1   7   4   16.07    6.26
  -1   7   5 1240.16   44.86
   1  -7  -5 1329.39   48.12
   1  -7  -5 1238.29   44.50
  -1   7   5 1188.88   42.52
  -1   7   6    6.78    5.16
   1  -7  -6    9.00    3.40
   1  -7  -6    3.08    2.74
  -1   7   6    9.37    4.44
  -1   7   7  185.03   14.82
   1  -7  -7  203.82   12.82
   1  -7  -7  186.49   11.72
  -1   7   7  183.17   11.14
  -1   7   8    2.58    6.56
   1  -7  -8   11.07    3.74
   1  -7  -8   13.68    4.58
  -1   7   8   11.16    2.73
  -1   7   9  274.69   21.08
   1  -7  -9  253.78   17.97
   1  -7  -9  301.50   13.75
  -1   7   9  280.30    7.95
  -1   7  10   94.58   11.78
   1  -7 -10   62.55   17.28
  -1   7  10   79.97   10.86
  -1   7  11   34.54   10.38
   1  -7 -11   39.92   12.37
  -1   7  11   31.56    3.87
  -1   7  12   53.51   14.77
   1  -7 -12   33.88    8.85
  -1   7  12   57.85   10.28
  -1   7  13    4.00    8.56
  -1   7  13    1.24    1.79
  -1   7  14   36.81   14.88
  -1   7  14   20.98    6.36
  -1   7  15  115.42   22.56
  -1   7  15   99.35   15.10
  -1   7  16   -0.98    7.19
  -1   7  16    2.03    1.73
  -1   7  17   35.31   13.21
  -1   7  17   23.14    9.31
  -1   7  18    7.63   10.20
  -1   7  18    7.77    3.01
  -1   7  18    3.06    2.15
  -1   7  19   10.29    8.28
  -1   7  19    5.07    3.36
  -1   7  20   17.32   13.05
  -1   7  20    5.57    3.03
  -1   7  21    6.99    7.11
  -1   7  21    9.56    4.88
  -1   7  22    7.19    6.50
  -1   7  22    2.85    3.00
  -1   7  23    3.55    6.26
  -1   7  23    0.15    2.75
  -1   7  24    7.56    6.77
  -1   7  24   13.27    5.94
  -1   7  25    9.75   10.08
   1  -6  27    6.10    4.30
   1  -6  27   12.38   12.57
   1  -6  26   11.08    6.77
   1  -6  26    4.05    7.63
   1  -6  25    5.46    4.03
   1  -6  25    9.40    8.22
   1  -6  24   14.41    8.73
   1  -6  24   13.61   10.34
   1  -6  23    1.54    4.71
   1  -6  23    3.28    9.99
   1  -6  22   94.78   13.86
   1  -6  22   74.68   16.82
   1  -6  21    2.55    4.90
   1  -6  21   10.59    9.39
   1  -6  20  112.65   14.33
   1  -6  20   66.03   21.33
   1  -6  19    2.61    4.49
   1  -6  19   13.00    9.75
   1  -6  18   11.85    5.37
   1  -6  17   24.26    7.11
   1  -6  17   22.52   11.79
   1  -6  16    5.66    5.49
   1  -6  16   23.91   16.93
   1  -6  15   10.87    6.20
  -1   6 -15    9.29    4.13
   1  -6  15   13.23   11.08
   1  -6  14   14.13    8.01
  -1   6 -14   13.03    6.69
   1  -6  14   -5.75   10.47
   1  -6  13   19.06    5.20
  -1   6 -13   14.03    4.71
   1  -6  13   18.16    9.83
   1  -6  12  188.49   15.83
  -1   6 -12  195.37   14.72
   1  -6  12  193.81   19.57
   1  -6  11    9.81    3.83
  -1   6 -11    7.28    4.09
   1  -6  11   10.12   10.52
  -1   6 -11    6.00    6.80
   1  -6  10  611.96   20.01
  -1   6 -10  637.41   19.88
   1  -6  10  676.29   26.12
  -1   6 -10  636.47   21.97
   1  -6   9    0.34    2.90
  -1   6  -9    1.17    2.45
   1  -6   9    3.90    8.58
  -1   6  -9   10.94    5.57
   1  -6   8    9.92    4.48
  -1   6  -8   13.29    3.58
   1  -6   8    5.66    8.09
  -1   6  -8   10.61    6.34
   1  -6   7   47.21    6.18
  -1   6  -7   42.36    4.89
   1  -6   7   35.33    7.94
  -1   6  -7   50.74   10.54
   1  -6   6   82.49   16.56
  -1   6  -6   85.40   10.39
   1  -6   6   71.66   14.41
  -1   6  -6   89.63   14.22
   1  -6   5   59.06   14.15
  -1   6  -5   67.49    8.80
   1  -6   5   56.62   11.89
  -1   6  -5   52.30    8.96
  -1   6  -4  254.16   10.92
  -1   6  -4  261.22   12.09
   1  -6   4  258.55   17.74
  -1   6  -4  239.80   13.43
  -1   6  -3  146.86   13.32
  -1   6  -3  141.02    6.01
   1  -6   3  143.90   11.50
  -1   6  -3  159.38   12.02
  -1   6  -2  401.29   15.15
  -1   6  -2  394.74   14.64
   1  -6   2  391.26   16.67
  -1   6  -2  400.25   18.08
  -1   6  -1   69.78    9.18
   1  -6   1   81.98   10.35
   1  -6   1   65.42    9.36
  -1   6  -1   67.25    9.34
  -1   6   0    1.34    3.03
   1  -6   0    7.55    4.23
   1  -6   0   11.45    6.78
  -1   6   0    5.28    5.17
  -1   6   1    1.59    2.69
   1  -6  -1    3.80    3.22
   1  -6  -1    2.09    3.75
  -1   6   1    4.12    4.76
  -1   6   2  455.43   16.75
   1  -6  -2  457.73   16.64
   1  -6  -2  446.96   16.57
  -1   6   2  431.23   15.88
  -1   6   3  455.08   17.05
   1  -6  -3  466.10   17.22
   1  -6  -3  425.14   15.77
  -1   6   3  438.92   15.88
  -1   6   4    4.34    3.65
   1  -6  -4    3.17    3.05
   1  -6  -4    5.71    3.90
  -1   6   4   12.64    4.77
  -1   6   5  170.76   11.20
   1  -6  -5  159.84    9.09
   1  -6  -5  160.34    8.79
  -1   6   5  161.00    7.78
  -1   6   6  743.81   28.60
   1  -6  -6  764.82   28.89
   1  -6  -6  747.87   27.96
  -1   6   6  721.15   26.04
  -1   6   7  230.73   13.90
   1  -6  -7  211.33    7.82
   1  -6  -7  260.83   14.14
  -1   6   7  251.21   11.44
  -1   6   8  349.50   14.61
   1  -6  -8  398.12   14.68
   1  -6  -8  390.81   14.15
  -1   6   8  367.65   12.28
  -1   6   9    6.88    3.72
   1  -6  -9   11.67    3.38
   1  -6  -9   12.21    3.58
  -1   6   9    9.71    2.11
  -1   6  10   76.31   12.12
   1  -6 -10   53.96    7.93
   1  -6 -10   51.97   11.21
  -1   6  10   70.27    8.70
  -1   6  11   55.93   10.13
   1  -6 -11   52.91   10.72
  -1   6  11   61.00    7.70
  -1   6  12   81.34   12.88
  -1   6  12   82.43    9.40
  -1   6  13  120.19   18.07
  -1   6  13   90.75   10.24
  -1   6  14   18.10    9.94
  -1   6  14   25.90    6.13
  -1   6  15    6.17    8.74
  -1   6  15    3.53    1.93
  -1   6  16    9.73   10.55
  -1   6  16    7.22    2.74
  -1   6  16    0.12    2.09
  -1   6  17   18.80    9.29
  -1   6  17    3.71    2.74
  -1   6  17    4.62    3.43
  -1   6  18   68.88   16.96
  -1   6  18   45.98    9.31
  -1   6  18   64.88   12.40
  -1   6  19    9.85    8.19
  -1   6  19    0.84    1.99
  -1   6  19   -1.08    2.14
  -1   6  20   25.84   12.70
  -1   6  20    2.21    3.25
  -1   6  21   16.21    9.64
  -1   6  21    4.88    3.67
  -1   6  22    7.92    6.74
  -1   6  22    7.08    4.21
  -1   6  23   14.64   10.41
  -1   6  23    8.75    4.20
  -1   6  24   44.25   14.18
  -1   6  24   25.25   10.79
  -1   6  25   18.91   10.27
   1  -5  27    5.01    4.45
   1  -5  27   21.61   12.13
   1  -5  26    5.22    4.29
   1  -5  26    4.54   10.47
   1  -5  25    2.74    3.71
   1  -5  25   15.28   11.53
   1  -5  24    3.59    3.96
   1  -5  24    7.17    7.88
   1  -5  23   51.15   11.38
   1  -5  23   18.09   13.13
   1  -5  22   12.48    4.73
   1  -5  22    1.04    8.00
   1  -5  21    3.35    4.70
   1  -5  20   16.05    7.31
   1  -5  20    8.51    8.72
   1  -5  19  166.17   13.25
   1  -5  19  158.79   19.41
   1  -5  18    4.43    6.03
   1  -5  18   13.35   11.01
   1  -5  17  115.37   15.09
   1  -5  16   -2.79    4.38
   1  -5  16   -1.77   10.94
   1  -5  15   18.10    7.27
  -1   5 -15   18.55    6.18
   1  -5  15   21.14   15.23
   1  -5  14   53.22   12.52
  -1   5 -14   37.65    8.94
   1  -5  14   15.37   10.94
   1  -5  13  312.50   23.51
  -1   5 -13  307.55   22.15
   1  -5  13  255.38   24.44
   1  -5  12   14.22    4.34
  -1   5 -12    7.34    2.96
   1  -5  12    9.79    8.86
  -1   5 -12   11.07    3.58
   1  -5  11   98.32   13.08
  -1   5 -11   87.92   11.61
   1  -5  11   82.83   16.16
  -1   5 -11   72.22   11.74
   1  -5  10    4.86    3.46
  -1   5 -10   12.79    4.74
   1  -5  10   17.61   12.44
  -1   5 -10   10.01    3.86
   1  -5   9  331.02   15.63
  -1   5  -9  351.70   15.28
   1  -5   9  372.12   19.80
  -1   5  -9  363.54   17.66
   1  -5   8   59.30    8.35
  -1   5  -8   60.00    6.51
   1  -5   8   73.97   14.09
  -1   5  -8   66.24   10.01
   1  -5   7  148.15    8.80
  -1   5  -7  140.31    6.02
   1  -5   7  128.88   17.01
  -1   5  -7  145.31    9.32
   1  -5   6    2.50    3.29
  -1   5  -6    4.20    3.48
   1  -5   6    5.34   11.62
  -1   5  -6   -6.37    6.74
   1  -5   5  132.51   15.37
  -1   5  -5  114.80   13.14
   1  -5   5  107.20   16.08
  -1   5  -5  110.90   15.58
   1  -5   4  800.58   14.32
  -1   5  -4  850.95   12.81
   1  -5   4  805.28   16.59
  -1   5  -4  832.05   17.18
  -1   5  -3   18.12    3.92
  -1   5  -3   10.73    2.83
   1  -5   3   11.41    5.89
  -1   5  -3   11.84    7.71
  -1   5  -2   66.10   11.59
  -1   5  -2   69.03    5.22
   1  -5   2   60.64    7.29
  -1   5  -2   57.65    7.62
  -1   5  -1   52.57    7.73
   1  -5   1   63.58    4.08
   1  -5   1   38.57    7.50
  -1   5  -1   47.18    8.74
  -1   5   0  270.15   10.94
   1  -5   0  277.12   11.60
   1  -5   0  259.06   11.85
  -1   5   0  256.95   11.89
  -1   5   1  287.83   30.27
   1  -5  -1  305.43   11.74
   1  -5  -1  285.76   30.31
  -1   5   1  279.37   12.11
  -1   5   2  426.37   15.81
   1  -5  -2  392.62   14.31
   1  -5  -2  391.05   14.04
  -1   5   2  399.18   14.22
  -1   5   3  139.45   16.22
   1  -5  -3  134.56    5.66
   1  -5  -3  138.19   15.46
  -1   5   3  136.43    5.10
  -1   5   4  569.73   20.61
   1  -5  -4  605.20   21.44
   1  -5  -4  567.36   19.59
  -1   5   4  600.33   20.44
  -1   5   5  890.76   15.20
   1  -5  -5  926.54   15.18
   1  -5  -5  911.80   13.59
  -1   5   5  892.54   12.10
  -1   5   6  197.54   11.96
   1  -5  -6  194.28   10.47
   1  -5  -6  201.39    9.69
  -1   5   6  183.49    8.42
  -1   5   7  421.17   19.87
   1  -5  -7  486.44   20.30
   1  -5  -7  430.14   19.70
  -1   5   7  430.62   17.31
  -1   5   8   13.57    6.47
   1  -5  -8   20.28    5.54
   1  -5  -8   10.36    3.69
  -1   5   8   13.87    3.51
  -1   5   9  396.61   18.03
   1  -5  -9  422.77   15.76
   1  -5  -9  390.82   13.64
  -1   5   9  397.09   12.95
  -1   5  10   17.44    5.69
   1  -5 -10   22.47    5.43
   1  -5 -10    6.05    6.36
  -1   5  10   30.09    5.17
  -1   5  11   24.98    9.43
  -1   5  11   21.59    4.63
  -1   5  12   22.59    8.78
  -1   5  12   15.84    2.99
  -1   5  13  116.87   16.92
  -1   5  13  116.11   12.27
  -1   5  14   45.06   13.52
  -1   5  14   57.56   11.54
  -1   5  15  217.19   27.08
  -1   5  15  180.54   15.06
  -1   5  15  178.10   15.56
  -1   5  16   23.36   12.70
  -1   5  16    8.70    2.78
  -1   5  16    9.14    2.92
  -1   5  17  243.25   22.25
  -1   5  17  197.15   16.14
  -1   5  17  206.25   16.86
  -1   5  18   18.56   13.21
  -1   5  18    0.75    1.69
  -1   5  18    7.88    4.01
  -1   5  19  122.97   16.44
  -1   5  19   69.94   13.33
  -1   5  19  121.06   11.77
  -1   5  20    1.63    7.89
  -1   5  20    7.03    4.90
  -1   5  21    7.22    7.03
  -1   5  21    4.10    4.43
  -1   5  22   19.76   10.69
  -1   5  22    1.30    3.27
  -1   5  23    9.35    9.72
  -1   5  23    4.71    4.31
  -1   5  24   15.25    9.83
  -1   5  24    4.43    3.36
  -1   5  25    7.68    6.30
  -1   5  25    1.68    3.57
  -1   5  26   19.30   13.47
   1  -4  27   11.49    5.57
   1  -4  27   15.02   10.04
   1  -4  26    6.07    4.57
   1  -4  26   11.39   11.53
   1  -4  25    4.28    4.36
   1  -4  25    3.91    7.62
   1  -4  24    6.57    5.79
   1  -4  24    2.38    7.60
   1  -4  23   14.60    9.69
   1  -4  23    1.54    7.94
   1  -4  22   17.59    6.88
   1  -4  22   21.86    8.93
   1  -4  21   10.67    6.50
   1  -4  21    7.11    8.12
   1  -4  20  148.32   15.03
   1  -4  20  134.21   17.09
   1  -4  19    4.83    7.71
   1  -4  19   18.03   13.84
   1  -4  18  270.15   23.33
   1  -4  18  239.12   24.42
   1  -4  17    6.42    4.94
   1  -4  16   13.15    7.13
   1  -4  16   16.55   10.36
   1  -4  15  267.11   13.87
  -1   4 -15  268.80   12.72
   1  -4  15  212.03   21.71
   1  -4  14  128.29   11.15
  -1   4 -14  149.38   11.40
   1  -4  14  160.89   20.68
   1  -4  13   10.86    6.69
  -1   4 -13   12.06    5.02
   1  -4  13    9.48    8.97
  -1   4 -13    5.72    3.29
   1  -4  12  126.10   10.76
  -1   4 -12  119.30    9.99
   1  -4  12  100.20   15.07
  -1   4 -12  140.44   11.87
   1  -4  11  178.53   12.64
  -1   4 -11  179.97   12.33
   1  -4  11  127.13   22.77
  -1   4 -11  171.96   12.37
   1  -4  10  694.70   26.82
  -1   4 -10  724.69   27.12
   1  -4  10  678.34   28.97
  -1   4 -10  703.17   27.87
   1  -4   9   14.89    4.22
  -1   4  -9   22.08    5.44
   1  -4   9   23.41   14.09
  -1   4  -9   17.26    4.69
   1  -4   8 3891.65   38.60
  -1   4  -8 3824.77   36.75
   1  -4   8 3960.27   46.59
  -1   4  -8 3902.53   42.78
   1  -4   7  304.74   13.15
  -1   4  -7  311.50   13.02
   1  -4   7  304.94   21.38
  -1   4  -7  316.99   14.94
   1  -4   6 1192.71   16.20
  -1   4  -6 1220.30   15.46
   1  -4   6 1122.26   21.40
  -1   4  -6 1225.09   20.15
   1  -4   5 1175.52   15.66
  -1   4  -5 1165.11   14.31
   1  -4   5 1143.66   19.28
  -1   4  -5 1195.53   20.02
   1  -4   4   33.37    5.63
  -1   4  -4   36.69    5.56
   1  -4   4   32.98   10.20
  -1   4  -4   42.35    8.98
   1  -4   3    5.78    2.71
  -1   4  -3   -0.07    1.41
   1  -4   3   -2.56    5.88
  -1   4  -3   -0.08    7.35
  -1   4  -2   15.10    4.17
  -1   4  -2   16.63    3.55
   1  -4   2   12.82    6.73
  -1   4  -2   10.23    7.65
  -1   4  -1   20.17    3.82
   1  -4   1   19.61    3.80
   1  -4   1   38.00   11.83
  -1   4  -1   28.52   11.32
   1  -4   0  158.20    7.02
   1  -4   0  169.93   10.03
  -1   4   0  152.86    9.93
  -1   4   1  348.02   12.38
   1  -4  -1  335.26   11.93
   1  -4  -1  322.95   11.91
  -1   4   1  328.93   13.03
  -1   4   2   80.38    5.27
   1  -4  -2   88.92    4.69
   1  -4  -2   84.52    4.63
  -1   4   2   63.56    4.62
  -1   4   3    4.04    3.70
   1  -4  -3    7.31    4.55
   1  -4  -3    3.57    2.57
  -1   4   3    2.70    3.35
  -1   4   4  473.31   17.81
   1  -4  -4  491.74   17.33
   1  -4  -4  457.26   15.57
  -1   4   4  469.36   15.41
  -1   4   5   21.14    5.39
   1  -4  -5   18.90    4.07
   1  -4  -5   28.59    4.88
  -1   4   5   25.40    4.35
  -1   4   6  111.39   13.67
   1  -4  -6  113.52   14.22
   1  -4  -6  121.36   18.22
  -1   4   6  119.64   13.42
  -1   4   7   54.12   10.74
   1  -4  -7   48.51    5.32
   1  -4  -7   43.59   13.59
  -1   4   7   49.91    6.93
  -1   4   8  450.31   19.80
   1  -4  -8  401.40   16.16
   1  -4  -8  433.25   16.07
  -1   4   8  404.26   14.48
  -1   4   9  205.52   11.43
   1  -4  -9  172.26    9.93
  -1   4   9  177.35    5.95
  -1   4  10  509.89   19.45
   1  -4 -10  446.76   16.35
  -1   4  10  465.21   14.85
  -1   4  11  115.52   16.88
   1  -4 -11  100.04   13.99
  -1   4  11   99.72   12.53
  -1   4  12    8.70    6.65
  -1   4  12    1.37    1.86
  -1   4  13    9.47   10.37
  -1   4  13    6.58    2.23
  -1   4  13   -0.18    2.35
  -1   4  14   34.01   11.65
  -1   4  14   33.34    7.49
  -1   4  14   41.62    8.34
  -1   4  15   12.52    8.41
  -1   4  15    9.75    3.60
  -1   4  15    7.76    2.86
  -1   4  16    8.97    7.69
  -1   4  16    1.87    1.32
  -1   4  16    7.80    4.76
  -1   4  17   23.61    8.83
  -1   4  17   17.23    7.68
  -1   4  17   18.69    6.32
  -1   4  18    7.53    6.93
  -1   4  18    2.20    1.84
  -1   4  18    8.97    3.66
  -1   4  19   45.41   13.72
  -1   4  19   19.23    9.13
  -1   4  19   26.05   10.73
  -1   4  20    4.29    7.23
  -1   4  20   -0.13    1.47
  -1   4  20    3.20    3.20
  -1   4  21   14.31   10.41
  -1   4  21   16.46    6.18
  -1   4  22   -0.01    6.18
  -1   4  22    7.37    6.95
  -1   4  23    9.56    6.03
  -1   4  23    4.31    4.02
  -1   4  24   13.62    9.69
  -1   4  24   13.39    6.86
  -1   4  25    6.57    8.38
  -1   4  25    5.23    3.98
  -1   4  26   12.23   10.12
  -1   4  26    3.65    3.81
   1  -3  27    3.06    5.33
   1  -3  27    2.13    8.45
   1  -3  26   24.56   12.32
   1  -3  26   11.39   11.94
   1  -3  25  124.48   18.14
   1  -3  25   92.26   17.42
   1  -3  24   14.67    6.59
   1  -3  24    9.22    7.83
   1  -3  23    9.06    6.16
   1  -3  23   11.41    8.41
   1  -3  22   10.97    6.13
   1  -3  22    0.99    8.06
   1  -3  21    4.42    4.89
   1  -3  21   10.03   10.42
   1  -3  20   11.50    7.63
   1  -3  20   10.18   11.05
   1  -3  19   58.74   12.27
   1  -3  19   74.94   18.32
   1  -3  18   49.50   13.99
   1  -3  18   39.82   15.04
   1  -3  17  324.45   27.04
   1  -3  17  301.69   27.73
   1  -3  16    5.89    5.28
   1  -3  15   18.05    8.81
  -1   3 -15   20.38    7.06
   1  -3  15   30.12   14.13
   1  -3  14   61.49   10.30
  -1   3 -14   78.59   11.18
   1  -3  14   49.07   11.19
  -1   3 -14   43.34   10.28
   1  -3  13    2.40    4.65
  -1   3 -13   19.84    8.32
   1  -3  13   -2.83    7.94
  -1   3 -13    5.28    4.49
   1  -3  12   12.14    6.27
  -1   3 -12   17.30    3.98
   1  -3  12   20.27   10.94
  -1   3 -12    7.66    2.46
   1  -3  11   71.65    8.88
  -1   3 -11   77.70    9.41
   1  -3  11   66.81   11.89
  -1   3 -11   88.32    6.54
   1  -3  10   27.17    9.26
  -1   3 -10   45.72    6.54
   1  -3  10   15.51   11.94
  -1   3 -10   36.00    5.33
   1  -3   9  912.46   15.97
  -1   3  -9  915.61   14.77
   1  -3   9  887.98   19.31
  -1   3  -9  894.32   17.32
   1  -3   8  173.64    9.14
  -1   3  -8  175.83    9.59
   1  -3   8  181.37   17.92
  -1   3  -8  174.27   10.40
   1  -3   7  653.35   22.46
  -1   3  -7  662.95   22.19
   1  -3   7  683.65   72.15
  -1   3  -7  677.42   70.68
   1  -3   6  354.25   13.35
  -1   3  -6  352.41   13.02
   1  -3   6  328.58   15.58
  -1   3  -6  357.83   15.23
   1  -3   5  258.11   10.78
  -1   3  -5  247.95    9.87
   1  -3   5  220.73   11.90
  -1   3  -5  227.96   11.38
   1  -3   4  146.66    6.72
  -1   3  -4  154.15    7.09
   1  -3   4  153.30   11.34
  -1   3  -4  163.82    9.88
   1  -3   3   21.25    3.58
  -1   3  -3   22.84    3.74
   1  -3   3   14.06    6.80
  -1   3  -3   20.45    7.02
  -1   3  -2   18.31    3.06
  -1   3  -2   18.75    3.29
   1  -3   2   18.68    6.15
  -1   3  -2   41.05    8.53
  -1   3  -1  172.20    6.67
   1  -3   1  164.08    6.63
   1  -3   1  165.12   11.64
  -1   3  -1  173.28    9.71
  -1   3   0  712.83    8.48
   1  -3   0  721.01    8.70
   1  -3   0  718.55   12.28
  -1   3   0  706.98   12.02
  -1   3   1  306.05   10.93
   1  -3  -1  292.45   10.15
   1  -3  -1  281.92   29.65
  -1   3   1  289.29   30.41
  -1   3   2  322.90   12.99
   1  -3  -2  301.32   11.07
   1  -3  -2  297.10   10.20
  -1   3   2  294.97   10.43
  -1   3   3 2974.94   29.59
   1  -3  -3 3060.11   29.56
   1  -3  -3 2973.59   26.74
  -1   3   3 2996.43   26.33
  -1   3   4 3255.21   32.54
   1  -3  -4 3339.18   32.62
   1  -3  -4 3314.84   29.70
  -1   3   4 3361.04   29.30
  -1   3   5  205.44   10.73
   1  -3  -5  198.94    9.42
   1  -3  -5  217.76    8.90
  -1   3   5  222.75    8.59
  -1   3   6  174.67    9.81
   1  -3  -6  173.97    9.65
   1  -3  -6  188.80    8.56
  -1   3   6  170.44    7.13
  -1   3   7   44.76   11.22
   1  -3  -7   59.09    9.60
   1  -3  -7   27.39   10.22
  -1   3   7   44.55   10.04
  -1   3   8   38.54   12.15
   1  -3  -8   20.20    5.88
  -1   3   8   41.51    9.52
  -1   3   9  547.14   23.75
   1  -3  -9  602.27   23.99
  -1   3   9  600.01   23.94
  -1   3  10   13.12    9.07
   1  -3 -10    0.52    4.57
  -1   3  10    6.13    2.38
  -1   3  11   16.41    4.88
   1  -3 -11   33.11    7.44
  -1   3  11   23.27    7.90
  -1   3  11   33.91    6.33
  -1   3  12   74.00   11.28
   1  -3 -12   86.11   11.48
  -1   3  12   82.70   17.60
  -1   3  12   95.18   11.81
  -1   3  13  153.17   14.10
  -1   3  13  163.97   22.59
  -1   3  13  175.68    8.97
  -1   3  14  251.72   21.22
  -1   3  14  227.08   27.20
  -1   3  14  271.67   19.74
  -1   3  15   13.50   11.61
  -1   3  15    3.20    1.87
  -1   3  15    7.92    5.30
  -1   3  16  162.92   20.50
  -1   3  16   97.31   25.00
  -1   3  16  158.12   15.49
  -1   3  17    4.27    7.04
  -1   3  17    5.20    2.85
  -1   3  17    9.98    4.88
  -1   3  18   60.16   12.23
  -1   3  18   29.07    8.72
  -1   3  18   40.74   11.25
  -1   3  19    8.21    6.56
  -1   3  19    1.20    2.24
  -1   3  19    4.41    4.45
  -1   3  20   17.16   11.03
  -1   3  20    7.66    2.78
  -1   3  20    7.44    4.62
  -1   3  21   10.39    6.87
  -1   3  21    8.52    5.03
  -1   3  22   19.50   11.32
  -1   3  22    3.62    4.03
  -1   3  23   11.69    6.29
  -1   3  23    4.04    4.42
  -1   3  24    8.42    6.16
  -1   3  24   -2.08    3.93
  -1   3  25    8.74    6.07
  -1   3  25    4.33    4.02
  -1   3  26   11.09    9.09
  -1   3  26   17.17    6.90
  -1   3  27    5.05    6.28
  -1   3  27   12.37    4.85
   1  -2  27    7.56    5.30
   1  -2  27   27.86   14.30
   1  -2  26    0.77    4.70
   1  -2  26    4.80    7.32
   1  -2  25    3.40    5.02
   1  -2  25    7.55    7.59
   1  -2  24   12.35    5.15
   1  -2  24   10.88    7.78
   1  -2  23    1.85    5.17
   1  -2  23    3.34    6.90
   1  -2  22   92.08   12.91
   1  -2  22   27.40   12.03
   1  -2  21    3.74    5.01
   1  -2  21    4.93    7.36
   1  -2  20   22.41   10.04
   1  -2  20   18.39    9.84
   1  -2  19    8.59    6.13
   1  -2  19   25.71   13.74
   1  -2  18  111.15   16.80
   1  -2  18  105.31   18.63
   1  -2  17   76.96   10.21
   1  -2  17   88.14   19.93
   1  -2  16  417.64   27.00
   1  -2  15   95.75   13.61
   1  -2  14   14.70    6.11
   1  -2  14   11.53    7.91
   1  -2  13   48.90   11.74
  -1   2 -13   35.61    8.02
   1  -2  13   40.17   11.68
   1  -2  12  163.19   11.81
  -1   2 -12  164.04   10.55
   1  -2  12  183.87   17.50
   1  -2  11  156.40    8.93
  -1   2 -11  155.40    7.67
   1  -2  11  144.97   13.42
   1  -2  10  273.72   13.62
  -1   2 -10  282.21   13.42
   1  -2  10  282.65   17.51
  -1   2 -10  275.17   13.96
   1  -2   9  437.93   16.87
  -1   2  -9  433.39   16.66
   1  -2   9  451.39   20.42
  -1   2  -9  444.60   17.91
   1  -2   8    0.94    9.22
  -1   2  -8    9.91    6.46
   1  -2   8   -2.65   16.00
  -1   2  -8   16.79    6.77
   1  -2   7 1133.79   62.76
  -1   2  -7 1136.75   15.60
   1  -2   7 1076.61   17.77
  -1   2  -7 1137.62   18.85
   1  -2   6 2852.94   28.39
  -1   2  -6 2894.75   28.47
   1  -2   6 2935.50   43.49
  -1   2  -6 3014.44   33.29
   1  -2   5    5.55    1.87
  -1   2  -5    4.07    3.33
   1  -2   5   13.54    8.18
  -1   2  -5    5.57    5.32
   1  -2   4  194.32    7.88
  -1   2  -4  214.89    8.69
   1  -2   4  204.24   12.30
  -1   2  -4  180.11   10.24
   1  -2   3  357.61   11.66
  -1   2  -3  383.34   12.61
   1  -2   3  358.89   14.41
  -1   2  -3  367.27   14.06
   1  -2   2  178.34    6.41
  -1   2  -2  146.61    5.24
   1  -2   2  165.08    9.76
  -1   2  -2  174.74    8.52
   1  -2   1  149.99    9.76
  -1   2  -1  138.51   15.15
  -1   2   0  727.71    7.55
   1  -2   0  676.45   69.46
   1  -2   0  720.06   11.79
  -1   2   0  727.04    9.80
  -1   2   1  297.45   10.21
   1  -2  -1  298.42   10.19
   1  -2  -1  287.09   30.21
  -1   2   1  285.94   29.75
  -1   2   2 6215.76   53.19
   1  -2  -2 6318.02   52.84
   1  -2  -2 6159.74   49.31
  -1   2   2 6188.17   49.77
  -1   2   3 1248.87   15.63
   1  -2  -3 1240.12   14.97
   1  -2  -3 1219.49   11.50
  -1   2   3 1275.15   11.52
  -1   2   4  260.32   12.74
   1  -2  -4  258.34   12.24
   1  -2  -4  243.51    9.05
  -1   2   4  252.33    9.01
  -1   2   5  510.21   18.88
   1  -2  -5  464.22   16.41
  -1   2   5  498.33   15.91
  -1   2   6    9.58    5.69
   1  -2  -6    4.77    6.36
  -1   2   6   12.55    3.81
  -1   2   7  134.35   10.29
   1  -2  -7  132.35    7.31
  -1   2   7  136.27    5.38
  -1   2   8   54.36    9.34
   1  -2  -8   30.30    7.86
  -1   2   8   41.00   12.53
  -1   2   8   49.95    6.86
  -1   2   9  629.77   16.45
   1  -2  -9  597.98   22.38
  -1   2   9  616.15   21.26
  -1   2   9  625.71   21.43
  -1   2  10   15.37    6.54
   1  -2 -10    6.01    5.23
  -1   2  10    4.39    3.04
  -1   2  10    4.07    2.32
  -1   2  11   12.52    6.99
   1  -2 -11    9.93    3.47
  -1   2  11   23.63    6.83
  -1   2  11   16.16    4.34
  -1   2  12 1815.15   51.57
   1  -2 -12 1814.91   50.32
  -1   2  12 1909.34   20.68
  -1   2  13   15.07    9.91
  -1   2  13    0.49    1.56
  -1   2  13   14.28    4.93
  -1   2  14  256.10   23.94
  -1   2  14  215.38   17.11
  -1   2  15   10.37    7.72
  -1   2  15    9.45    4.58
  -1   2  15   15.56    6.04
  -1   2  16   13.86    7.44
  -1   2  16   17.66    8.19
  -1   2  17   10.11    6.72
  -1   2  17    4.02    2.48
  -1   2  17   10.28    4.08
  -1   2  18  156.32   17.69
  -1   2  18  135.33   15.04
  -1   2  19   37.24   10.20
  -1   2  19   34.45    7.68
  -1   2  20    4.14    9.54
  -1   2  20    1.79    2.01
  -1   2  20    3.01    3.69
  -1   2  21   21.90   11.49
  -1   2  21   20.36    9.76
  -1   2  22   22.65    9.37
  -1   2  22   20.98    7.43
  -1   2  23   16.03   11.82
  -1   2  23    8.02    8.73
  -1   2  24   22.69   10.88
  -1   2  24   19.56    9.03
  -1   2  25   11.24    5.87
  -1   2  25    7.02    6.04
  -1   2  26   16.82   10.10
  -1   2  26    8.07    4.51
  -1   2  27   12.57    9.91
  -1   2  27    7.06    5.78
   1  -1  27   10.32    6.32
   1  -1  26    6.03    5.05
   1  -1  26    1.34    6.26
   1  -1  25    7.11    5.05
   1  -1  25   18.52    9.06
   1  -1  24   17.26   10.46
   1  -1  24   12.36    7.39
   1  -1  23   36.86   12.81
   1  -1  23   14.17    9.66
   1  -1  22    3.68    5.71
   1  -1  22   13.30    9.77
   1  -1  21   83.32   13.80
   1  -1  21   77.99   14.05
   1  -1  20   11.28    6.03
   1  -1  20    7.08    6.97
   1  -1  19   67.18   13.25
   1  -1  19   45.16   13.08
   1  -1  18  135.07   19.53
   1  -1  18  135.42   22.80
   1  -1  17   16.50    8.30
   1  -1  17    9.60    7.82
   1  -1  16    6.91    6.18
   1  -1  16    9.03    7.92
   1  -1  15  375.05   17.09
   1  -1  14   15.43    6.17
  -1   1 -14   25.28    8.11
   1  -1  14   31.97   11.97
   1  -1  13  137.21   14.58
  -1   1 -13  119.17   10.11
   1  -1  13  121.00   13.02
   1  -1  12  171.63   13.03
  -1   1 -12  141.09   18.18
   1  -1  12  162.88   14.58
   1  -1  11  164.13   11.35
  -1   1 -11  156.63    7.72
   1  -1  11  162.88   11.83
   1  -1  10  732.07   15.36
  -1   1 -10  778.05   14.72
   1  -1  10  779.26   17.62
   1  -1   9    4.73    4.62
  -1   1  -9   -4.27    5.58
   1  -1   9    3.39    4.83
   1  -1   8 1133.58   17.33
  -1   1  -8 1133.27   16.23
   1  -1   8 1122.40   19.16
   1  -1   7  258.28   13.23
  -1   1  -7  223.54    9.67
   1  -1   7  261.21   13.13
   1  -1   6   32.97    6.12
  -1   1  -6   33.52    6.09
   1  -1   6   43.56    8.13
   1  -1   5  812.56   12.55
  -1   1  -5  814.37   11.73
   1  -1   5  799.82   14.34
  -1   1  -5  782.98   13.50
   1  -1   4   35.88    5.89
  -1   1  -4   52.52    7.97
   1  -1   4   35.97    7.84
  -1   1  -4   33.63    5.86
   1  -1   3  259.12    9.71
  -1   1  -3  266.07    9.57
   1  -1   3  229.83   10.33
  -1   1  -3  258.92   10.81
   1  -1   2  135.73    2.71
  -1   1  -2  163.05    5.80
   1  -1   2  166.58    7.82
  -1   1  -2  150.94    6.99
  -1   1   2 1570.70   16.17
   1  -1  -2 1457.01   15.81
  -1   1   3  174.17    8.44
   1  -1  -3  165.60    8.19
  -1   1   5  449.11   25.82
   1  -1  -5  486.89   18.04
  -1   1   5  435.99   14.87
  -1   1   6  100.53    6.73
   1  -1  -6   86.43    6.26
  -1   1   6   91.05    3.95
  -1   1   7   47.50    9.10
   1  -1  -7   57.12    7.30
  -1   1   7   47.26    7.55
  -1   1   8  396.74   16.62
   1  -1  -8  443.00   17.08
  -1   1   8  439.67   15.84
  -1   1   9  657.67   16.38
   1  -1  -9  672.74   15.87
  -1   1   9  681.88   12.65
  -1   1  10   17.46    6.17
   1  -1 -10   12.30    4.78
  -1   1  10   18.33    5.12
  -1   1  11  164.72   12.14
   1  -1 -11  147.99   10.43
  -1   1  11  152.55    7.84
  -1   1  12    7.74    6.76
   1  -1 -12    8.37    7.08
  -1   1  12   15.33    5.66
  -1   1  12   12.64    5.62
  -1   1  13  254.61   19.53
  -1   1  13  251.75   18.44
  -1   1  14   29.03    9.61
  -1   1  14   28.76   10.82
  -1   1  14   22.04    7.97
  -1   1  15   11.00    7.22
  -1   1  15    5.58    2.75
  -1   1  15    4.01    4.66
  -1   1  16    2.40    6.95
  -1   1  16    2.00    2.52
  -1   1  16    4.69    5.05
  -1   1  17   10.21    6.76
  -1   1  17    3.72    2.12
  -1   1  17    7.08    7.04
  -1   1  18    4.12    6.49
  -1   1  18    8.82    4.33
  -1   1  18    0.24    5.14
  -1   1  19   82.56   16.65
  -1   1  19   54.09   11.86
  -1   1  20   10.67    6.94
  -1   1  20    5.34    2.76
  -1   1  20    3.94    6.17
  -1   1  21   14.36    8.05
  -1   1  21   18.43    9.17
  -1   1  22   14.01    7.08
  -1   1  22   15.43    7.76
  -1   1  23   84.49   14.02
  -1   1  23   73.40   12.90
  -1   1  24    4.88    7.16
  -1   1  24    6.93    5.05
  -1   1  25   18.07    9.35
  -1   1  25   19.70   10.10
  -1   1  26    5.11    5.69
  -1   1  26    6.14    5.13
  -1   1  27    8.39    6.06
  -1   1  27   12.14    6.01
   1   0  27    3.47    4.84
   1   0  27    3.56    6.16
   1   0  26   10.74    8.36
   1   0  26    6.43    8.38
   1   0  25    0.47    5.13
   1   0  25   10.89    8.71
   1   0  24   24.00   11.41
   1   0  24   16.29   11.53
   1   0  23    4.59    6.53
   1   0  23    6.56    7.14
   1   0  22   85.90   16.30
   1   0  22   87.65   16.96
   1   0  21    2.72    5.85
   1   0  21    4.91    7.01
   1   0  20   17.70   10.88
   1   0  20   12.00    6.73
   1   0  19   31.01   10.94
   1   0  19   32.33   11.45
   1   0  18   20.13   11.25
   1   0  18   15.44    9.67
   1   0  17   21.79   12.14
   1   0  17    8.45    6.58
   1   0  16  325.00   24.20
   1   0  16  291.99   21.79
   1   0  15   17.70    8.47
   1   0  15   15.29    9.22
   1   0  15   19.34    8.24
   1   0  14  247.71   21.09
   1   0  13    8.69    6.16
  -1   0 -13   10.31    5.65
   1   0  13    8.95    7.97
   1   0  12  228.89   15.44
  -1   0 -12  228.88   13.50
   1   0  12  247.51   16.34
   1   0  11   22.08    7.21
  -1   0 -11   17.50    5.40
   1   0  11   14.61    5.03
   1   0  10  601.70   23.08
  -1   0 -10  573.82   20.83
   1   0  10  595.71   23.17
   1   0   9   42.10   11.57
  -1   0  -9   25.77    6.59
   1   0   9   28.64    8.60
   1   0   8  313.62   14.38
  -1   0  -8  322.52   13.84
   1   0   8  334.51   15.34
   1   0   7   34.71    7.14
  -1   0  -7   34.73    5.98
   1   0   7   40.24    7.44
   1   0   6   32.07    8.04
  -1   0  -6   37.92    7.13
   1   0   6   35.90    7.12
   1   0   5  652.99   22.09
  -1   0  -5  633.79   20.79
   1   0   4  105.80    4.66
  -1   0  -4  126.52    5.28
   1   0   3   75.56    3.92
  -1   0  -3   77.40    3.05
  -1   0  -2 2718.95   23.79
  -1   0   3   70.25    3.99
   1   0  -3   67.08    4.07
  -1   0   3   74.60    2.07
   1   0  -3   67.85    3.39
  -1   0   4  109.92    5.99
   1   0  -4  108.14    6.78
  -1   0   4  125.44    4.47
   1   0  -4  104.82    4.33
  -1   0   5  638.80   21.92
   1   0  -5  683.40   70.98
  -1   0   5  654.28   21.16
   1   0  -5  653.22   20.83
  -1   0   6   32.74    6.54
   1   0  -6   25.03    5.77
  -1   0   6   25.69    4.56
   1   0  -6   40.41    6.45
  -1   0   7   24.10    5.42
   1   0  -7   26.17    6.13
  -1   0   7   35.07    6.72
   1   0  -7   34.20    5.33
  -1   0   8  297.10   14.57
   1   0  -8  309.22   14.40
  -1   0   8  317.11   14.31
   1   0  -8  306.66   12.47
  -1   0   9   14.68    7.19
   1   0  -9   21.85    7.21
  -1   0   9   20.21    8.13
  -1   0  10  552.91   21.81
   1   0 -10  572.10   21.95
  -1   0  10  562.42   20.95
  -1   0  11   15.58    9.63
  -1   0  11   19.71    7.83
  -1   0  12  246.03   16.26
   1   0 -12  239.37   16.44
  -1   0  12  224.32   14.48
  -1   0  13    0.20    7.14
   1   0 -13    4.97    4.70
  -1   0  13   -4.27    5.13
  -1   0  14  290.63   23.44
  -1   0  14  258.07   21.43
  -1   0  15    6.02    7.66
  -1   0  15   17.49    9.47
  -1   0  16  346.29   25.74
  -1   0  16  281.60   19.90
  -1   0  17   44.22   11.40
  -1   0  17   21.91   10.00
  -1   0  18   24.31   10.84
  -1   0  18    9.95    9.17
  -1   0  18    7.19    6.17
  -1   0  19   30.11    9.11
  -1   0  19   15.09    6.50
  -1   0  19   33.45    9.53
  -1   0  20   12.64    6.55
  -1   0  20    1.58    5.37
  -1   0  21   10.46    6.34
  -1   0  21    0.98    4.84
  -1   0  22   67.73   16.12
  -1   0  22   60.39   14.82
  -1   0  23   12.68    7.92
  -1   0  23   13.87   10.99
  -1   0  24    4.34    6.51
  -1   0  24    5.61    5.15
  -1   0  25    6.48    5.20
  -1   0  25   11.15    6.52
  -1   0  26    9.80    5.22
  -1   0  26   10.46    7.17
  -1   0  27    3.34    5.52
  -1   0  27    4.06    4.92
   1   1  27    7.42    5.33
   1   1  27   11.36    6.10
   1   1  26    6.71    5.24
   1   1  26   10.55    7.75
   1   1  25    1.94    5.20
   1   1  25   21.41   10.24
   1   1  24    3.73    5.47
   1   1  24    5.82    6.51
   1   1  23   72.00   12.38
   1   1  23  104.78   16.64
   1   1  22   19.50    7.99
   1   1  22   20.91    9.12
   1   1  21   35.25   11.76
   1   1  21   49.85   16.56
   1   1  20   14.82    7.99
   1   1  20   14.52    9.82
   1   1  19   64.44   15.16
   1   1  19   59.00   14.32
   1   1  18    4.07    7.18
   1   1  18    7.61    7.60
   1   1  17    8.58    4.51
   1   1  17    4.97    6.31
   1   1  16   25.71   12.80
   1   1  16    5.27    2.45
   1   1  16    8.78    7.93
   1   1  15    8.35    8.04
   1   1  15   10.93    5.30
   1   1  15   14.61    5.55
   1   1  14   15.61    5.69
   1   1  14   22.06    8.16
   1   1  14   27.16    8.50
   1   1  13  241.98   19.27
  -1  -1 -13  246.95   17.70
   1   1  13  231.79   26.47
   1   1  12    8.82    6.38
  -1  -1 -12    6.66    2.19
   1   1  12    7.84    4.71
   1   1  12   21.92    7.17
   1   1  11  157.31   11.83
  -1  -1 -11  148.37    7.17
   1   1  11  124.63   23.44
   1   1  11  158.59   10.07
   1   1  10   29.25    7.99
  -1  -1 -10   36.48    5.71
   1   1  10   21.24    7.36
   1   1  10   31.83    8.02
   1   1   9  684.96   15.26
  -1  -1  -9  665.12   13.10
   1   1   9  744.43   17.70
   1   1   8  450.90   17.79
  -1  -1  -8  451.27   16.79
   1   1   8  490.09   28.86
   1   1   7   46.58    8.53
  -1  -1  -7   58.58    4.72
   1   1   7   59.36   13.12
   1   1   6  118.99    6.87
  -1  -1  -6  121.01    6.77
   1   1   6  113.43   24.14
   1   1   5  489.01   17.59
  -1  -1  -5  488.01   16.91
   1   1   5  567.91   21.68
   1   1   4  771.52   11.84
   1   1   3  184.92    8.25
  -1  -1  -3  180.86    7.89
  -1  -1  -3  200.30   10.14
   1   1   3  168.33   12.73
   1   1   2 1557.47   16.22
  -1  -1  -2 1574.20   16.47
   1   1   2 1496.84   17.34
  -1  -1   2  165.64    8.23
   1   1  -2  163.30    7.38
  -1  -1   2  163.42    6.33
   1   1  -2  138.07   14.56
  -1  -1   3  252.42   10.86
   1   1  -3  259.75   11.18
  -1  -1   3  262.86    9.57
   1   1  -3  264.66   10.07
  -1  -1   4   38.82    6.40
   1   1  -4   41.63    6.72
  -1  -1   4   45.71    7.22
   1   1  -4   33.97    6.42
  -1  -1   5  764.70   13.45
   1   1  -5  801.55   14.09
  -1  -1   5  813.09   11.80
   1   1  -5  833.80   12.92
  -1  -1   6   45.37    8.03
   1   1  -6   44.86    7.78
  -1  -1   6   33.45    5.73
   1   1  -6   33.65    6.42
  -1  -1   7  261.18   12.80
   1   1  -7  244.06   12.30
  -1  -1   7  262.05   12.48
   1   1  -7  256.83   11.06
  -1  -1   8 1119.82   19.11
   1   1  -8 1085.94   17.73
  -1  -1   8 1107.88   15.99
   1   1  -8 1118.74   15.98
  -1  -1   9    0.95    6.91
   1   1  -9    3.19    5.04
  -1  -1   9   -0.67    4.52
   1   1  -9    6.84    4.08
   1   1 -10  795.61   16.63
  -1  -1  10  784.02   14.70
   1   1 -10  806.57   14.45
  -1  -1  11  160.07   11.85
   1   1 -11  183.22    9.16
  -1  -1  11  174.06    9.45
   1   1 -11  163.69    6.62
  -1  -1  12  146.98   18.95
   1   1 -12  146.97   18.69
  -1  -1  12  140.99   18.67
   1   1 -12  147.61   18.12
  -1  -1  13  125.25   11.65
   1   1 -13  122.57   10.81
  -1  -1  13  109.97   12.45
  -1  -1  14   10.21    5.80
  -1  -1  14    2.50    6.18
  -1  -1  15  351.40   16.99
  -1  -1  15  334.07   16.39
  -1  -1  16    6.73    6.43
  -1  -1  16    7.23    6.84
  -1  -1  17   26.98   10.19
  -1  -1  17   10.36    7.22
  -1  -1  18  124.00   17.10
  -1  -1  18  141.65   20.45
  -1  -1  19   58.89   16.29
  -1  -1  19   63.27   15.09
  -1  -1  20    8.94    6.12
  -1  -1  20    4.70    5.76
  -1  -1  21   75.38   14.26
  -1  -1  21   60.55   15.10
  -1  -1  22    0.25    5.70
  -1  -1  22    3.25    5.83
  -1  -1  23   27.84    8.91
  -1  -1  23   11.12    6.27
  -1  -1  24    5.92    4.83
  -1  -1  24   -1.31    4.89
  -1  -1  25   15.80    8.89
  -1  -1  25    3.18    4.92
  -1  -1  26   16.24   10.03
  -1  -1  26    9.73    7.06
  -1  -1  27    8.41    5.38
  -1  -1  27   -0.78    4.86
   1   2  27    6.81    5.70
   1   2  27   14.13    7.34
   1   2  26    6.60    5.27
   1   2  26   10.61    9.37
   1   2  25   13.60    9.62
   1   2  25    2.80    5.28
   1   2  24   20.99    9.44
   1   2  24    5.55    5.23
   1   2  23    8.03    6.27
   1   2  23    7.22    5.57
   1   2  22   19.51    8.35
   1   2  22   21.30    9.30
   1   2  21   20.09   11.43
   1   2  21   27.36    8.78
   1   2  20    5.61    6.86
   1   2  20   11.24    7.24
   1   2  19   30.68    8.93
   1   2  19   27.13    8.76
   1   2  18  131.17   16.11
   1   2  18  156.18   17.72
   1   2  17   15.17    8.74
   1   2  17   13.78    5.73
   1   2  16   38.97   14.64
   1   2  16    8.73    3.59
   1   2  16   10.04    4.06
   1   2  15   15.83    9.86
   1   2  15    6.69    3.28
   1   2  15   16.69    7.84
   1   2  14  237.95   24.60
   1   2  14  158.26   33.21
   1   2  14  219.84   17.91
   1   2  13   30.57   11.94
  -1  -2 -13   14.54    3.67
   1   2  13   14.52    4.25
   1   2  12 1898.69   25.67
  -1  -2 -12 1865.99   51.60
   1   2  11   13.44    9.54
  -1  -2 -11   18.31    4.88
   1   2  11    5.50    4.52
   1   2  10   -0.18    5.88
  -1  -2 -10    5.07    3.97
   1   2  10    1.70    3.92
   1   2   9  615.91   23.29
  -1  -2  -9  656.12   13.72
   1   2   9  638.97   15.22
   1   2   8   44.81   12.20
  -1  -2  -8   48.59    5.23
   1   2   8   45.47   13.38
   1   2   7  135.70    7.46
  -1  -2  -7  143.20    8.59
   1   2   7  131.02   25.04
   1   2   6   12.56    6.56
  -1  -2  -6   14.11    3.68
  -1  -2  -6   18.23    5.63
   1   2   6   17.81    5.34
   1   2   5  547.88   19.38
  -1  -2  -5  529.27   18.55
  -1  -2  -5  580.55   21.59
   1   2   5  529.98   19.88
   1   2   4  270.49   12.10
  -1  -2  -4  239.99   10.41
  -1  -2  -4  240.51   18.68
   1   2   4  250.15   13.25
   1   2   3 1282.57   15.86
  -1  -2  -3 1291.82   16.05
  -1  -2  -3 1262.69   17.80
   1   2   3 1324.04   17.83
   1   2   2 6149.52   53.50
  -1  -2  -2 6260.29   54.75
  -1  -2  -2 6007.07   54.05
   1   2   2 6380.37   56.24
   1   2   1  311.44   11.72
  -1  -2  -1  290.58   10.91
  -1  -2  -1  267.24   11.11
   1   2   1  263.73   10.60
   1   2   0  745.84   11.59
  -1  -2   0  741.21   11.45
  -1  -2   0  773.57   10.95
   1   2   0  799.35   11.22
  -1  -2   1  125.22    5.60
   1   2  -1  125.28    5.79
  -1  -2   1  135.90    4.49
   1   2  -1  142.82    6.44
  -1  -2   2  162.34    8.14
   1   2  -2  166.04    8.13
  -1  -2   2  188.42    8.06
   1   2  -2  162.88    6.97
  -1  -2   3  390.76   15.23
   1   2  -3  382.34   14.44
  -1  -2   3  357.57   12.37
   1   2  -3  366.38   13.08
  -1  -2   4  199.44   10.81
   1   2  -4  205.14    9.78
  -1  -2   4  207.15    9.26
   1   2  -4  214.01   10.45
  -1  -2   5    8.97    3.89
   1   2  -5    6.83    3.97
  -1  -2   5    4.36    4.79
   1   2  -5   13.77    8.03
  -1  -2   6 2905.98   32.12
   1   2  -6 2925.13   32.21
  -1  -2   6 2942.53   30.98
   1   2  -6 2837.15   29.21
  -1  -2   7 1192.17   19.33
   1   2  -7 1195.63   18.82
  -1  -2   7 1143.97   16.83
   1   2  -7 1151.28   17.53
  -1  -2   8    9.75    8.92
   1   2  -8    7.42    6.29
  -1  -2   8    4.07    5.96
   1   2  -8   10.19    6.06
  -1  -2   9  475.29   19.56
   1   2  -9  448.89   18.04
  -1  -2   9  466.35   18.22
   1   2  -9  472.51   18.29
   1   2 -10  300.89   15.31
  -1  -2  10  286.50   15.51
   1   2 -10  296.45   13.99
  -1  -2  11  156.49    9.88
   1   2 -11  155.52    8.27
  -1  -2  11  150.16    9.36
   1   2 -11  156.70    8.01
  -1  -2  12  180.86   14.19
   1   2 -12  177.88   13.20
  -1  -2  12  165.41   12.42
   1   2 -12  155.36   19.09
  -1  -2  13   31.95    7.44
   1   2 -13   37.39    8.33
  -1  -2  13   44.99   10.33
   1   2 -13   48.67    9.34
  -1  -2  14    4.54    5.01
  -1  -2  14   -1.54    6.23
   1   2 -14    8.85    4.06
  -1  -2  15  107.30   14.17
  -1  -2  15   99.20   13.97
   1   2 -15   86.65   10.34
  -1  -2  16  425.49   27.22
  -1  -2  16  434.07   28.40
  -1  -2  17   81.24   10.46
  -1  -2  17   35.02   10.63
  -1  -2  18   88.47   14.11
  -1  -2  18   86.49   13.73
  -1  -2  19    8.72    7.49
  -1  -2  19    5.22    6.45
  -1  -2  20   33.80   12.16
  -1  -2  20   13.22    6.07
  -1  -2  21    3.11    5.85
  -1  -2  21    4.89    8.13
  -1  -2  22   67.65   18.01
  -1  -2  22   96.71   16.62
  -1  -2  23    6.95    7.77
  -1  -2  23    6.02    7.85
  -1  -2  24   18.52    7.12
  -1  -2  24    6.88    5.01
  -1  -2  25   13.94    8.66
  -1  -2  25    1.61    4.71
  -1  -2  26    6.44    5.37
  -1  -2  26   17.51    9.01
  -1  -2  27    5.23    5.13
  -1  -2  27    1.15    4.71
   1   3  27    7.42    6.34
   1   3  27    8.22    5.33
   1   3  26   18.72    9.23
   1   3  26   23.60    9.34
   1   3  25    4.35    6.20
   1   3  25   -0.04    5.05
   1   3  24    7.34    6.42
   1   3  24    6.78    5.06
   1   3  23   12.29    6.77
   1   3  23    2.08    4.69
   1   3  22   10.84    7.12
   1   3  22    4.63    4.39
   1   3  21   12.66    8.25
   1   3  21    8.44    5.07
   1   3  20   13.35   11.64
   1   3  20   16.58    8.60
   1   3  19    9.64    8.01
   1   3  19    9.64    7.53
   1   3  18   32.90    9.59
   1   3  18   47.51   12.70
   1   3  17   10.61    8.89
   1   3  17    4.35    4.65
   1   3  16  164.79   19.65
   1   3  16  153.33   15.13
   1   3  15   -0.74    9.00
   1   3  15    3.23    2.03
   1   3  15    4.07    4.05
   1   3  14  299.97   28.85
   1   3  14  233.19   24.60
   1   3  13  171.05   15.84
   1   3  13  118.35   26.63
   1   3  12   95.47   14.79
  -1  -3 -12   83.00   10.75
   1   3  12   73.65   16.28
   1   3  11   18.72    6.53
  -1  -3 -11   30.38    6.11
   1   3  11   25.98    7.05
   1   3  10   10.05    8.67
  -1  -3 -10    8.10    3.65
   1   3  10    9.05    3.63
  -1  -3  -9  574.28   22.63
   1   3   9  594.27   37.04
   1   3   8   47.67    7.92
  -1  -3  -8   39.68    9.73
  -1  -3  -8   75.08   21.44
   1   3   8   34.45   11.03
   1   3   7   39.17   10.92
  -1  -3  -7   46.30    5.61
  -1  -3  -7   45.27   14.71
   1   3   7   48.23   11.60
   1   3   6  195.07   10.85
  -1  -3  -6  179.02    8.97
  -1  -3  -6  214.52   30.64
   1   3   6  191.39   13.89
   1   3   5  212.21   10.39
  -1  -3  -5  221.16   11.07
  -1  -3  -5  227.42   22.93
   1   3   5  236.51   11.58
   1   3   4 3374.04   33.98
  -1  -3  -4 3330.96   34.33
  -1  -3  -4 3407.86   35.75
   1   3   4 3504.50   36.88
   1   3   3 3158.52   32.61
  -1  -3  -3 3053.03   31.89
   1   3   3 3183.53   33.69
   1   3   2  274.43   12.53
  -1  -3  -2  283.95   30.10
  -1  -3  -2  299.78   13.13
   1   3   2  293.31   11.76
   1   3   1  270.74   12.04
  -1  -3  -1  245.89   10.87
  -1  -3  -1  304.64   12.82
   1   3   1  300.04   11.47
   1   3   0  698.61   12.44
  -1  -3   0  717.59   12.42
  -1  -3   0  636.58   21.36
   1   3   0  670.35   69.33
   1   3  -1  166.02   26.27
   1   3  -1  163.34    8.75
  -1  -3   1  177.88    8.67
   1   3  -1  183.75    8.89
  -1  -3   2   21.51    6.51
   1   3  -2   22.32    6.06
  -1  -3   2   21.40    4.50
   1   3  -2   12.82    3.45
  -1  -3   3   11.52    4.24
   1   3  -3   22.96    4.97
  -1  -3   3   17.38    4.11
   1   3  -3   33.29    6.75
  -1  -3   4  143.01    8.42
   1   3  -4  150.04    8.58
  -1  -3   4  144.91    7.73
   1   3  -4  170.52   10.46
  -1  -3   5  259.27   13.10
   1   3  -5  272.66   13.09
  -1  -3   5  284.75   30.50
   1   3  -5  237.94   11.35
  -1  -3   6  378.72   15.94
   1   3  -6  370.62   15.38
  -1  -3   6  349.09   13.81
   1   3  -6  333.72   14.29
  -1  -3   7  637.45   23.38
   1   3  -7  668.78   24.02
  -1  -3   7  661.22   22.81
   1   3  -7  658.07   23.41
  -1  -3   8  180.68   11.47
   1   3  -8  177.79   10.40
  -1  -3   8  182.28   12.09
   1   3  -8  168.47   11.32
  -1  -3   9  915.21   18.48
   1   3  -9  942.78   17.56
  -1  -3   9  922.16   16.83
   1   3  -9  902.19   16.46
  -1  -3  10   31.15    6.95
   1   3 -10   41.04    7.56
  -1  -3  10   41.76   10.27
   1   3 -10   35.38    6.08
  -1  -3  11   85.92   11.32
   1   3 -11   73.83    8.43
  -1  -3  11   83.36   11.94
   1   3 -11   89.37    7.45
  -1  -3  12   19.63    8.28
   1   3 -12   11.72    3.26
  -1  -3  12   23.80    7.92
   1   3 -12   17.00    3.86
  -1  -3  13    7.71    7.62
   1   3 -13    4.99    5.75
  -1  -3  13    9.93    9.23
   1   3 -13    4.62    3.03
  -1  -3  14   50.34    9.23
  -1  -3  14   62.87   12.45
   1   3 -14   50.43    7.79
  -1  -3  15   31.51    8.70
  -1  -3  15   16.30    7.56
   1   3 -15   14.10    4.63
  -1  -3  16   14.34    9.11
  -1  -3  16   24.68   11.27
   1   3 -16   11.15    3.27
  -1  -3  17  324.12   26.60
  -1  -3  17  284.32   24.77
   1   3 -17  228.59   18.48
  -1  -3  18   35.34   11.60
  -1  -3  18   45.67   13.65
  -1  -3  19   55.80   12.81
  -1  -3  19   54.53   12.32
  -1  -3  20    9.55    7.46
  -1  -3  20    3.54    5.63
  -1  -3  21    1.56    5.14
  -1  -3  21   11.82    7.23
  -1  -3  22    8.53    6.03
  -1  -3  22    4.07    7.44
  -1  -3  23    7.59    7.44
  -1  -3  23    0.22    5.21
  -1  -3  24    6.88    4.93
  -1  -3  24    7.21    7.81
  -1  -3  25   68.39   11.94
  -1  -3  25   67.44   12.13
  -1  -3  26   10.01    5.09
  -1  -3  26   10.39    8.23
  -1  -3  27    6.48    5.15
  -1  -3  27    7.39    7.33
   1   4  26   -0.36    6.79
   1   4  26   18.25    9.26
   1   4  25   -6.63    6.69
   1   4  25   -0.48    5.20
   1   4  24   11.07    7.28
   1   4  24    8.96    6.28
   1   4  23   -0.87    5.78
   1   4  23    4.63    4.22
   1   4  22   -4.08    6.85
   1   4  21   10.14    8.22
   1   4  21   11.45    6.36
   1   4  20    6.48    8.42
   1   4  20    4.64    3.99
   1   4  19   22.24   11.78
   1   4  19   41.66   14.23
   1   4  18   13.04    9.00
   1   4  18    5.99    4.02
   1   4  17   40.83   15.77
   1   4  17   33.65    9.94
   1   4  16    1.39    9.20
   1   4  16    7.84    4.31
   1   4  15   21.14   13.42
   1   4  15    9.35    3.69
   1   4  14   41.61   15.24
   1   4  14   32.26    6.71
   1   4  13   13.76    8.15
   1   4  13    5.51    2.68
   1   4  12   -5.75    6.38
   1   4  12    0.96    2.50
   1   4  11  119.92   18.95
  -1  -4 -11   95.06   12.49
   1   4  11   85.89   17.92
   1   4  10  534.97   20.56
  -1  -4 -10  480.98   17.14
   1   4  10  451.57   25.24
   1   4   9  178.84    9.88
  -1  -4  -9  171.83    7.57
  -1  -4  -9  231.83   27.02
   1   4   9  156.14   22.12
   1   4   8  414.45   18.01
  -1  -4  -8  466.09   18.11
  -1  -4  -8  485.48   26.09
   1   4   8  421.26   17.52
   1   4   7   48.15    6.78
  -1  -4  -7   48.05    5.03
  -1  -4  -7   44.40   12.98
   1   4   7   59.20    8.71
   1   4   6  129.58   16.02
  -1  -4  -6  127.14   14.98
  -1  -4  -6  131.80   28.74
   1   4   6  124.18   15.51
   1   4   5   26.58    6.25
  -1  -4  -5   25.06    5.31
  -1  -4  -5   21.37    7.86
   1   4   5   22.62    4.93
   1   4   4  468.95   17.63
  -1  -4  -4  442.95   16.64
  -1  -4  -4  464.63   18.49
   1   4   4  486.30   18.51
   1   4   3    3.37    4.59
  -1  -4  -3   15.75    5.67
  -1  -4  -3    3.64    4.98
   1   4   3    6.57    4.33
   1   4   2   63.15    5.76
  -1  -4  -2   75.94    5.30
  -1  -4  -2   81.50    5.75
   1   4   2   91.30    5.77
   1   4   1  328.17   13.89
  -1  -4  -1  318.59   13.26
  -1  -4  -1  392.47   15.57
   1   4   1  341.52   13.76
   1   4   0  153.57    8.79
  -1  -4   0  179.45    9.57
  -1  -4   0  152.89    8.23
   1   4   0  166.74    9.40
   1   4  -1   17.36    4.81
  -1  -4   1   13.78    4.71
   1   4  -1   17.02    5.13
   1   4  -2   20.09    5.52
  -1  -4   2   17.03    3.95
   1   4  -2   20.30    4.95
  -1  -4   3    3.25    2.55
   1   4  -3    2.93    3.96
  -1  -4   3    3.90    2.18
   1   4  -3    5.02    4.59
  -1  -4   4   53.48    9.03
   1   4  -4   54.79    9.95
  -1  -4   4   37.07    6.93
   1   4  -4   37.51    8.11
  -1  -4   5 1283.90   20.56
   1   4  -5 1207.74   19.50
  -1  -4   5 1197.61   16.80
   1   4  -5 1237.57   18.48
  -1  -4   6 1248.53   20.56
   1   4  -6 1241.21   19.90
  -1  -4   6 1221.90   17.34
  -1  -4   7  298.23   15.65
   1   4  -7  306.56   14.24
  -1  -4   7  307.10   14.74
   1   4  -7  309.37   14.98
  -1  -4   8 3860.23   42.71
   1   4  -8 3842.30   40.95
  -1  -4   8 3888.81   39.52
   1   4  -8 3908.25   40.69
  -1  -4   9   11.29    5.91
   1   4  -9   19.22    7.38
  -1  -4   9   17.37    6.38
   1   4  -9   14.46    5.16
  -1  -4  10  720.81   29.67
   1   4 -10  729.05   28.43
  -1  -4  10  746.79   29.69
   1   4 -10  666.81   26.16
  -1  -4  11  178.38   13.15
   1   4 -11  172.99   11.68
  -1  -4  11  164.32   13.45
   1   4 -11  181.52   12.88
  -1  -4  12  149.11   13.11
   1   4 -12  127.89   11.93
   1   4 -12  116.76   10.44
  -1  -4  13   14.91    5.64
   1   4 -13   20.24    6.85
  -1  -4  13    5.84    6.79
   1   4 -13   12.99    5.64
  -1  -4  14  144.84   12.25
  -1  -4  14  157.76   16.80
   1   4 -14  146.09   11.39
  -1  -4  15  266.93   17.24
  -1  -4  15  245.42   22.62
   1   4 -15  261.70   12.67
  -1  -4  16   16.84    6.64
  -1  -4  16   16.49   11.32
   1   4 -16   14.83    5.27
  -1  -4  17    1.22    5.47
  -1  -4  17    2.35    7.32
  -1  -4  18  249.32   22.20
  -1  -4  18  238.51   22.33
  -1  -4  19    6.75    7.88
  -1  -4  19    6.24    7.08
  -1  -4  20  145.45   15.46
  -1  -4  20  166.86   18.70
  -1  -4  21    3.62    5.63
  -1  -4  21    5.24    5.96
  -1  -4  22   17.40    6.46
  -1  -4  22   12.86    5.90
  -1  -4  23    9.76    7.47
  -1  -4  24    4.09    4.71
  -1  -4  24    0.51    5.78
  -1  -4  25   15.31    9.50
  -1  -4  25   -3.17    5.88
  -1  -4  26   15.50    8.17
  -1  -4  26   10.88    8.68
  -1  -4  27    5.82    4.74
  -1  -4  27    8.89    5.28
   1   5  26   16.19    9.43
   1   5  26    3.25    4.21
   1   5  25    5.52    7.77
   1   5  25   14.84    7.91
   1   5  24    5.59    7.03
   1   5  24    9.16    7.05
   1   5  23    7.95    6.70
   1   5  23    4.18    4.05
   1   5  22   18.58   10.30
   1   5  22    3.88    4.17
   1   5  21   17.85   11.64
   1   5  21    5.77    5.95
   1   5  20    9.85   12.03
   1   5  20    5.26    3.84
   1   5  19  132.53   19.78
   1   5  19  111.54   11.74
   1   5  18   -6.32    8.07
   1   5  18    3.88    3.98
   1   5  17  281.69   28.59
   1   5  16   10.54    9.32
   1   5  15  227.67   23.07
   1   5  14   53.63   15.21
   1   5  14   50.41   11.22
   1   5  13  147.21   18.68
   1   5  13  109.95   13.02
   1   5  12    9.53   10.41
  -1  -5 -12   12.01    9.34
   1   5  12    7.36    3.43
   1   5  11   12.66    6.97
  -1  -5 -11   65.46   20.16
   1   5  11   24.16    5.45
   1   5  10   15.31    5.06
  -1  -5 -10   27.85    5.41
  -1  -5 -10   22.54    7.16
   1   5  10   24.87    5.07
   1   5   9  403.61   16.46
  -1  -5  -9  376.90   14.40
  -1  -5  -9  460.61   30.33
   1   5   9  405.97   16.13
   1   5   8    9.26    4.93
  -1  -5  -8   14.30    5.02
  -1  -5  -8    9.12    5.11
   1   5   8   10.00    3.73
   1   5   7  433.16   20.86
  -1  -5  -7  407.25   18.32
  -1  -5  -7  435.48   24.36
   1   5   7  432.42   19.11
   1   5   6  166.95   10.65
  -1  -5  -6  186.59   10.35
  -1  -5  -6  185.47   31.18
   1   5   6  205.15   11.18
   1   5   5  907.65   17.13
  -1  -5  -5  943.95   16.53
  -1  -5  -5  928.84   20.59
   1   5   5  901.72   16.09
   1   5   4  579.49   22.31
  -1  -5  -4  591.59   21.70
  -1  -5  -4  565.22   21.80
   1   5   4  572.73   20.78
   1   5   3  146.40    8.90
  -1  -5  -3  145.42    8.66
  -1  -5  -3  135.74    7.76
   1   5   3  151.01    9.54
   1   5   2  385.69   15.43
  -1  -5  -2  390.21   15.40
  -1  -5  -2  413.75   17.16
   1   5   2  405.84   15.91
   1   5   1  307.69   13.30
  -1  -5  -1  278.05   12.93
  -1  -5  -1  299.99   12.84
   1   5   1  292.58   12.56
   1   5   0  263.67   12.50
  -1  -5   0  263.63   12.86
  -1  -5   0  283.58   30.50
   1   5   0  263.95   11.60
   1   5  -1   47.04   11.45
   1   5  -1   60.05    5.89
  -1  -5   1   60.52    7.05
   1   5  -1   59.17    5.92
   1   5  -2   64.40   14.95
   1   5  -2   71.83    7.82
  -1  -5   2   70.48    5.06
   1   5  -2   64.16    5.97
   1   5  -3    8.77    3.59
  -1  -5   3   13.79    3.65
   1   5  -3   14.28    4.95
  -1  -5   4  857.58   18.91
   1   5  -4  835.74   16.41
  -1  -5   4  829.02   14.55
   1   5  -4  843.76   15.21
  -1  -5   5  112.24   14.51
   1   5  -5  114.65   14.29
  -1  -5   5  109.04   14.52
   1   5  -5  114.66   14.32
  -1  -5   6    4.26    4.65
   1   5  -6    3.69    4.16
  -1  -5   6    4.54    3.97
   1   5  -6    6.20    6.21
  -1  -5   7  128.04   15.87
   1   5  -7  153.50    9.47
  -1  -5   7  141.61    8.68
   1   5  -7  127.75   16.36
  -1  -5   8   54.32    8.73
   1   5  -8   71.81    8.53
  -1  -5   8   62.61    8.07
   1   5  -8   63.70    8.89
  -1  -5   9  343.16   17.45
   1   5  -9  363.59   16.97
  -1  -5   9  354.91   18.11
   1   5  -9  384.52   18.86
  -1  -5  10   11.11    5.02
   1   5 -10   12.72    5.11
  -1  -5  10   16.76    8.34
   1   5 -10    8.55    6.76
  -1  -5  11   94.61   14.48
   1   5 -11   73.00   10.16
  -1  -5  11   86.45   14.71
   1   5 -11   87.16   13.91
  -1  -5  12    5.68    3.45
  -1  -5  12    2.23    7.29
   1   5 -12   14.76    7.31
  -1  -5  13  288.36   22.23
   1   5 -13  279.56   21.29
  -1  -5  14   52.77   12.34
  -1  -5  14   31.46   13.07
   1   5 -14   35.46    8.31
  -1  -5  15   30.37   10.76
  -1  -5  15   18.61    9.63
  -1  -5  16   10.75    5.89
  -1  -5  16    3.22    7.97
  -1  -5  17  128.41   16.69
  -1  -5  17  110.33   20.11
  -1  -5  18    4.89    5.28
  -1  -5  18   10.35    7.82
  -1  -5  19  152.47   11.99
  -1  -5  19  143.12   16.11
  -1  -5  20   18.92    8.61
  -1  -5  20   16.63    9.05
  -1  -5  21   14.33    7.06
  -1  -5  21   11.43    9.09
  -1  -5  22   -0.92    5.40
  -1  -5  22   16.45    9.43
  -1  -5  23   23.22    8.68
  -1  -5  23   17.56   11.82
  -1  -5  24    5.28    4.82
  -1  -5  24   22.01   10.66
  -1  -5  25    4.73    4.85
  -1  -5  25    8.98    7.77
  -1  -5  26    6.06    4.77
  -1  -5  26    4.21    6.84
  -1  -5  27    6.67    6.97
  -1  -5  27   12.03    5.34
   1   6  25    9.72    8.17
   1   6  25    1.34    3.86
   1   6  24   27.69   11.96
   1   6  24   21.63   10.20
   1   6  23   -1.32    6.84
   1   6  23    3.47    5.31
   1   6  22    5.77    7.07
   1   6  22    1.61    3.58
   1   6  21    6.25    8.27
   1   6  20   12.66   11.95
   1   6  20    4.37    3.79
   1   6  19    4.69    8.93
   1   6  19    7.36    3.87
   1   6  18   57.95   14.69
   1   6  17   20.53   13.80
   1   6  16   20.75   11.87
   1   6  15    8.71    8.26
   1   6  14   23.28   12.82
   1   6  13  100.87   17.52
   1   6  13   67.43    8.88
   1   6  12   99.91   15.83
  -1  -6 -12   82.52   21.73
   1   6  12   98.21   12.01
   1   6  11   69.81   15.07
  -1  -6 -11   83.63   16.43
   1   6  11   73.46    9.82
   1   6  10   95.09   16.60
  -1  -6 -10   69.91   13.88
   1   6  10   76.61   10.41
   1   6   9   11.76    7.88
  -1  -6  -9   11.95    3.49
  -1  -6  -9   10.50    4.40
   1   6   9    7.66    2.56
   1   6   8  414.48   16.74
  -1  -6  -8  385.41   14.97
  -1  -6  -8  375.92   24.10
   1   6   8  399.57   15.49
   1   6   7  255.83   14.48
  -1  -6  -7  234.31   12.62
  -1  -6  -7  243.26   32.90
   1   6   7  249.83   12.97
   1   6   6  746.47   29.03
  -1  -6  -6  768.65   29.51
  -1  -6  -6  774.16   31.57
   1   6   6  748.35   29.27
   1   6   5  156.27   10.30
  -1  -6  -5  177.74   10.10
  -1  -6  -5  167.71   10.71
   1   6   5  162.85    9.26
   1   6   4   12.75    5.99
  -1  -6  -4    6.30    3.04
  -1  -6  -4    7.38    5.30
   1   6   4   11.30    5.22
   1   6   3  449.70   17.74
  -1  -6  -3  477.33   18.70
  -1  -6  -3  457.94   18.59
   1   6   3  462.22   17.67
   1   6   2  457.75   18.40
  -1  -6  -2  466.41   18.38
  -1  -6  -2  459.80   18.54
   1   6   2  436.25   16.54
   1   6   1    8.03    4.77
  -1  -6  -1    1.05    3.90
  -1  -6  -1    3.75    3.90
   1   6   1    8.48    3.47
   1   6   0    4.80    4.55
  -1  -6   0    4.62    4.35
  -1  -6   0   10.82    6.16
   1   6   0   15.63    6.35
   1   6  -1   75.53   10.87
  -1  -6   1   82.46   11.57
   1   6  -1   66.48   21.21
   1   6  -2  399.52   17.22
   1   6  -2  376.95   16.36
  -1  -6   2  367.99   15.49
   1   6  -2  363.61   14.91
   1   6  -3  137.22   16.48
   1   6  -3  111.47   13.97
  -1  -6   3  144.74    7.41
   1   6  -3  156.03   10.60
  -1  -6   4  237.25   14.40
   1   6  -4  260.48   12.88
  -1  -6   4  277.52   13.91
   1   6  -4  262.48   13.80
  -1  -6   5   77.74   18.47
   1   6  -5   80.20   11.28
  -1  -6   5   57.01    8.40
   1   6  -5   59.68    9.01
  -1  -6   6   83.26   17.11
   1   6  -6   85.07   11.08
  -1  -6   6   75.38   10.47
   1   6  -6   82.67   13.41
  -1  -6   7   48.53    8.45
   1   6  -7   46.78    6.54
  -1  -6   7   58.56   10.07
   1   6  -7   55.01    9.48
  -1  -6   8   12.29    5.21
   1   6  -8   13.40    5.29
  -1  -6   8    7.12    4.93
   1   6  -8   17.47    9.96
  -1  -6   9    3.67    5.00
   1   6  -9    5.59    3.26
  -1  -6   9    7.84    7.85
   1   6  -9    8.26    6.32
  -1  -6  10  664.84   23.70
   1   6 -10  685.35   22.59
  -1  -6  10  660.57   24.11
   1   6 -10  647.42   22.85
  -1  -6  11   17.91    7.42
   1   6 -11    9.47    3.90
  -1  -6  11    5.69    6.91
   1   6 -11   13.15    6.29
  -1  -6  12  222.26   19.54
   1   6 -12  211.33   16.23
  -1  -6  12  197.75   17.46
   1   6 -12  197.36   16.22
  -1  -6  13   10.45    4.31
   1   6 -13   10.14    5.15
  -1  -6  14   14.21    7.36
  -1  -6  15   12.32    5.89
  -1  -6  15    7.22    7.64
  -1  -6  16    6.63    5.42
  -1  -6  16    6.26    7.61
  -1  -6  17   19.99    6.65
  -1  -6  17   17.71    8.90
  -1  -6  18    9.92    4.55
  -1  -6  18   16.31   13.34
  -1  -6  19    0.46    4.43
  -1  -6  19   13.59    7.97
  -1  -6  20   99.51   13.35
  -1  -6  20   85.49   14.63
  -1  -6  21   16.23    9.07
  -1  -6  21    1.16    6.29
  -1  -6  22   93.44   17.54
  -1  -6  22   82.23   16.22
  -1  -6  23    9.36    5.97
  -1  -6  23    3.94    5.87
  -1  -6  24    0.13    4.87
  -1  -6  24   11.05    8.14
  -1  -6  25    2.25    4.28
  -1  -6  25   10.56    7.14
  -1  -6  26   11.96    7.91
  -1  -6  26   14.78    9.43
  -1  -6  27    5.37    4.98
  -1  -6  27    2.42    4.48
   1   7  25   11.30    8.84
   1   7  25   11.18    3.83
   1   7  24    6.10    8.57
   1   7  24    5.85    4.34
   1   7  23   14.27   11.23
   1   7  23    7.52    5.52
   1   7  22    5.98    7.37
   1   7  22    5.19    4.93
   1   7  21    8.89    7.93
   1   7  21   15.69    5.35
   1   7  20    0.17    8.33
   1   7  19    0.27    8.04
   1   7  18    5.68    8.10
   1   7  17   29.02   12.59
   1   7  16    7.37    7.82
   1   7  15   90.57   18.46
   1   7  14   15.36    8.09
  -1  -7 -14   50.81   17.34
   1   7  13   13.01   12.05
  -1  -7 -13    5.43    4.41
   1   7  12   44.21   14.96
  -1  -7 -12   63.11   16.41
   1   7  12   49.19   10.32
   1   7  11   23.73    9.70
  -1  -7 -11   53.12   14.99
   1   7  11   28.78    9.05
   1   7  10   86.63   13.54
  -1  -7 -10  100.00   17.18
   1   7  10   83.53   11.41
   1   7   9  261.81   19.41
  -1  -7  -9  320.40   25.04
   1   7   9  306.57   14.44
   1   7   8   18.16    8.34
  -1  -7  -8    9.58    3.95
  -1  -7  -8    6.49    5.09
   1   7   8    7.22    2.40
   1   7   7  192.76   15.55
  -1  -7  -7  169.37   11.14
  -1  -7  -7  209.69   24.38
   1   7   7  185.87   12.25
   1   7   6    2.47    4.36
  -1  -7  -6    8.14    4.62
  -1  -7  -6   12.01    5.87
   1   7   6    4.55    3.45
   1   7   5 1191.54   43.73
  -1  -7  -5 1276.06   47.06
  -1  -7  -5 1298.23   49.29
   1   7   5 1263.53   46.07
   1   7   4    8.48    5.16
  -1  -7  -4   13.57    4.18
  -1  -7  -4   14.91    6.31
   1   7   4   13.94    4.00
   1   7   3  832.32   32.09
  -1  -7  -3  822.20   31.40
  -1  -7  -3  871.00   33.66
   1   7   3  797.36   29.90
   1   7   2  182.62   13.09
  -1  -7  -2  185.90   10.52
  -1  -7  -2  198.19   12.61
   1   7   2  178.09    9.80
   1   7   1  220.01   13.31
  -1  -7  -1  195.83   11.02
  -1  -7  -1  215.43   12.20
   1   7   1  193.03   10.20
   1   7   0  608.58   24.07
  -1  -7   0  630.69   14.43
  -1  -7   0  610.13   22.82
   1   7   0  580.59   21.26
   1   7  -1  349.73   11.73
  -1  -7   1  351.92   11.92
   1   7  -1  347.90   15.55
   1   7  -2  213.11   15.38
   1   7  -2  191.31   11.78
  -1  -7   2  194.72   11.10
   1   7  -2  188.30   12.37
   1   7  -3 1317.46   23.08
   1   7  -3 1327.37   22.43
  -1  -7   3 1227.37   20.04
   1   7  -3 1268.99   19.85
   1   7  -4    2.09    3.39
   1   7  -4    3.40    5.57
  -1  -7   4    5.50    5.36
   1   7  -4    1.65    5.01
  -1  -7   5  393.78   23.54
   1   7  -5  390.84   18.43
  -1  -7   5  371.97   21.77
   1   7  -5  396.81   18.06
  -1  -7   6   16.20    6.24
   1   7  -6    8.52    3.34
  -1  -7   6   12.81    6.43
   1   7  -6   20.04    8.88
  -1  -7   7    1.77    3.51
   1   7  -7    5.92    4.53
  -1  -7   7    2.87    5.93
   1   7  -7    7.74    5.69
  -1  -7   8   24.79    6.60
   1   7  -8   15.65    3.72
  -1  -7   8   25.68    6.28
   1   7  -8   38.98   10.73
  -1  -7   9  169.06   12.40
   1   7  -9  185.45   12.55
  -1  -7   9  144.99   19.09
   1   7  -9  170.51   13.42
  -1  -7  10   95.69   14.12
   1   7 -10   88.77   11.73
  -1  -7  10   76.65   12.10
   1   7 -10   90.68   13.28
  -1  -7  11    9.71    5.31
   1   7 -11    9.18    5.03
  -1  -7  11   16.95    8.66
   1   7 -11    2.70    5.94
  -1  -7  12   51.68    9.62
  -1  -7  12   39.03   10.75
  -1  -7  13  765.56   26.84
  -1  -7  13  734.71   25.57
  -1  -7  14   11.21    5.35
  -1  -7  15  176.14   17.91
  -1  -7  15  141.71   25.59
  -1  -7  16    1.53    4.78
  -1  -7  16    5.01    8.74
  -1  -7  17    4.96    4.12
  -1  -7  17   15.49    8.77
  -1  -7  18    5.35    5.54
  -1  -7  18   -1.19    5.43
  -1  -7  19   65.71   14.22
  -1  -7  19   71.84   16.14
  -1  -7  20   11.42    5.00
  -1  -7  20   23.59    9.21
  -1  -7  21    9.61    7.68
  -1  -7  21   13.38    6.57
  -1  -7  22    9.23    5.92
  -1  -7  22   16.12   10.26
  -1  -7  23    7.73    5.48
  -1  -7  23    2.74    5.46
  -1  -7  24    9.04    5.33
  -1  -7  24    4.56    2.93
  -1  -7  25    3.64    5.32
  -1  -7  25    9.67    6.99
  -1  -7  26    8.84    5.60
   1   8  24   19.70   11.05
   1   8  24    8.41    5.36
   1   8  23    1.63    7.13
   1   8  23    4.65    4.36
   1   8  22   27.00   12.26
   1   8  22   30.43    9.79
   1   8  21    2.74    7.13
   1   8  21    5.89    5.73
   1   8  20   35.04   15.12
   1   8  19    6.16    7.75
   1   8  18    1.99    7.78
   1   8  17    2.23    7.91
   1   8  16    2.48    7.07
   1   8  15    6.72    7.41
  -1  -8 -15    7.43    9.27
   1   8  14   10.19    8.34
  -1  -8 -14    8.68    7.14
   1   8  13   74.14   17.74
  -1  -8 -13   74.75   25.04
   1   8  12   15.64    8.98
  -1  -8 -12    7.53    3.65
   1   8  11    6.03    8.15
  -1  -8 -11    8.69    3.95
   1   8  11    1.58    2.46
   1   8  10    6.21    6.75
  -1  -8 -10    2.48    6.24
   1   8  10    7.37    4.11
   1   8   9    7.68    7.81
  -1  -8  -9   13.33    6.45
   1   8   9   10.97    3.56
   1   8   8   82.53   13.03
  -1  -8  -8   87.15   17.44
   1   8   8   87.06   11.38
   1   8   7   -0.83    4.89
  -1  -8  -7    5.17    3.18
  -1  -8  -7   17.21    6.64
   1   8   7    2.32    2.35
   1   8   6   99.56   13.56
  -1  -8  -6  111.99   14.98
  -1  -8  -6  119.15   17.14
   1   8   6  110.51   14.48
   1   8   5  104.96   14.77
  -1  -8  -5  103.99   13.81
  -1  -8  -5  104.90   14.74
   1   8   5  111.23   14.54
   1   8   4  138.55   17.94
  -1  -8  -4  160.40   11.24
  -1  -8  -4  151.34   19.80
   1   8   4  143.12   17.96
   1   8   3  196.73    9.54
  -1  -8  -3  201.92    8.80
  -1  -8  -3  212.03   11.18
   1   8   3  202.09    7.96
   1   8   2  226.91   15.54
  -1  -8  -2  185.37    9.27
  -1  -8  -2  201.32   10.30
   1   8   2  209.90    8.48
   1   8   1  162.24   10.14
  -1  -8  -1  175.91    8.50
  -1  -8  -1  171.42    9.13
   1   8   1  184.41    8.10
   1   8   0  604.50   25.31
  -1  -8   0  653.21   27.18
  -1  -8   0  612.57   24.81
   1   8   0  610.80   28.96
   1   8  -1  110.54    9.70
  -1  -8   1  128.69   10.33
   1   8  -1  122.51    8.06
   1   8  -2   21.24    6.85
   1   8  -2   30.95    7.10
  -1  -8   2   14.96    4.42
   1   8  -2    9.61    3.20
   1   8  -3    8.10    3.76
   1   8  -3    9.08    5.91
  -1  -8   3    4.85    4.16
   1   8  -3    8.89    4.83
   1   8  -4  567.14   23.68
   1   8  -4  507.16   23.24
  -1  -8   4  502.44   20.88
   1   8  -4  520.79   21.45
   1   8  -5    6.66    2.57
   1   8  -5   10.05    3.56
  -1  -8   5    7.97    4.07
   1   8  -5   19.82    5.82
  -1  -8   6  167.21   31.24
   1   8  -6  146.76   18.35
  -1  -8   6  155.24   20.01
   1   8  -6  159.76   11.92
  -1  -8   7   13.72    5.21
   1   8  -7   18.09    5.45
  -1  -8   7    5.42    4.33
   1   8  -7   -0.36    5.76
  -1  -8   8    9.45    6.15
   1   8  -8    7.16    4.27
  -1  -8   8    5.73    4.68
   1   8  -8   18.55    9.24
  -1  -8   9  461.10   29.04
   1   8  -9  475.40   19.81
  -1  -8   9  480.13   20.51
   1   8  -9  484.67   22.07
  -1  -8  10  336.46   17.47
   1   8 -10  311.62   22.38
  -1  -8  10  347.20   13.89
  -1  -8  11  258.01   21.36
  -1  -8  11  253.62   20.55
  -1  -8  12  366.16   16.60
  -1  -8  12  353.44   18.14
  -1  -8  13    4.68    4.44
  -1  -8  13    6.73    7.05
  -1  -8  14   81.65    8.99
  -1  -8  15    1.93    4.50
  -1  -8  16  122.33   13.74
  -1  -8  16  144.56   27.11
  -1  -8  17    8.99    4.40
  -1  -8  17    6.31    6.01
  -1  -8  18   20.02    9.74
  -1  -8  18   17.13   10.16
  -1  -8  19  115.33   13.59
  -1  -8  19   92.97   15.54
  -1  -8  20    5.39    4.84
  -1  -8  20    4.57    5.96
  -1  -8  21   22.16    7.37
  -1  -8  21   22.64    9.09
  -1  -8  22   46.19   11.01
  -1  -8  22   26.90   13.61
  -1  -8  23    6.52    5.15
  -1  -8  23   -3.28    5.13
  -1  -8  24    5.51    4.94
  -1  -8  24    2.33    5.32
  -1  -8  25    2.51    5.06
  -1  -8  25    6.08    5.96
  -1  -8  26   12.72    7.40
  -1  -8  26   13.30    8.06
   1   9  23    7.39    8.46
   1   9  23   10.57    6.48
   1   9  22   10.52    7.29
   1   9  22   15.02    7.96
   1   9  21   34.83   13.46
   1   9  20    6.15    7.16
   1   9  19   -0.07    7.23
   1   9  18    6.84    8.08
   1   9  17    8.11    8.15
   1   9  16    5.05    7.68
  -1  -9 -16    9.67    9.81
   1   9  15   72.03   16.19
  -1  -9 -15  197.82   58.37
   1   9  14   31.47   10.44
  -1  -9 -14   42.48   11.80
   1   9  13  188.24   25.12
  -1  -9 -13  155.00   27.77
   1   9  12   81.75   13.20
  -1  -9 -12   62.19   21.71
   1   9  11  263.08   21.28
  -1  -9 -11  238.90   42.00
   1   9  10   66.52   17.50
  -1  -9 -10   44.39   13.93
   1   9   9   15.85   10.38
  -1  -9  -9   13.07    6.37
   1   9   8  123.83   13.65
  -1  -9  -8  130.99   21.89
   1   9   8  111.00   12.93
   1   9   7    5.25    5.37
  -1  -9  -7    5.01    3.95
   1   9   7    8.86    4.61
   1   9   6    1.57    5.00
  -1  -9  -6    9.65    5.52
   1   9   6    6.97    2.47
   1   9   5    9.83    6.42
  -1  -9  -5   18.26    5.37
  -1  -9  -5   19.43    6.01
   1   9   5   11.93    3.07
   1   9   4   32.24    7.51
  -1  -9  -4   23.14    5.50
  -1  -9  -4   49.62   11.36
   1   9   4   23.26    5.64
   1   9   3  181.69   13.48
  -1  -9  -3  153.14   19.38
  -1  -9  -3  172.57   12.38
   1   9   3  156.65    7.61
   1   9   2  348.42   16.40
  -1  -9  -2  332.46   14.11
  -1  -9  -2  382.12   16.22
   1   9   2  363.31   14.08
   1   9   1  159.82   13.45
  -1  -9  -1  138.57   18.17
  -1  -9  -1  126.61   16.71
   1   9   1  137.37   17.96
   1   9   0  175.43   13.52
  -1  -9   0  151.84   19.72
  -1  -9   0  169.98   12.74
   1   9   0  160.05   10.87
   1   9  -1   53.54   16.94
   1   9  -1   81.33   13.45
  -1  -9   1   76.54   11.36
   1   9  -1   74.62   11.78
   1   9  -2   37.80   12.35
   1   9  -2   62.53    7.90
  -1  -9   2   72.00   10.91
   1   9  -2   53.84   10.41
   1   9  -3 1039.37   32.83
   1   9  -3 1057.26   32.90
  -1  -9   3 1152.75   34.64
   1   9  -3 1029.38   30.61
   1   9  -4   48.54    8.37
   1   9  -4   61.96    9.90
  -1  -9   4   41.35    8.82
   1   9  -4   39.36    8.32
   1   9  -5   52.55    8.91
   1   9  -5   40.71    9.14
  -1  -9   5   46.40    9.21
   1   9  -5   58.56    7.26
   1   9  -6   42.73    9.23
   1   9  -6   54.32   10.08
  -1  -9   6   49.29   10.49
   1   9  -6   42.79    9.71
  -1  -9   7  179.25   34.48
   1   9  -7  175.10   14.07
  -1  -9   7  193.99   15.63
  -1  -9   8  395.93   23.59
   1   9  -8  330.42   12.79
  -1  -9   8  337.12   15.43
  -1  -9   9    5.64    5.08
   1   9  -9    6.55    4.28
  -1  -9   9    6.34    7.84
  -1  -9  10  301.17   24.18
  -1  -9  10  263.89   13.81
  -1  -9  11    5.96    3.42
  -1  -9  11   10.87    7.90
  -1  -9  12  109.06   12.58
  -1  -9  12  104.20   13.81
  -1  -9  13  200.42   18.14
  -1  -9  13  223.72   21.82
  -1  -9  14  179.27   16.91
  -1  -9  14  171.36   20.70
  -1  -9  15  177.78   16.98
  -1  -9  16   29.36    9.03
  -1  -9  17  337.64   26.75
  -1  -9  17  330.48   26.52
  -1  -9  18    5.35    4.13
  -1  -9  18   18.24   11.77
  -1  -9  19   27.25    9.73
  -1  -9  20   21.59    7.27
  -1  -9  20   26.77   11.21
  -1  -9  21   12.36    5.94
  -1  -9  21    8.56    5.56
  -1  -9  22    9.60    5.87
  -1  -9  22    2.78    5.37
  -1  -9  23   23.69    9.90
  -1  -9  23    6.56    5.22
  -1  -9  24    3.75    4.62
  -1  -9  24   11.09    6.62
  -1  -9  25   40.63   16.38
  -1  -9  25   37.19   15.92
   1  10  23   -1.21    9.18
   1  10  23    6.29    4.72
   1  10  22   24.55   10.33
   1  10  21    4.98    7.37
   1  10  20   20.66    9.16
   1  10  19    3.02    7.17
   1  10  18   19.82   12.71
   1  10  17   27.65   11.11
   1  10  16   11.52    8.28
  -1 -10 -16   26.30   16.88
   1  10  15  111.31   15.91
  -1 -10 -15  111.52   34.08
   1  10  14    5.24    6.66
  -1 -10 -14    6.39    6.12
   1  10  13   50.52   12.29
  -1 -10 -13   62.91   16.56
   1  10  12  117.92   20.13
  -1 -10 -12  108.19   27.37
   1  10  11    9.77    7.28
  -1 -10 -11   13.79    4.74
   1  10  10   36.24   12.91
  -1 -10 -10   28.66   12.29
   1  10   9    7.03    7.54
  -1 -10  -9   19.00    8.59
   1  10   8  170.53   19.53
  -1 -10  -8  159.03   29.76
   1  10   7  135.03   14.56
  -1 -10  -7  149.26   15.51
   1  10   6   59.60   10.51
  -1 -10  -6   76.59   11.78
   1  10   5  277.16   21.06
  -1 -10  -5  320.47   15.59
   1  10   4    9.29    5.13
  -1 -10  -4    3.22    4.52
   1  10   3  285.76   21.63
  -1 -10  -3  285.11   22.44
   1  10   2  255.59   19.06
  -1 -10  -2  213.68   16.25
  -1 -10  -2  214.14   16.76
   1  10   1   31.43    8.31
  -1 -10  -1   20.16    5.26
  -1 -10  -1   44.42   10.09
   1  10   0   34.85    9.12
  -1 -10   0   23.08    5.88
  -1 -10   0   29.74    7.55
   1  10  -1  453.43   31.38
   1  10  -1  523.09   21.93
  -1 -10   1  519.72   22.04
   1  10  -2   41.70   12.37
   1  10  -2   47.85   10.60
  -1 -10   2   60.94   11.87
   1  10  -3   77.20   19.94
   1  10  -3  101.74   10.02
  -1 -10   3  101.03   14.97
   1  10  -4    9.25    3.37
   1  10  -4   18.24    8.62
  -1 -10   4    5.41    4.60
   1  10  -5    6.56    3.22
  -1 -10   5    2.93    4.71
   1  10  -6   37.90    9.94
  -1 -10   6   27.85    7.93
   1  10  -7   90.55    8.12
  -1 -10   7  125.76   12.28
   1  10  -8   10.02    3.79
  -1 -10   8    9.69    7.97
  -1 -10   9   18.31    7.20
  -1 -10   9   15.33    6.43
  -1 -10  10   46.97   13.96
  -1 -10  10   33.61    8.83
  -1 -10  11   79.24   18.66
  -1 -10  11   86.30   13.63
  -1 -10  12   13.79    6.57
  -1 -10  12   10.52    8.83
  -1 -10  13   58.69   18.47
  -1 -10  13   53.47   12.50
  -1 -10  14    4.46    4.03
  -1 -10  14    5.19    8.48
  -1 -10  15   19.35    8.40
  -1 -10  15    9.57    8.14
  -1 -10  16  216.93   20.88
  -1 -10  17    4.30    4.14
  -1 -10  17   10.77    9.44
  -1 -10  18    5.99    4.14
  -1 -10  18    0.49    6.12
  -1 -10  19    3.44    3.97
  -1 -10  19    6.81    6.34
  -1 -10  20    2.48    3.97
  -1 -10  20    3.77    8.16
  -1 -10  21    9.18    5.53
  -1 -10  21    2.57    5.82
  -1 -10  22   21.05    9.35
  -1 -10  22    3.66    5.47
  -1 -10  23    7.16    5.55
  -1 -10  23    4.54    5.36
  -1 -10  24   74.26   29.22
  -1 -10  24   49.07   20.13
  -1 -10  25    5.00    4.15
  -1 -10  25    4.44    4.67
   1  11  22    6.61   11.22
   1  11  21    8.36    7.07
   1  11  20    5.77    9.45
   1  11  19    8.95    6.87
   1  11  18    2.96    6.88
  -1 -11 -17    5.09    5.28
   1  11  16    6.88   10.60
  -1 -11 -16    6.98    3.93
   1  11  15   17.21    8.46
  -1 -11 -15    0.90    3.17
   1  11  14    8.32    6.49
  -1 -11 -14    7.60    7.50
   1  11  13   14.52    7.64
  -1 -11 -13    3.90    5.25
   1  11  12    4.11    5.59
  -1 -11 -12    9.04    5.22
   1  11  11   56.26   12.97
  -1 -11 -11   62.26   19.59
   1  11  10  123.18   17.99
  -1 -11 -10  110.67   25.38
   1  11   9   22.29    9.15
  -1 -11  -9   20.78    9.21
  -1 -11  -8   16.97    7.27
   1  11   7   12.28    7.70
  -1 -11  -7   13.88    4.90
   1  11   6    7.57    5.40
  -1 -11  -6    0.71    4.47
   1  11   5  198.33   19.71
  -1 -11  -5  188.37   19.72
   1  11   4   11.03    5.27
  -1 -11  -4   12.85    5.00
   1  11   3   93.55   13.43
  -1 -11  -3  108.53   14.25
   1  11   2    9.07    7.02
  -1 -11  -2    6.69    6.78
   1  11   1   45.36    8.08
  -1 -11  -1   47.87   11.19
   1  11   0  127.47   11.81
  -1 -11   0  117.70   11.09
   1  11  -1  415.35   16.66
  -1 -11   1  345.27   14.76
  -1 -11   2   15.47    7.22
  -1 -11   3    6.94    4.76
  -1 -11   4    4.30    3.94
  -1 -11   5  290.34   16.20
  -1 -11   6   11.81    6.44
   1  11  -7  747.90   26.78
  -1 -11   7  729.62   25.88
   1  11  -8   76.64   17.30
  -1 -11   8   80.26    9.75
   1  11  -9  219.11   21.47
  -1 -11   9  235.31   21.82
  -1 -11  10    4.90    3.48
  -1 -11  10   19.54   11.66
  -1 -11  11  186.56   41.03
  -1 -11  12    8.35    5.57
  -1 -11  12    2.52    5.66
  -1 -11  13  100.34   25.31
  -1 -11  13   71.70   13.38
  -1 -11  14   55.18   15.22
  -1 -11  14   39.17    9.37
  -1 -11  15    3.21    4.95
  -1 -11  15    6.15    7.33
  -1 -11  16    0.60    4.37
  -1 -11  16   10.81    7.79
  -1 -11  17   49.20   12.94
  -1 -11  18    9.02    5.74
  -1 -11  18    4.54    5.39
  -1 -11  19   51.72    8.25
  -1 -11  19   39.11   12.79
  -1 -11  20    1.99    3.67
  -1 -11  20    4.24    4.98
  -1 -11  21    9.66    5.66
  -1 -11  21    5.89    5.29
  -1 -11  22    3.13    3.62
  -1 -11  22    7.37    5.79
  -1 -11  23    9.32    4.32
  -1 -11  23    3.42    7.00
  -1 -11  24   10.68    5.50
  -1 -11  24    7.75    5.03
   1  12  21   -4.97    6.82
   1  12  20    9.96    6.75
   1  12  19    5.55    6.58
   1  12  18   26.18   12.00
   1  12  17   -3.52    7.06
  -1 -12 -17   11.53    8.73
   1  12  16   14.33    9.66
  -1 -12 -16    4.17    4.80
   1  12  15    2.58    7.77
  -1 -12 -15   14.54    9.20
   1  12  14   16.57   10.57
  -1 -12 -14   19.95    7.42
   1  12  13    7.86    6.47
  -1 -12 -13   11.85    5.74
   1  12  12   47.40   12.81
  -1 -12 -12   68.80   24.83
   1  12  11   32.89   12.03
  -1 -12 -11   27.08    9.39
   1  12  10    0.53    5.63
  -1 -12 -10    1.66    3.36
   1  12   9    9.14    6.45
  -1 -12  -9    2.32    5.96
   1  12   8   24.37    9.42
  -1 -12  -8   50.10   15.27
   1  12   7   11.80    6.08
  -1 -12  -7   16.00    7.69
   1  12   6   29.65   10.04
  -1 -12  -6   33.22   10.05
   1  12   5    4.27    4.99
  -1 -12  -5    6.18    4.82
   1  12   4  187.18   18.17
  -1 -12  -4  174.19   17.63
   1  12   3    3.48    5.34
  -1 -12  -3    1.29    4.95
   1  12   2   33.52    8.94
  -1 -12  -2   27.43    9.12
   1  12   1    0.02    4.80
  -1 -12  -1   18.12    9.78
  -1 -12   0   66.18   15.22
  -1 -12   1   14.39    8.11
  -1 -12   2   28.26    8.60
  -1 -12   3   70.31   16.09
   1  12  -4   13.27    4.70
  -1 -12   4   17.81    8.42
   1  12  -5    9.13    7.32
  -1 -12   5   11.26    8.29
   1  12  -6    3.14    5.03
  -1 -12   6   14.14    7.37
   1  12  -7   13.89    7.16
  -1 -12   7    8.90    5.51
   1  12  -8   10.62    5.10
  -1 -12   8   20.98    8.49
   1  12  -9    8.15    5.13
  -1 -12   9    2.51    4.92
   1  12 -10  316.53   26.84
  -1 -12  10  311.67   25.70
  -1 -12  11    0.55    4.92
  -1 -12  12   16.66    8.37
  -1 -12  12   26.20   10.07
  -1 -12  13    8.98    5.81
  -1 -12  13    9.37    3.53
  -1 -12  14    5.18    5.17
  -1 -12  14    7.79    6.31
  -1 -12  15    3.08    4.59
  -1 -12  15    9.10    5.41
  -1 -12  16  102.39   25.08
  -1 -12  16  125.11   15.49
  -1 -12  17   10.22    5.62
  -1 -12  18   12.45    5.97
  -1 -12  18    8.43    5.25
  -1 -12  19   11.93    6.29
  -1 -12  19    4.08    4.68
  -1 -12  20   13.58    7.19
  -1 -12  20   17.29   10.26
  -1 -12  21    3.70    3.65
  -1 -12  21    1.07    4.60
  -1 -12  22    9.65    6.12
  -1 -12  22    2.52    4.62
  -1 -12  23    7.69    4.62
  -1 -12  23    2.52    4.83
   1  13  20   11.03    6.88
   1  13  19    9.83    6.71
   1  13  18    3.54    6.72
  -1 -13 -18   12.21   10.12
   1  13  17    3.34    6.85
  -1 -13 -17    3.19    4.30
   1  13  16   17.44   11.23
  -1 -13 -16   11.42    7.89
   1  13  15    9.24    6.75
  -1 -13 -15    4.44    3.84
   1  13  14   10.24    7.80
  -1 -13 -14    4.17    4.40
   1  13  13   11.80    9.39
  -1 -13 -13    9.39    5.67
   1  13  12    5.26    6.60
  -1 -13 -12    3.75    4.00
   1  13  11   14.32    7.39
  -1 -13 -11   18.37   11.34
   1  13  10   -0.20    5.49
  -1 -13 -10    8.42    4.18
   1  13   9  350.50   28.25
  -1 -13  -9  288.49   57.03
   1  13   8   68.15   14.55
  -1 -13  -8   49.56   10.14
   1  13   7   86.46   12.31
  -1 -13  -7   61.98   12.42
   1  13   6   12.69    5.72
  -1 -13  -6    8.38    5.00
   1  13   5   12.97    7.37
  -1 -13  -5    3.13    4.66
   1  13   4    7.35    5.37
  -1 -13  -4   14.03    7.65
   1  13   3   18.23    6.96
  -1 -13  -3   26.50    8.54
  -1 -13  -2    2.69    6.60
  -1 -13  -1   33.77   10.64
  -1 -13   0   58.62   13.22
   1  13  -1  248.93   21.07
  -1 -13   1  239.25   20.88
   1  13  -2  125.37   15.88
  -1 -13   2  126.48   16.13
   1  13  -3  393.96   30.64
  -1 -13   3  426.86   33.65
   1  13  -4   56.59   13.48
  -1 -13   4   56.00   12.49
   1  13  -5   60.30   13.71
  -1 -13   5   49.41    8.09
   1  13  -6   18.14    7.32
  -1 -13   6   39.62   12.23
   1  13  -7  107.56   18.14
  -1 -13   7  133.14   15.29
   1  13  -8   12.77    6.89
  -1 -13   8   17.45    7.78
   1  13  -9  173.69   11.81
  -1 -13   9  161.43   20.65
   1  13 -10   28.33    9.87
  -1 -13  10   36.94   10.79
   1  13 -11  105.59   11.99
  -1 -13  11  139.88   14.38
   1  13 -12   44.19   14.92
  -1 -13  12   62.09   17.36
  -1 -13  13   37.65   10.07
  -1 -13  14   55.86   19.83
  -1 -13  14   20.78   11.46
  -1 -13  15   11.31    6.28
  -1 -13  15    4.18    7.53
  -1 -13  16    4.42    5.60
  -1 -13  16   -1.34    5.01
  -1 -13  17    5.64    5.80
  -1 -13  17   11.21    6.31
  -1 -13  18    7.16    4.25
  -1 -13  19   16.47   11.65
  -1 -13  19   19.64    9.75
  -1 -13  20    5.21    4.65
  -1 -13  20   11.00    5.52
  -1 -13  21   31.79   17.23
  -1 -13  21   54.83   22.05
  -1 -13  22    6.29    4.40
  -1 -13  22   10.29    6.62
   1  14  18    3.22    6.68
  -1 -14 -18   14.30   10.09
   1  14  17    8.15    6.74
  -1 -14 -17    2.33    3.99
   1  14  16   12.09    9.44
  -1 -14 -16    4.43    4.88
   1  14  15    3.74    6.48
  -1 -14 -15    4.92    5.96
   1  14  14   23.06   12.14
  -1 -14 -14    4.79    5.37
   1  14  13    5.58    9.22
  -1 -14 -13    7.00    5.25
   1  14  12   16.32    9.08
  -1 -14 -12   28.08   12.58
   1  14  11    6.97    5.84
  -1 -14 -11    5.06    5.88
  -1 -14 -10   15.96    9.74
   1  14   9   10.83    6.45
  -1 -14  -9   17.46   10.96
   1  14   8   34.28    9.77
  -1 -14  -8   44.62   11.88
   1  14   7    6.32    7.37
  -1 -14  -7    6.28    4.55
  -1 -14  -6   14.29    7.50
  -1 -14  -5   19.26    8.39
  -1 -14  -4  133.27   11.99
  -1 -14  -3   10.07    7.09
   1  14   2    3.84    5.63
  -1 -14  -2    5.16    4.84
   1  14   1   35.85   11.81
  -1 -14  -1   36.05    9.94
   1  14   0  125.80   13.39
  -1 -14   0  128.82   15.31
   1  14  -1   97.05   16.31
  -1 -14   1  125.27   14.82
   1  14  -2  169.88   15.90
  -1 -14   2  183.67   17.19
   1  14  -3   35.20    9.93
  -1 -14   3   55.18   15.06
   1  14  -4    6.58    4.00
  -1 -14   4    9.13    6.11
   1  14  -5  118.28   12.15
  -1 -14   5  101.64   10.10
   1  14  -6    2.88    3.84
  -1 -14   6    3.47    4.47
   1  14  -7   27.01    8.36
  -1 -14   7   26.56   10.06
   1  14  -8    7.92    6.35
  -1 -14   8    3.32    4.02
   1  14  -9   16.24    8.28
  -1 -14   9    2.12    4.31
   1  14 -10   18.22    7.07
  -1 -14  10   14.60    7.61
   1  14 -11   54.64   13.61
  -1 -14  11   50.33   12.00
   1  14 -12   19.18    9.82
  -1 -14  12   11.08    6.61
   1  14 -13   10.88    6.53
  -1 -14  13   15.04    6.22
   1  14 -14  127.64   13.56
  -1 -14  14  141.86   33.14
  -1 -14  15   -2.69    5.61
  -1 -14  16   13.00    5.76
  -1 -14  16    2.52    4.55
  -1 -14  17   20.44    8.66
  -1 -14  17   15.54    8.44
  -1 -14  18    4.01    3.57
  -1 -14  18   -0.08    4.57
  -1 -14  19    7.39    6.65
  -1 -14  19   22.53    9.70
  -1 -14  20   13.06    7.49
  -1 -14  20    0.51    4.31
  -1 -14  21   11.75    7.09
  -1 -14  21   20.26    9.25
   1  15  17    5.43    6.42
  -1 -15 -17    1.46    3.86
   1  15  16   10.98    7.42
  -1 -15 -16    8.22    5.08
   1  15  15    4.70    6.71
  -1 -15 -15   10.02    7.17
   1  15  14    7.88    7.04
  -1 -15 -14    7.75    6.11
   1  15  13   16.04    8.78
  -1 -15 -13    6.49    3.91
   1  15  12   19.25   10.56
  -1 -15 -12   17.07    9.57
   1  15  11    7.18    5.65
  -1 -15 -11    8.72    4.68
   1  15  10   10.24    4.72
  -1 -15 -10    4.94    3.87
  -1 -15  -9    9.14    7.17
  -1 -15  -8   12.21    5.97
  -1 -15  -7    9.32    4.70
   1  15   6   15.57    7.24
  -1 -15  -6   16.06    7.14
   1  15   5   38.75    9.18
  -1 -15  -5   57.07   13.96
   1  15   4   13.84    8.30
  -1 -15  -4   13.14    6.41
   1  15   3   18.64    8.71
  -1 -15  -3   30.17   12.58
   1  15   2    6.96    6.22
  -1 -15  -2    5.91    4.59
   1  15   1   17.24    8.21
  -1 -15  -1    6.04    4.46
   1  15   0   22.37    9.83
  -1 -15   0   33.34   11.89
   1  15  -1   89.82   18.71
  -1 -15   1   76.48   15.68
   1  15  -2    4.80    4.10
  -1 -15   2    9.21    7.01
   1  15  -3   24.10   10.40
  -1 -15   3   26.99    7.15
   1  15  -4    2.44    3.76
  -1 -15   4    6.27    4.67
   1  15  -5   26.71    6.51
  -1 -15   5   17.04    7.96
   1  15  -6   15.04    6.68
  -1 -15   6   25.94   11.89
   1  15  -7   21.85   10.48
  -1 -15   7   14.34    8.36
   1  15  -8   18.15   10.48
  -1 -15   8   11.22    7.30
   1  15  -9   72.20   10.10
  -1 -15   9   45.09   11.48
   1  15 -10    8.36    3.49
  -1 -15  10   19.75    8.65
   1  15 -11  350.86   17.71
  -1 -15  11  328.46   26.28
   1  15 -12   32.72   12.52
  -1 -15  12   38.63   16.50
   1  15 -13  137.93   16.01
  -1 -15  13  130.12   17.39
   1  15 -14    4.26    4.74
  -1 -15  14    8.74    4.95
   1  15 -15    7.98    4.97
  -1 -15  15    4.74    4.80
   1  15 -16   10.12    5.23
  -1 -15  16   10.19    5.17
   1  15 -17    8.45    5.01
  -1 -15  17   11.30    5.13
  -1 -15  18    3.65    5.36
  -1 -15  19    5.82    4.39
  -1 -15  19    1.17    4.83
  -1 -15  20    7.34    7.41
  -1 -15  20    8.94    5.46
   1  16  15    0.35    7.13
  -1 -16 -15    9.86    8.15
   1  16  14   75.30   30.33
  -1 -16 -14   27.89   21.31
  -1 -16 -13    8.65    7.11
  -1 -16 -12   17.55    9.11
  -1 -16 -11   12.57    9.23
   1  16  10    6.62    7.20
  -1 -16 -10    7.92    5.86
   1  16   9   13.82    6.00
  -1 -16  -9    4.39    4.50
   1  16   8    6.74    5.36
  -1 -16  -8   16.01    6.52
   1  16   7    4.64    4.99
  -1 -16  -7   12.89    8.85
   1  16   6   52.29   11.41
  -1 -16  -6   18.65    9.78
   1  16   5   23.88   10.55
  -1 -16  -5   28.06   11.97
   1  16   4   73.82   11.50
  -1 -16  -4   78.15   12.78
  -1 -16  -3   18.48    6.36
  -1 -16  -2  125.31   14.17
  -1 -16  -1   77.57   11.39
   1  16   0    6.20    4.71
  -1 -16   0    8.71    5.05
   1  16  -1   11.99    7.39
  -1 -16   1    2.91    4.93
   1  16  -2    6.45    5.64
  -1 -16   2    1.08    4.54
   1  16  -3    8.18    4.37
  -1 -16   3   13.73    6.37
   1  16  -4   43.21   12.26
  -1 -16   4   27.14    8.80
   1  16  -5   53.09   13.82
  -1 -16   5   54.50   20.11
   1  16  -6    3.76    3.56
  -1 -16   6   11.59    6.71
   1  16  -7    9.34    5.60
  -1 -16   7   12.30    5.18
   1  16  -8    6.73    4.18
  -1 -16   8    3.32    4.71
   1  16  -9   49.76   10.05
  -1 -16   9   34.64   12.15
   1  16 -10    9.89    4.98
  -1 -16  10    3.33    4.50
   1  16 -11   25.20    6.99
  -1 -16  11   17.68    9.12
   1  16 -12   10.95    6.40
  -1 -16  12    8.08    5.16
   1  16 -13    9.11    4.88
  -1 -16  13   15.48    6.82
   1  16 -14   53.15    9.76
  -1 -16  14   43.67   18.45
   1  16 -15   17.42    7.49
  -1 -16  15   24.94   11.72
   1  16 -16   12.98    5.45
  -1 -16  16   11.60    5.19
   1  16 -17    1.18    3.96
  -1 -16  17   -2.32    4.78
   1  16 -18    7.09    4.16
  -1 -16  18    2.69    5.02
   1  16 -19   10.14    7.80
  -1 -16  19   14.06    8.51
   1  17  14   14.79    9.12
  -1 -17 -14    7.82    4.43
   1  17  13    4.17    6.22
  -1 -17 -13    7.33    5.31
   1  17  12    5.44    8.67
  -1 -17 -12    4.35    5.63
   1  17  11    8.23    7.94
  -1 -17 -11    8.05    5.05
   1  17  10    2.18    4.68
  -1 -17 -10   -1.08    4.04
   1  17   9    5.03    4.82
  -1 -17  -9   -3.20    4.61
   1  17   8   15.04    8.96
  -1 -17  -8   13.88    8.44
   1  17   7    6.35    4.76
  -1 -17  -7   13.85    8.57
   1  17   6    6.26    4.84
  -1 -17  -6   17.04    9.58
   1  17   5   67.37   12.02
  -1 -17  -5   63.75   12.41
   1  17   4   18.28    6.26
  -1 -17  -4   15.94    6.12
   1  17   3   56.16   11.43
  -1 -17  -3   48.73   12.11
   1  17   2    0.95    4.67
  -1 -17  -2    6.02    5.38
   1  17   1    9.22    4.53
  -1 -17  -1   13.77    9.24
   1  17   0   20.25   10.26
  -1 -17   0   24.98    8.29
   1  17  -1    9.27    6.19
  -1 -17   1    5.14    6.47
   1  17  -2   46.26    9.49
  -1 -17   2   31.73   11.03
   1  17  -3    7.00    4.22
  -1 -17   3   19.33   10.40
   1  17  -4    8.35    4.39
  -1 -17   4   16.81   10.33
   1  17  -5   13.26    8.04
  -1 -17   5    7.43    4.85
   1  17  -6    6.15    5.70
  -1 -17   6    5.56    6.31
   1  17  -7   38.09   12.61
  -1 -17   7   48.64   10.67
   1  17  -8   11.80    5.85
  -1 -17   8    4.48    4.62
   1  17  -9   10.95    5.86
  -1 -17   9   21.51    8.91
   1  17 -10    6.58    6.50
  -1 -17  10    7.58    4.44
   1  17 -11    2.85    4.27
  -1 -17  11    6.23    4.82
   1  17 -12   23.64    9.20
  -1 -17  12   31.20   11.13
   1  17 -13   16.66    7.78
  -1 -17  13   17.84    7.75
   1  17 -14   16.85    8.29
  -1 -17  14    5.72    4.59
   1  17 -15    6.62    3.98
  -1 -17  15    8.54    5.67
  -1 -17  16    7.87    5.94
   1  17 -17   15.62    8.02
  -1 -17  17    4.94    4.34
   1  18  11   15.38    7.95
  -1 -18 -11    9.20    8.80
   1  18  10    6.33    5.37
  -1 -18 -10    6.25    3.45
   1  18   9    9.43    5.31
  -1 -18  -9    8.85    9.14
   1  18   8   10.11    7.30
  -1 -18  -8    3.48    5.10
   1  18   7   14.60    8.64
  -1 -18  -7    9.11    5.43
   1  18   6   13.49    6.67
  -1 -18  -6   18.94    9.97
   1  18   5    9.03    6.92
  -1 -18  -5   13.39    9.20
   1  18   4   13.63    7.25
  -1 -18  -4   39.74   13.26
   1  18   3    4.92    4.95
  -1 -18  -3   19.16   10.52
   1  18   2   93.05   12.80
  -1 -18  -2   73.87   12.54
   1  18   1    7.45    6.15
  -1 -18  -1    7.07    4.78
   1  18   0    6.15    5.43
  -1 -18   0    2.33    4.29
   1  18  -1   10.92    4.66
  -1 -18   1    4.66    4.44
   1  18  -2   12.33    4.78
  -1 -18   2    9.63    6.16
   1  18  -3    3.77    6.69
  -1 -18   3   -0.24    4.01
   1  18  -4   44.10   10.84
  -1 -18   4   60.33   13.63
   1  18  -5   10.08    4.49
  -1 -18   5   22.45    9.15
   1  18  -6  156.70   17.39
  -1 -18   6  149.27   17.04
   1  18  -7   -2.34    4.27
  -1 -18   7    9.37    5.30
   1  18  -8  150.35   18.16
  -1 -18   8  168.00   15.02
   1  18  -9   15.14    7.92
  -1 -18   9   27.93   11.82
   1  18 -10   29.15    9.44
  -1 -18  10   24.72   11.04
   1  18 -11    5.91    5.02
  -1 -18  11    5.44    4.49
   1  18 -12   12.29    6.42
  -1 -18  12    5.61    4.53
   1  18 -13    3.33    5.16
  -1 -18  13    4.74    4.56
  -1 -18  14    2.40    4.34
   1  18 -15   17.42    8.25
  -1 -18  15   14.43    7.54
  -1 -19  -9    6.78    4.05
   1  19   8    8.90    7.06
  -1 -19  -8   -2.38    5.33
   1  19   7    9.30    9.30
  -1 -19  -7    4.53    5.34
   1  19   6    6.13    5.05
  -1 -19  -6   12.73    7.84
   1  19   5   10.47    5.23
  -1 -19  -5   22.66    7.94
   1  19   4   10.77    6.73
  -1 -19  -4    5.45    5.47
   1  19   3    3.41    6.25
  -1 -19  -3   -0.33    4.57
   1  19   2   -0.48    4.20
  -1 -19  -2    3.97    4.43
   1  19   1    7.66    4.32
  -1 -19  -1    3.84    4.45
   1  19   0   -0.14    3.56
  -1 -19   0   11.24    6.22
   1  19  -1    3.13    4.13
  -1 -19   1    0.53    3.88
   1  19  -2    5.54    4.40
  -1 -19   2   13.19    7.02
   1  19  -3   51.67   13.28
  -1 -19   3   55.31   15.45
   1  19  -4    9.76    6.49
  -1 -19   4   19.66    9.65
   1  19  -5   32.71   10.14
  -1 -19   5   62.08   16.63
   1  19  -6    6.03    4.68
  -1 -19   6   13.86    9.65
   1  19  -7    9.82    6.19
  -1 -19   7   17.32    7.68
   1  19  -8    9.40    7.15
  -1 -19   8    2.95    4.79
   1  19  -9   11.21    6.00
  -1 -19   9    8.08    6.79
   1  19 -10   10.93    6.21
  -1 -19  10   11.84    5.01
  -1 -19  11   11.24    6.09
   1  19 -12    1.87    5.09
  -1 -19  12    8.03    4.94
   1  19 -13   15.72    7.68
  -1 -19  13   15.15    8.65
  -1 -20  -5    6.47    5.39
   1  20   4    9.81    6.65
  -1 -20  -4    4.13    4.57
   1  20   3   13.31    6.14
  -1 -20  -3   23.00    9.47
   1  20   2   14.33    7.27
  -1 -20  -2   14.16    8.33
   1  20   1   13.36    5.93
  -1 -20  -1   26.00   11.56
   1  20   0    8.63    4.31
  -1 -20   0   10.20    5.84
   1  20  -1   12.62    5.17
  -1 -20   1   18.84    9.42
   1  20  -2   37.80   15.70
  -1 -20   2   75.71   32.59
   1  20  -3   69.42   27.16
  -1 -20   3   44.01   18.29
   1  20  -4   20.41    7.45
  -1 -20   4   18.08    8.01
   1  20  -5   16.60    8.79
  -1 -20   5   15.33    8.83
   1  20  -6   10.35    6.11
  -1 -20   6    6.54    7.41
   1  20  -7    5.75    5.73
  -1 -20   7    5.13    5.40
   1  20  -8   33.13   10.56
  -1 -20   8   36.85   13.46
   1  20  -9    7.24    5.10
  -1 -20   9    7.20    5.01
  -2  20  -7    1.55    3.20
   2 -20   7    8.04    6.57
  -2  20  -6   72.46   18.68
   2 -20   6   71.07   20.47
  -2  20  -5    2.89    3.10
   2 -20   5    3.99    5.25
  -2  20  -4   48.51   13.23
   2 -20   4   64.72   18.18
  -2  20  -3    6.57    3.83
   2 -20   3    1.96    3.76
  -2  20  -2    3.51    5.13
   2 -20   2    8.69    4.88
  -2  20  -1    5.51    4.08
   2 -20   1    5.31    5.67
  -2  20   0   25.84    8.98
   2 -20   0   10.36    5.99
  -2  20   1    9.66    5.30
   2 -20  -1    5.54    4.12
  -2  20   2   24.15    8.51
   2 -20  -2   16.15    7.96
  -2  20   3    8.89    3.83
   2 -20  -3   10.85    6.05
   2 -19  12    2.02    5.93
   2 -19  11   16.30    9.97
  -2  19 -10    4.88    3.89
   2 -19  10    2.20    4.71
  -2  19  -9    2.47    2.36
   2 -19   9    4.11    3.27
  -2  19  -8    2.27    2.70
   2 -19   8    6.65    4.66
  -2  19  -7    4.63    2.26
   2 -19   7    8.73    6.72
  -2  19  -6   26.59   10.70
   2 -19   6   29.45   13.14
  -2  19  -5    1.15    2.33
   2 -19   5    7.76    4.43
  -2  19  -4    3.94    3.35
   2 -19   4    4.12    4.04
  -2  19  -3    5.33    2.82
   2 -19   3   22.69   10.66
  -2  19  -2    4.61    2.86
   2 -19   2    9.43    8.72
  -2  19  -1   78.66   17.60
   2 -19   1   94.07   13.36
  -2  19   0    5.40    4.22
   2 -19   0    4.90    5.28
  -2  19   1   19.68    8.70
   2 -19  -1    5.37    4.86
  -2  19   2    5.38    3.07
   2 -19  -2    2.26    3.76
  -2  19   3    6.30    4.29
   2 -19  -3   11.89    6.40
  -2  19   4   11.94    5.99
   2 -19  -4    4.46    5.69
  -2  19   5   17.56    6.84
   2 -19  -5   20.44    6.63
  -2  19   6   15.65    8.03
   2 -19  -6   16.70    7.98
  -2  19   7    5.72    4.23
   2 -19  -7    0.43    3.61
  -2  19   8    2.26    4.52
   2 -19  -8    4.16    3.89
   2 -18  14   14.42   10.30
  -2  18 -13    4.98    3.76
   2 -18  13    5.21    6.20
  -2  18 -12   10.05    3.81
   2 -18  12   27.49   14.34
  -2  18 -11   16.52    6.78
   2 -18  11    8.57    6.01
  -2  18 -10    2.18    2.27
   2 -18  10    3.14    5.34
  -2  18  -9    4.06    3.97
   2 -18   9    6.28    5.33
  -2  18  -8   17.63    6.85
   2 -18   8   24.17   11.00
  -2  18  -7   37.82   10.13
   2 -18   7   29.29   11.24
  -2  18  -6    1.74    2.17
   2 -18   6    4.42    6.21
  -2  18  -5   40.95   10.89
   2 -18   5   59.28    9.16
  -2  18  -4   37.75   10.17
   2 -18   4   29.15   11.23
   2 -18   3   16.76    8.32
  -2  18  -2   33.68    9.74
   2 -18   2   29.60    9.66
  -2  18  -1   35.15    9.77
   2 -18   1   63.27   12.73
  -2  18   0    9.10    3.96
   2 -18   0   20.04    8.78
  -2  18   1   10.54    4.37
   2 -18  -1   10.12    4.50
  -2  18   2   46.49   13.30
   2 -18  -2   19.17    8.36
  -2  18   3    3.80    5.20
   2 -18  -3    5.15    4.34
  -2  18   4   24.76   10.40
   2 -18  -4   10.84    5.81
  -2  18   5   11.83    6.40
   2 -18  -5    3.95    3.67
  -2  18   6    6.89    4.92
   2 -18  -6    1.98    3.94
  -2  18   7   11.60    6.20
   2 -18  -7   14.93    7.17
  -2  18   8   12.03    6.71
   2 -18  -8    1.16    3.17
  -2  18   9   18.95    9.25
   2 -18  -9    8.02    4.62
  -2  18  10    3.88    5.23
   2 -18 -10    7.41    5.05
  -2  18  11    5.12    7.28
   2 -18 -11    2.96    2.47
   2 -17  16   17.74    9.14
  -2  17 -15    0.97    2.33
   2 -17  15    6.73    6.77
  -2  17 -14    3.53    3.20
   2 -17  14   17.33    9.58
  -2  17 -13    8.49    4.01
   2 -17  13    6.01    6.07
  -2  17 -12   33.59    8.75
   2 -17  12   24.77   13.87
  -2  17 -11   40.63   10.45
   2 -17  11   36.88   13.14
  -2  17 -10    4.79    2.16
   2 -17  10    4.45    5.72
  -2  17  -9   10.10    3.56
   2 -17   9   22.01    9.13
  -2  17  -8    7.98    3.68
   2 -17   8    4.76    7.78
  -2  17  -7   61.43    9.99
   2 -17   7   46.70   18.36
  -2  17  -6    9.43    3.45
   2 -17   6    7.43    5.38
  -2  17  -5  125.27   12.83
   2 -17   5  114.68   17.33
  -2  17  -4    4.59    3.75
   2 -17   4    7.30    6.93
  -2  17  -3   46.79    7.89
   2 -17   3   19.33    9.39
  -2  17  -2    5.12    2.78
   2 -17   2    4.88    4.07
  -2  17  -1   45.14   14.63
   2 -17   1   39.65   12.62
  -2  17   0    5.11    3.41
   2 -17   0    3.15    3.53
  -2  17   1    7.47    3.22
   2 -17  -1   10.30    4.89
  -2  17   2   16.99    8.91
   2 -17  -2    8.74    4.29
  -2  17   3   12.27    5.18
   2 -17  -3    7.99    5.75
  -2  17   4    3.81    3.69
   2 -17  -4    6.82    6.04
  -2  17   5   70.76   11.23
   2 -17  -5   88.54   14.32
  -2  17   6    7.45    4.94
   2 -17  -6   10.38    5.07
  -2  17   7   64.49   11.61
   2 -17  -7   81.52   11.41
  -2  17   8    7.46    4.99
   2 -17  -8    3.63    4.95
  -2  17   9   10.23    5.49
   2 -17  -9    3.77    4.85
  -2  17  10    6.04    5.64
   2 -17 -10    2.84    3.17
  -2  17  11    9.41    7.41
   2 -17 -11    1.31    1.98
  -2  17  12    9.63    7.39
   2 -17 -12    4.61    4.63
  -2  17  13    5.43    5.63
   2 -17 -13    3.99    3.31
   2 -16  18  115.46   31.11
  -2  16 -17    7.76    4.94
   2 -16  17   13.28   10.57
  -2  16 -16   50.05   18.94
   2 -16  16   41.17   16.92
  -2  16 -15    2.21    2.44
   2 -16  15    4.50    6.13
  -2  16 -14    3.79    2.16
   2 -16  14    3.88    6.02
  -2  16 -13    3.93    3.07
   2 -16  13   -0.31    6.44
  -2  16 -12    9.93    3.58
   2 -16  12    3.34    6.06
  -2  16 -11   13.84    3.73
   2 -16  11   20.21   10.65
  -2  16 -10   22.44    5.07
   2 -16  10   34.70   12.64
  -2  16  -9   22.43    5.68
   2 -16   9   31.75   11.81
  -2  16  -8   58.81    7.27
   2 -16   8   59.71   18.11
  -2  16  -7    3.68    2.44
   2 -16   7   12.51    7.88
  -2  16  -6   19.35    5.25
   2 -16   6   18.58    5.93
  -2  16  -5    5.23    2.34
   2 -16   5    9.14    5.26
  -2  16  -4    2.94    2.01
   2 -16   4    4.39    4.91
  -2  16  -3    1.50    2.25
   2 -16   3   10.71    4.61
  -2  16  -2   23.45    7.80
   2 -16   2   15.71    5.29
  -2  16  -1    4.54    2.96
   2 -16   1    4.42    3.68
  -2  16   0  119.56   12.65
   2 -16   0  131.57   13.37
  -2  16   1    5.63    4.02
   2 -16  -1    4.27    3.78
  -2  16   2   78.83   10.54
   2 -16  -2   53.96   12.51
   2 -16  -3    6.75    6.08
   2 -16  -4   11.49    5.22
  -2  16   5    5.79    4.29
   2 -16  -5    8.48    5.25
  -2  16   6   13.34    7.82
   2 -16  -6   20.55    9.59
  -2  16   7   21.15    9.61
   2 -16  -7    9.66    4.25
  -2  16   8   36.58   12.62
   2 -16  -8   37.82   12.27
  -2  16   9    9.35    5.38
   2 -16  -9    5.35    3.64
  -2  16  10    9.96    5.42
   2 -16 -10   17.35    8.42
  -2  16  11    1.90    5.24
   2 -16 -11    5.55    4.18
  -2  16  12   32.76   11.77
   2 -16 -12   15.19    6.91
  -2  16  13    5.98    6.16
   2 -16 -13    5.28    3.75
  -2  16  14   10.61    8.64
   2 -16 -14    2.42    2.71
  -2  16  15    8.46    6.55
  -2  15 -20   12.10    4.70
   2 -15  20   43.23   15.76
  -2  15 -19   12.66    4.53
   2 -15  19   22.22   10.51
  -2  15 -18   11.36    4.50
   2 -15  18    6.25    6.43
  -2  15 -17   11.05    4.26
   2 -15  17   17.04    9.07
  -2  15 -16   10.57    2.93
   2 -15  16   10.94    7.45
  -2  15 -15    5.30    3.36
   2 -15  15   11.36    7.73
  -2  15 -14    7.67    3.68
   2 -15  14   11.32    7.00
  -2  15 -13   42.90    7.50
   2 -15  13   41.33   10.99
  -2  15 -12    5.94    3.80
   2 -15  12    8.76    9.55
  -2  15 -11   18.51    4.68
   2 -15  11   31.16   12.92
  -2  15 -10    3.55    3.09
   2 -15  10    1.62    6.19
  -2  15  -9   81.77    8.15
   2 -15   9  107.76   13.93
  -2  15  -8    7.88    3.29
   2 -15   8   12.75    9.28
  -2  15  -7  206.41   17.09
  -2  15  -7  277.22   21.73
   2 -15   7  293.33   26.23
  -2  15  -6    8.68    3.59
  -2  15  -6   10.70    3.51
   2 -15   6   16.76   10.18
  -2  15  -5    2.25    2.51
  -2  15  -5    5.77    3.15
   2 -15   5   11.91    5.23
  -2  15  -4   20.29    8.30
  -2  15  -4   29.44    9.18
   2 -15   4   26.06   12.61
  -2  15  -3    9.47    3.25
   2 -15   3    8.02    4.00
  -2  15  -2   15.47    6.16
   2 -15   2   20.29    9.48
  -2  15  -1    9.23    3.76
   2 -15   1    8.90    4.27
  -2  15   0    3.48    4.56
   2 -15   0    4.68    3.88
  -2  15   1    7.38    5.28
   2 -15  -1   -0.33    3.96
  -2  15   2   34.35    8.50
   2 -15  -2   34.52    9.08
  -2  15   3  150.36   14.52
   2 -15  -3  132.13   13.87
   2 -15  -4    3.77    3.92
  -2  15   5   37.66   10.10
   2 -15  -5   33.48    9.41
  -2  15   6    8.23    5.32
   2 -15  -6    8.95    6.83
  -2  15   7    7.90    5.34
   2 -15  -7   10.73    4.74
  -2  15   8   13.26    7.80
   2 -15  -8   10.31    5.70
  -2  15   9   14.14    9.41
   2 -15  -9    3.46    3.25
  -2  15  10    2.94    7.78
   2 -15 -10    7.79    3.57
  -2  15  11    3.33    5.56
   2 -15 -11    1.96    4.34
  -2  15  12    3.25    7.75
   2 -15 -12    3.27    2.81
  -2  15  13    7.11    6.38
   2 -15 -13    2.57    2.10
  -2  15  14   19.19   12.97
   2 -15 -14    2.97    2.91
  -2  15  15   16.87    8.39
  -2  15  16    9.17    6.65
   2 -14  21    1.56    2.85
   2 -14  21   15.63   10.61
   2 -14  20    1.63    2.58
   2 -14  20   15.35   10.45
   2 -14  19   29.83   14.10
  -2  14 -18    6.97    3.98
   2 -14  18    3.79    7.18
  -2  14 -17    5.39    3.76
   2 -14  17    6.98    9.58
  -2  14 -16   10.04    5.15
   2 -14  16    7.34    7.38
  -2  14 -15    8.39    4.26
   2 -14  15    5.98    7.69
  -2  14 -14    8.46    3.72
   2 -14  14    7.87    9.21
  -2  14 -13    7.18    3.61
   2 -14  13    1.03    7.22
  -2  14 -12   26.62    8.63
   2 -14  12   12.84    7.61
  -2  14 -11   -0.49    1.88
  -2  14 -11    3.29    2.23
   2 -14  11   10.94    7.63
  -2  14 -10   94.15    9.48
  -2  14 -10  109.25   11.16
   2 -14  10   94.68   14.52
  -2  14  -9    0.35    1.84
  -2  14  -9    8.33    3.25
   2 -14   9   13.48   10.30
  -2  14  -8   51.09   10.14
  -2  14  -8   58.65   11.35
   2 -14   8   50.62   12.28
  -2  14  -7   44.55   13.12
  -2  14  -7   42.14   12.78
   2 -14   7   28.82   11.00
  -2  14  -6    0.98    2.19
  -2  14  -6    3.84    4.04
   2 -14   6    7.60    5.55
  -2  14  -5    5.64    2.46
  -2  14  -5    6.97    3.10
   2 -14   5    7.55    5.98
  -2  14  -4   10.77    3.98
  -2  14  -4    8.47    3.67
   2 -14   4    8.26    6.39
  -2  14  -3   19.77    8.81
  -2  14  -3   37.42    7.29
   2 -14   3   23.85    9.34
  -2  14  -2    8.12    4.01
  -2  14  -2   16.79    6.18
   2 -14   2   20.99    9.53
  -2  14  -1    3.80    3.33
  -2  14  -1    4.98    2.73
   2 -14   1   17.66    8.06
  -2  14   0  110.74    8.35
   2 -14   0   67.08   11.40
   2 -14   0   89.58    8.26
  -2  14   1   10.11    5.41
   2 -14  -1   12.70    6.13
  -2  14   2  241.25   12.51
   2 -14  -2  301.75   15.80
  -2  14   3   21.33    7.74
   2 -14  -3   15.54    5.70
  -2  14   4   40.46   13.02
   2 -14  -4   22.03    9.61
  -2  14   5    9.97    4.65
   2 -14  -5   33.25   11.71
  -2  14   6   25.19   11.49
   2 -14  -6   14.70    7.07
  -2  14   7   19.64   11.40
   2 -14  -7   26.15    8.68
  -2  14   8    2.67    5.35
   2 -14  -8   11.50    4.73
  -2  14   9   22.08    8.38
   2 -14  -9   17.71    5.67
  -2  14  10    5.01    5.71
   2 -14 -10    0.84    3.13
  -2  14  11    7.31    6.14
   2 -14 -11   11.49    3.53
  -2  14  12   16.52    9.35
   2 -14 -12    4.70    3.33
  -2  14  13    8.28    6.80
   2 -14 -13    3.98    2.89
  -2  14  14    5.29    6.82
   2 -14 -14   10.11    4.67
  -2  14  15    7.66    6.49
   2 -14 -15    8.47    4.73
  -2  14  16    8.16    6.38
  -2  14  17    8.07    9.19
  -2  14  18    2.64    6.50
   2 -13  22    1.77    2.03
   2 -13  22   10.39    7.74
   2 -13  21    4.38    4.13
   2 -13  21    3.80   10.21
   2 -13  20    7.50    3.62
   2 -13  20    4.86    7.17
   2 -13  19    8.13    3.65
   2 -13  19   14.97   11.44
   2 -13  18    4.27    2.50
   2 -13  18    7.25    7.82
   2 -13  17    7.60    5.07
   2 -13  17   16.71   11.17
   2 -13  16   12.08    7.90
  -2  13 -15    4.49    3.13
   2 -13  15   11.25    8.51
  -2  13 -14   35.12   11.56
   2 -13  14   13.68    9.37
  -2  13 -13    6.35    3.03
  -2  13 -13   14.24    6.00
   2 -13  13   13.83    9.67
  -2  13 -12    2.27    2.70
  -2  13 -12    4.73    4.54
   2 -13  12   16.48   11.88
  -2  13 -11    3.17    2.88
  -2  13 -11   11.64    3.71
   2 -13  11    0.64    8.15
  -2  13 -10    6.72    2.77
  -2  13 -10   14.23    5.02
   2 -13  10   17.67   11.73
  -2  13  -9   13.64    4.14
  -2  13  -9   21.42    7.07
   2 -13   9   24.10   12.40
  -2  13  -8    1.43    1.82
  -2  13  -8    3.27    2.28
   2 -13   8    2.56    6.35
  -2  13  -7  145.48   12.52
  -2  13  -7  139.10   12.19
   2 -13   7  134.31   15.08
  -2  13  -6    2.67    2.14
  -2  13  -6    2.08    3.12
   2 -13   6   15.23   10.36
  -2  13  -5   11.97    3.40
  -2  13  -5   14.04    3.66
   2 -13   5   14.95    9.68
  -2  13  -4    3.46    2.32
  -2  13  -4    2.92    2.44
   2 -13   4    4.96    6.06
  -2  13  -3   20.65    8.13
  -2  13  -3   27.44    7.15
   2 -13   3   16.31    9.04
  -2  13  -2    8.29    3.96
  -2  13  -2    2.92    3.79
   2 -13   2   14.77    8.01
  -2  13  -1  156.45   13.54
   2 -13   1  167.65   16.96
  -2  13   0    1.95    2.98
   2 -13   0    3.78    2.73
   2 -13   0    6.44    7.28
  -2  13   1  201.38   17.55
   2 -13  -1  210.43   17.78
   2 -13  -1  238.40   20.76
  -2  13   2    5.80    5.27
   2 -13  -2    7.46    5.02
  -2  13   3  102.83   16.89
   2 -13  -3  105.71   17.05
  -2  13   4    3.89    5.42
   2 -13  -4   -0.46    3.42
  -2  13   5  153.69   13.36
   2 -13  -5  175.76   12.12
  -2  13   6   46.62   10.36
   2 -13  -6   50.00   10.33
  -2  13   7   10.35    7.66
   2 -13  -7   16.88    6.61
  -2  13   8   13.35    8.09
   2 -13  -8    8.38    4.27
  -2  13   9  111.58   13.94
   2 -13  -9   89.04   17.22
  -2  13  10   13.24    7.03
   2 -13 -10    6.80    4.18
  -2  13  11  318.32   26.90
   2 -13 -11  259.97   36.86
  -2  13  12    0.61    6.65
   2 -13 -12    2.25    2.49
  -2  13  13   82.24   15.26
  -2  13  14    9.72    7.23
   2 -13 -14   -0.85    2.51
  -2  13  15   17.82    6.89
   2 -13 -15   20.28    9.02
  -2  13  16   10.82    8.60
   2 -13 -16    3.77    4.61
  -2  13  17    8.23    9.39
  -2  13  18    2.00    6.04
  -2  13  19    1.36    6.62
   2 -12  23   14.13    6.94
   2 -12  23   20.56   13.05
   2 -12  22   28.21   11.10
   2 -12  22   28.56   16.71
   2 -12  21    3.14    2.45
   2 -12  21    5.84    8.19
   2 -12  20    5.55    2.44
   2 -12  20   -4.40    7.87
   2 -12  19   -1.15    2.10
   2 -12  19   -0.97    7.83
   2 -12  18    8.82    6.00
   2 -12  18    3.27    9.26
   2 -12  17    4.24    2.95
   2 -12  17    6.82    9.65
   2 -12  16   55.38   16.41
   2 -12  16   49.79   16.57
   2 -12  15    8.86    4.27
   2 -12  15   11.35   10.00
  -2  12 -14  231.56   18.55
   2 -12  14  293.02   30.66
  -2  12 -13    4.19    2.76
  -2  12 -13    5.77    3.81
   2 -12  13    5.68    8.78
  -2  12 -12   67.12   10.88
  -2  12 -12   69.84   11.58
   2 -12  12   96.98   15.66
  -2  12 -11   78.59   12.39
  -2  12 -11   62.65   10.77
   2 -12  11  100.24   17.24
  -2  12 -10  181.72   14.64
  -2  12 -10  183.24   15.17
   2 -12  10  242.46   25.10
  -2  12  -9   62.64   10.11
  -2  12  -9   65.30   10.59
   2 -12   9   64.88   16.35
  -2  12  -8    6.66    2.68
  -2  12  -8    4.71    3.32
   2 -12   8   -2.98    8.60
  -2  12  -7    8.11    2.69
  -2  12  -7    5.97    2.29
   2 -12   7   17.82   12.62
  -2  12  -6   10.34    3.90
  -2  12  -6    5.61    2.31
   2 -12   6   13.30    7.79
  -2  12  -5  227.12   18.32
  -2  12  -5  283.38   17.67
   2 -12   5  267.20   21.52
  -2  12  -4  330.32   20.23
  -2  12  -4  350.79   21.48
   2 -12   4  336.05   24.92
  -2  12  -3   50.51   14.17
  -2  12  -3   65.58   13.00
   2 -12   3   83.27   18.84
  -2  12  -2  132.22   27.33
  -2  12  -2  200.61   16.85
   2 -12   2  225.50   20.16
  -2  12  -1   13.28    4.23
   2 -12   1    5.95    2.09
   2 -12   1    5.77    4.67
  -2  12   0  288.27   18.72
   2 -12   0  282.19   18.28
   2 -12   0  272.49   18.68
  -2  12   1   49.81   11.13
   2 -12  -1   55.76   11.78
   2 -12  -1   52.67   11.99
  -2  12   2   56.60   13.30
   2 -12  -2   39.66    9.15
   2 -12  -2   49.17   10.66
  -2  12   3    9.77    5.60
   2 -12  -3    4.86    3.74
   2 -12  -3    0.21    3.09
  -2  12   4    6.79    4.02
   2 -12  -4    6.30    3.28
  -2  12   4   14.09    6.14
  -2  12   5   62.35   13.10
   2 -12  -5   53.58   11.80
  -2  12   5   41.30   10.57
  -2  12   6   25.99    7.61
   2 -12  -6   28.10    7.08
  -2  12   6   29.98    7.07
  -2  12   7   68.55   14.09
   2 -12  -7   60.92   10.93
  -2  12   7   51.86   12.16
  -2  12   8   10.49    7.89
   2 -12  -8    6.92    3.10
  -2  12   8   12.25    5.40
  -2  12   9   10.24    7.49
   2 -12  -9    7.71    4.38
  -2  12   9   12.60    5.59
  -2  12  10    2.95    7.62
   2 -12 -10    5.34    3.62
  -2  12  10    3.21    3.95
  -2  12  11   57.71   14.89
   2 -12 -11   49.28   18.33
  -2  12  11   43.54   13.36
   2 -12 -12   65.60   19.28
  -2  12  13   21.63   10.76
   2 -12 -13   21.18    8.46
  -2  12  14  155.69   18.13
  -2  12  15    9.43    9.56
   2 -12 -15    1.00    2.37
  -2  12  16   24.94   11.52
  -2  12  17   13.26    9.05
  -2  12  18   11.27    6.25
  -2  12  19    6.79    6.92
  -2  12  20   14.69    8.62
   2 -11  24   15.18    6.68
   2 -11  24   11.55    9.02
   2 -11  23   20.81    5.32
   2 -11  23   27.19   16.36
   2 -11  22    7.83    4.14
   2 -11  22    6.61    9.37
   2 -11  21    6.30    2.68
   2 -11  21    2.06   10.01
   2 -11  20    5.40    3.24
   2 -11  20   -0.06   10.05
   2 -11  19    3.65    3.25
   2 -11  19   10.65   10.45
   2 -11  18    7.60    4.00
   2 -11  18    4.15   10.52
   2 -11  17   40.75   11.77
   2 -11  17   29.08   13.86
   2 -11  16   31.38    9.44
   2 -11  16   41.40   15.95
   2 -11  15   23.71   10.59
  -2  11 -15   12.87    3.67
   2 -11  15    8.96    9.63
   2 -11  14   50.34   18.71
  -2  11 -14   57.62   11.23
   2 -11  14   38.12   15.96
   2 -11  13   18.09    6.92
  -2  11 -13   11.62    3.95
   2 -11  13   13.67   10.37
  -2  11 -12   36.29    8.56
   2 -11  12   49.12   17.13
  -2  11 -11    3.25    2.58
  -2  11 -11    9.95    4.57
   2 -11  11   17.61   14.24
  -2  11 -10   14.71    3.32
  -2  11 -10   29.14    7.37
   2 -11  10   25.67   14.94
  -2  11  -9    5.79    2.74
  -2  11  -9    4.86    3.94
   2 -11   9   16.92   11.09
  -2  11  -8  173.60   14.17
  -2  11  -8  202.47   16.51
   2 -11   8  201.37   24.58
  -2  11  -7    5.38    2.37
  -2  11  -7    4.16    2.29
   2 -11   7    8.30    9.52
  -2  11  -6   92.62    9.43
  -2  11  -6   97.58    9.90
   2 -11   6   97.40   22.95
  -2  11  -5  327.61   12.50
  -2  11  -5  343.06   12.89
   2 -11   5  350.83   21.23
  -2  11  -4  197.06   15.90
  -2  11  -4  197.65   15.71
   2 -11   4  206.92   19.77
  -2  11  -3  502.41   17.28
  -2  11  -3  522.53   17.48
   2 -11   3  520.02   21.31
  -2  11  -2   21.26    8.47
  -2  11  -2   23.28    7.54
   2 -11   2   28.82   10.04
  -2  11  -1  173.45   14.59
   2 -11   1  185.30   15.28
   2 -11   1  193.52   17.28
  -2  11   0  179.72   14.96
   2 -11   0  205.95   16.65
   2 -11   0  189.35   37.59
  -2  11   0  182.86   16.60
  -2  11   1    4.31    3.19
   2 -11  -1    5.37    3.43
   2 -11  -1    0.99    4.54
  -2  11   1    9.57    7.77
  -2  11   2    9.34    5.22
   2 -11  -2    8.06    2.34
   2 -11  -2   29.54   10.16
  -2  11   2   12.17    5.74
  -2  11   3  157.02   14.16
   2 -11  -3  167.50   15.13
   2 -11  -3  165.25   15.83
  -2  11   3  137.14   12.94
  -2  11   4   41.99   10.98
   2 -11  -4   38.97    9.17
   2 -11  -4   49.48   11.24
  -2  11   4   39.78   10.29
  -2  11   5  105.77   13.96
   2 -11  -5   61.40   12.90
   2 -11  -5   95.95   10.82
  -2  11   5   73.38   15.31
  -2  11   6  108.33   14.74
   2 -11  -6   93.90   11.32
  -2  11   6   76.26   15.29
  -2  11   7    4.99    6.16
   2 -11  -7    4.94    4.43
  -2  11   7    1.99    3.64
  -2  11   8    3.57    5.86
   2 -11  -8    3.91    2.87
  -2  11   8    6.95    3.58
  -2  11   9   72.36   16.12
   2 -11  -9   79.77   13.09
  -2  11   9   59.02   13.07
  -2  11  10    6.44    8.05
   2 -11 -10   11.54    3.48
  -2  11  10    8.05    3.83
  -2  11  11   39.89   12.59
   2 -11 -11   20.54    8.33
  -2  11  11   19.14    6.05
  -2  11  12   17.40   10.61
   2 -11 -12    5.26    4.21
  -2  11  12    7.30    3.12
  -2  11  13    7.52    7.39
   2 -11 -13    9.54    4.30
  -2  11  13    5.65    2.89
  -2  11  14    5.60    7.11
   2 -11 -14    2.86    3.37
  -2  11  14    8.49    3.27
   2 -11 -15    1.30    4.83
  -2  11  19    9.14    9.70
  -2  11  19    3.72    2.55
  -2  11  20   -0.07    6.42
  -2  11  21    2.47    7.45
   2 -10  24    7.18    3.77
   2 -10  24   11.69   13.63
   2 -10  23    2.74    2.67
   2 -10  22    2.68    2.35
   2 -10  22   16.84   14.08
   2 -10  21    3.01    3.45
   2 -10  21   11.66   14.72
   2 -10  20    4.59    4.26
   2 -10  20   11.66   10.68
   2 -10  19   21.05    9.40
   2 -10  19   46.58   13.88
   2 -10  18    6.43    3.90
   2 -10  18   15.23   14.78
   2 -10  17   60.14   13.54
   2 -10  17   57.92   17.11
   2 -10  16    2.17    2.30
   2 -10  16    3.17   10.30
   2 -10  15   60.44   12.19
  -2  10 -15   43.34    8.01
   2 -10  15   37.80   13.20
   2 -10  14   11.07    5.16
  -2  10 -14    9.75    4.13
   2 -10  14   30.12   15.70
   2 -10  13    6.36    2.84
  -2  10 -13    8.14    3.78
   2 -10  13   25.29   15.86
   2 -10  12    5.74    3.28
  -2  10 -12    9.45    3.74
   2 -10  12    4.39   11.74
   2 -10  11  394.26   29.86
  -2  10 -11  369.55   26.85
   2 -10  11  405.56   34.88
  -2  10 -10    3.82    2.05
  -2  10 -10    3.82    3.52
   2 -10  10   13.15   15.30
  -2  10  -9  133.69   11.17
  -2  10  -9  157.35   13.83
   2 -10   9  149.10   21.85
  -2  10  -8  425.82   14.46
  -2  10  -8  405.43   14.69
   2 -10   8  372.56   21.40
  -2  10  -7   38.26    7.23
  -2  10  -7   36.33    7.10
   2 -10   7   38.54   14.52
  -2  10  -6  448.14   12.47
  -2  10  -6  484.54   13.83
   2 -10   6  439.05   20.03
  -2  10  -5   47.84    6.40
  -2  10  -5   53.85    7.55
   2 -10   5   39.24   14.38
  -2  10  -4  342.37   10.62
  -2  10  -4  311.94   21.53
   2 -10   4  348.47   18.52
  -2  10  -3   95.24   20.80
  -2  10  -3  101.56    7.88
   2 -10   3  118.44   12.93
  -2  10  -3  122.11   14.45
  -2  10  -2   90.35   16.22
  -2  10  -2   86.28   11.04
   2 -10   2   80.62   11.53
  -2  10  -2   77.65   11.29
  -2  10  -1    9.24    2.95
   2 -10   1    6.43    2.51
   2 -10   1   21.76    9.16
  -2  10  -1   11.38    5.50
  -2  10   0  187.88   14.52
   2 -10   0  183.92   13.91
   2 -10   0  167.32   12.90
  -2  10   0  185.99   16.68
  -2  10   1  186.07   14.78
   2 -10  -1  201.77   15.53
   2 -10  -1  201.87   15.91
  -2  10   1  183.49   15.21
  -2  10   2   30.77    8.67
   2 -10  -2   33.69    8.80
   2 -10  -2   36.75   10.80
  -2  10   2   26.74    7.45
  -2  10   3    6.61    3.73
   2 -10  -3    7.26    2.86
   2 -10  -3    5.77    4.67
  -2  10   3   11.62    5.10
  -2  10   4  300.21   13.99
   2 -10  -4  297.45   12.50
   2 -10  -4  318.23   10.92
  -2  10   4  311.48   22.52
  -2  10   5    3.93    4.90
   2 -10  -5    5.49    3.04
   2 -10  -5   -1.02    3.23
  -2  10   5   15.25    9.65
  -2  10   6  252.74   11.75
   2 -10  -6  216.61   17.94
   2 -10  -6  253.04   10.27
  -2  10   6  263.32   11.78
  -2  10   7    4.19    7.17
   2 -10  -7    6.22    3.11
  -2  10   7    9.56    7.19
  -2  10   8   20.07    9.64
   2 -10  -8    5.63    3.56
  -2  10   8   12.13    4.75
  -2  10   9  129.66   18.00
   2 -10  -9  133.38   15.52
  -2  10   9  128.74   14.73
  -2  10  10    7.05    6.94
   2 -10 -10    4.21    4.08
  -2  10  10   13.26    4.32
  -2  10  11   22.40   10.77
   2 -10 -11   17.90    6.52
  -2  10  11   16.54    5.04
   2 -10 -12    5.72    4.02
  -2  10  12    5.62    2.59
   2 -10 -13   11.04    4.92
  -2  10  13    8.23    2.49
   2 -10 -14   36.70   16.60
  -2  10  14   16.41    6.60
  -2  10  15    6.90    3.54
  -2  10  16    8.81    8.70
  -2  10  17    7.38    6.43
  -2  10  18   15.52    8.78
  -2  10  19   -0.65    6.64
  -2  10  19    5.16    3.02
  -2  10  20    3.34    6.80
  -2  10  20    1.60    1.54
  -2  10  21    3.13    6.73
  -2  10  22    0.75    6.74
   2  -9  25    8.33    5.75
   2  -9  25   16.57   12.48
   2  -9  24    3.46    3.36
   2  -9  24   16.30   13.40
   2  -9  23   18.38    7.44
   2  -9  23   22.76   14.21
   2  -9  22    3.60    3.09
   2  -9  21   13.83    9.03
   2  -9  20    7.30    3.56
   2  -9  20    8.95   14.68
   2  -9  19  298.05   22.92
   2  -9  19  305.57   32.20
   2  -9  18    5.78    5.95
   2  -9  18    8.46   14.42
   2  -9  17  300.03   22.65
   2  -9  17  284.06   30.54
   2  -9  16    4.44    2.67
  -2   9 -16    7.28    3.89
   2  -9  16   -4.30   10.12
   2  -9  15   11.81    4.99
  -2   9 -15    6.60    3.96
   2  -9  15   14.47   11.50
   2  -9  14   14.68    4.75
  -2   9 -14   15.00    5.18
   2  -9  14   36.78   18.24
   2  -9  13  136.75   15.73
  -2   9 -13  142.22   16.15
   2  -9  13  153.01   20.04
   2  -9  12    9.07    4.59
  -2   9 -12    2.85    4.26
   2  -9  12   14.49   13.29
   2  -9  11   33.38   10.17
  -2   9 -11   44.75    9.49
   2  -9  11   39.42   19.37
   2  -9  10  145.97   22.46
  -2   9 -10  146.02   12.15
   2  -9  10  185.82   28.82
  -2   9  -9   12.88    4.00
   2  -9   9   33.00   18.16
  -2   9  -8  180.00   12.93
  -2   9  -8  165.15   11.30
   2  -9   8  162.76   18.82
  -2   9  -7  355.96   10.26
  -2   9  -7  302.31   20.77
   2  -9   7  338.17   19.11
  -2   9  -6    1.75    2.13
  -2   9  -6    4.57    3.11
   2  -9   6   14.51    9.36
  -2   9  -5   19.94    4.19
  -2   9  -5   28.59    5.56
   2  -9   5    8.63    8.94
  -2   9  -5   12.55    6.67
  -2   9  -4   22.82    4.52
  -2   9  -4   29.69    5.75
   2  -9   4   24.69    7.73
  -2   9  -4   25.91    6.65
  -2   9  -3  529.09   20.42
  -2   9  -3  515.03   18.53
   2  -9   3  569.64   30.11
  -2   9  -3  538.66   22.36
  -2   9  -2    2.15    2.45
  -2   9  -2   11.65    3.78
   2  -9   2   10.10    9.44
  -2   9  -2   11.56    9.47
  -2   9  -1  973.32   32.47
   2  -9   1 1006.07   34.20
   2  -9   1  952.70   34.16
  -2   9  -1  958.50   34.38
  -2   9   0   97.56   12.37
   2  -9   0  110.11    9.03
   2  -9   0  115.91   12.14
  -2   9   0   88.50   11.79
  -2   9   1   14.56    3.57
   2  -9  -1   18.22    4.61
   2  -9  -1    9.59    3.44
  -2   9   1   11.05    5.64
  -2   9   2    1.48    2.87
   2  -9  -2    2.94    2.59
   2  -9  -2    5.42    3.68
  -2   9   2    9.69    6.64
  -2   9   3    7.84    4.98
   2  -9  -3    5.73    4.82
   2  -9  -3    4.31    4.29
  -2   9   3   -3.12    4.29
  -2   9   4    4.47    4.13
   2  -9  -4    6.61    2.69
   2  -9  -4    8.98    3.77
  -2   9   4    8.12    4.85
  -2   9   5  543.94   18.15
   2  -9  -5  489.00   14.62
   2  -9  -5  496.68   14.27
  -2   9   5  523.82   15.39
  -2   9   6  132.83   14.32
   2  -9  -6  138.99   10.78
   2  -9  -6  138.03   11.15
  -2   9   6  133.38    9.61
  -2   9   7  133.24   14.56
   2  -9  -7  125.82   11.48
   2  -9  -7  160.44   13.81
  -2   9   7  156.61   16.22
  -2   9   8  103.46   14.20
   2  -9  -8   98.86   11.49
  -2   9   8   97.66   18.33
   2  -9  -9  247.03   16.80
  -2   9   9  225.91   17.69
   2  -9 -10   48.27    9.79
  -2   9  10   38.76    8.16
   2  -9 -11   46.23   14.51
  -2   9  11   40.57    8.62
  -2   9  12   12.57    7.69
   2  -9 -12    9.70    3.72
  -2   9  12   11.93    3.91
  -2   9  13    4.06    7.29
   2  -9 -13    1.78    1.48
  -2   9  13    4.47    2.43
  -2   9  14    2.90    6.70
  -2   9  14    2.92    2.01
  -2   9  15  288.76   24.81
  -2   9  15  277.58   20.14
  -2   9  16    1.25    6.32
  -2   9  16    0.48    1.63
  -2   9  17  248.39   23.93
  -2   9  18   11.93    6.79
  -2   9  18    7.95    2.98
  -2   9  19   75.22   14.58
  -2   9  19   55.63    8.45
  -2   9  20   13.54    8.39
  -2   9  20    7.05    2.88
  -2   9  21   13.32    6.84
  -2   9  22   10.53    6.59
  -2   9  23    7.42    6.00
   2  -8  26   21.10    8.21
   2  -8  26   29.04   14.76
   2  -8  25    9.32    5.45
   2  -8  25   10.25   12.61
   2  -8  24    4.51    3.92
   2  -8  24    6.93    8.92
   2  -8  23    3.86    3.77
   2  -8  23   24.77   14.29
   2  -8  22    9.14    6.44
   2  -8  21    2.49    3.98
   2  -8  21    2.10    9.11
   2  -8  20  102.08   13.54
   2  -8  20   48.52   15.37
   2  -8  19   17.69    8.76
   2  -8  19   17.33   13.22
   2  -8  18   68.85   13.83
   2  -8  18   48.04   14.94
   2  -8  17   12.88    5.71
   2  -8  17    5.27   14.16
   2  -8  16   89.35    9.07
  -2   8 -16   79.08   12.50
   2  -8  16  105.51   20.73
   2  -8  15   15.70    5.81
  -2   8 -15   11.25    4.09
   2  -8  15   17.14   18.18
   2  -8  14    4.81    3.50
  -2   8 -14    7.13    4.02
   2  -8  14   15.05   12.62
   2  -8  13   10.35    4.25
  -2   8 -13   10.63    5.52
   2  -8  13    8.55   13.14
   2  -8  12   11.91    3.11
  -2   8 -12   11.10    4.52
   2  -8  12   29.70   23.79
   2  -8  11   27.08    8.44
  -2   8 -11   31.24    4.58
   2  -8  11   41.52   20.70
   2  -8  10  471.28   22.33
  -2   8 -10  472.49   12.92
   2  -8  10  538.83   26.97
   2  -8   9    2.28    1.42
   2  -8   9   -8.34    9.91
   2  -8   8  102.09   11.93
  -2   8  -8  109.45    8.31
   2  -8   8  115.57   19.42
  -2   8  -7   95.74   10.98
  -2   8  -7   79.21    9.69
   2  -8   7   92.17   18.63
  -2   8  -7   65.99    9.58
  -2   8  -6  242.80   12.88
  -2   8  -6  273.69    7.36
   2  -8   6  226.24   17.69
  -2   8  -6  225.89   14.98
  -2   8  -5    8.83    2.11
  -2   8  -5    3.76    1.59
   2  -8   5   20.95   11.71
  -2   8  -5   37.63   12.17
  -2   8  -4    9.28    2.04
  -2   8  -4    3.20    1.64
   2  -8   4   10.42    8.25
  -2   8  -4    8.36    6.85
  -2   8  -3    7.25    2.78
  -2   8  -3    5.22    2.39
   2  -8   3   11.63    7.65
  -2   8  -3   15.54    4.76
  -2   8  -2   21.02    4.43
   2  -8   2   22.03   10.77
  -2   8  -2   19.89    6.11
  -2   8  -1    5.12    2.69
   2  -8   1    4.48    3.22
   2  -8   1    9.92    6.09
  -2   8  -1    1.91    6.44
  -2   8   0   40.04    6.96
   2  -8   0   48.23    8.07
   2  -8   0   28.00    6.05
  -2   8   0   49.04    9.87
  -2   8   1   22.76    4.71
   2  -8  -1   22.69    4.84
   2  -8  -1   24.49    6.06
  -2   8   1   23.11    5.96
  -2   8   2  285.31    8.81
   2  -8  -2  303.15   11.51
   2  -8  -2  303.30   11.73
  -2   8   2  288.31   10.32
  -2   8   3   30.08    6.21
   2  -8  -3   29.95    5.83
   2  -8  -3   39.41    7.33
  -2   8   3   26.49    5.32
  -2   8   4  254.11   16.38
   2  -8  -4  249.42   14.46
   2  -8  -4  235.71   14.21
  -2   8   4  250.41   14.70
  -2   8   5   10.47    5.46
   2  -8  -5    5.00    3.01
   2  -8  -5    0.22    2.49
  -2   8   5    1.04    3.62
  -2   8   6   74.77   11.67
   2  -8  -6   67.60    8.83
   2  -8  -6   82.37   10.92
  -2   8   6   68.95   12.64
   2  -8  -7    5.47    4.95
   2  -8  -7    5.97    3.82
  -2   8   7    2.81    2.93
   2  -8  -8  157.96   11.31
   2  -8  -8  169.30   11.36
  -2   8   8  185.43   13.32
   2  -8  -9   82.67   21.69
  -2   8   9   89.67   10.00
  -2   8  10   -0.34    6.02
   2  -8 -10    7.65    3.29
  -2   8  10    4.62    3.08
  -2   8  11  152.84   17.87
   2  -8 -11  173.66   23.21
  -2   8  11  161.25   13.29
  -2   8  12    3.85   10.38
   2  -8 -12    5.36    3.45
  -2   8  12    2.93    2.04
  -2   8  13   21.74   11.97
  -2   8  13   13.93    5.64
  -2   8  14   64.76   13.74
  -2   8  14   69.26   11.75
  -2   8  15    6.43    6.39
  -2   8  15    8.31    2.81
  -2   8  16    9.51    8.42
  -2   8  16    7.06    2.92
  -2   8  17   10.16    6.55
  -2   8  17    8.31    2.46
  -2   8  17   18.89    8.84
  -2   8  18  253.27   22.76
  -2   8  18  226.64   16.57
  -2   8  19    4.45    6.23
  -2   8  19    1.32    1.68
  -2   8  20   75.30   15.59
  -2   8  20   62.19    8.73
  -2   8  21   12.18   10.52
  -2   8  21    5.49    3.14
  -2   8  22    7.36    9.28
  -2   8  23    9.48    6.12
  -2   8  24   14.59    9.74
   2  -7  26   11.54    6.73
   2  -7  26    9.10   13.00
   2  -7  25    5.79    5.89
   2  -7  25    3.81   11.97
   2  -7  24    4.38    5.29
   2  -7  24   11.26   13.01
   2  -7  23    8.63    6.73
   2  -7  23    4.92    9.49
   2  -7  22    4.43    3.95
   2  -7  22   19.20   14.45
   2  -7  21   24.32    6.51
   2  -7  20   13.50    5.30
   2  -7  20    9.11   10.33
   2  -7  19    6.39    3.89
   2  -7  19    7.68    9.69
   2  -7  18   15.53    7.61
   2  -7  18   14.71   11.08
   2  -7  17    2.64    3.34
   2  -7  17    1.53   10.28
   2  -7  16   11.41    5.31
  -2   7 -16    2.86    2.77
   2  -7  16   16.56   12.09
   2  -7  15   28.24    7.94
  -2   7 -15   30.99    7.77
   2  -7  15   38.74   21.82
   2  -7  14   38.73    9.99
  -2   7 -14   40.82    9.27
   2  -7  14   46.44   21.75
   2  -7  13   45.76   10.84
  -2   7 -13   36.11    8.57
   2  -7  13   43.82   18.50
   2  -7  12    2.24    2.80
  -2   7 -12   13.46    6.28
   2  -7  12    9.45   18.28
   2  -7  11    8.14    2.50
  -2   7 -11   14.32    3.58
   2  -7  11    9.28   11.37
   2  -7  10   22.25    5.76
  -2   7 -10   19.82    3.31
   2  -7  10   50.80   15.91
   2  -7   9   13.44    3.11
  -2   7  -9   12.38    3.21
   2  -7   9    7.92    9.93
  -2   7  -8    9.73    2.82
   2  -7   8    5.26    9.26
  -2   7  -8   11.59    7.19
   2  -7   7  154.33   18.89
  -2   7  -7  154.04   18.24
   2  -7   7  195.78   20.13
  -2   7  -7  167.46   12.18
  -2   7  -6    3.51    1.72
  -2   7  -6    3.98    2.44
   2  -7   6    8.34    8.94
  -2   7  -6    1.20    5.85
  -2   7  -5   25.73    4.93
  -2   7  -5   25.09    4.88
   2  -7   5   26.75   12.52
  -2   7  -5   15.80    6.94
  -2   7  -4  221.45    9.93
  -2   7  -4  214.64    5.51
   2  -7   4  193.31   15.21
  -2   7  -4  211.31   10.15
  -2   7  -3  289.06   15.14
  -2   7  -3  300.15   12.48
   2  -7   3  306.92   18.13
  -2   7  -3  297.98   16.13
  -2   7  -2  427.32   16.85
   2  -7   2  419.08   19.84
  -2   7  -2  424.46   20.00
  -2   7  -1  101.64    5.01
   2  -7   1   96.81    5.22
   2  -7   1  101.44   10.22
  -2   7  -1   96.65    7.96
  -2   7   0  498.14   18.89
   2  -7   0  500.91   19.08
   2  -7   0  459.20   11.18
  -2   7   0  491.40   20.47
  -2   7   1    9.44    3.06
   2  -7  -1   18.84    4.31
   2  -7  -1   13.20    5.97
  -2   7   1   15.97    4.45
  -2   7   2   63.97    7.65
   2  -7  -2   69.90    7.18
   2  -7  -2   82.09    9.03
  -2   7   2   85.84   10.80
  -2   7   3 1170.43   41.87
   2  -7  -3 1183.70   42.28
   2  -7  -3 1145.09   40.59
  -2   7   3 1109.68   39.52
  -2   7   4  440.16   20.32
   2  -7  -4  425.92   18.42
   2  -7  -4  408.48   17.27
  -2   7   4  415.26   17.65
  -2   7   5   16.00    8.33
   2  -7  -5    8.07    3.12
   2  -7  -5    6.69    3.13
  -2   7   5   10.67    5.15
   2  -7  -6   80.02   10.82
   2  -7  -6   73.93    9.83
  -2   7   6   75.97    9.68
   2  -7  -7  103.44    6.89
   2  -7  -7   88.85   10.82
  -2   7   7   90.57   10.69
  -2   7   8   58.69   13.19
   2  -7  -8   42.94    8.40
   2  -7  -8   50.46   12.65
  -2   7   8   50.52    8.63
  -2   7   9    6.67    7.05
   2  -7  -9    6.00    3.27
  -2   7   9    8.27    2.78
  -2   7  10  130.51   14.08
   2  -7 -10  120.55   12.81
  -2   7  10  133.49    8.79
  -2   7  11    8.24    6.92
   2  -7 -11    3.88    2.76
  -2   7  11    9.94    4.81
  -2   7  12   22.81    8.69
  -2   7  12   25.08    7.18
  -2   7  13   24.50   12.58
  -2   7  13   27.69    6.06
  -2   7  14   11.84    8.06
  -2   7  14   14.58    2.70
  -2   7  15    7.31    7.30
  -2   7  15    2.30    1.76
  -2   7  15    1.00    1.37
  -2   7  16   31.84    9.51
  -2   7  16   28.43    5.33
  -2   7  16   45.08    7.95
  -2   7  17   14.64    7.54
  -2   7  17   12.76    3.40
  -2   7  17   10.83    2.92
  -2   7  18   -2.15    5.74
  -2   7  18    2.30    1.95
  -2   7  19   43.05   12.69
  -2   7  19   25.20    8.27
  -2   7  20   14.35   12.53
  -2   7  20    4.33    2.92
  -2   7  21    8.14    6.97
  -2   7  21    4.35    2.68
  -2   7  22    5.32    6.69
  -2   7  22    1.42    1.98
  -2   7  23    6.88    8.62
  -2   7  24    7.08    5.86
   2  -6  26   12.26    5.96
   2  -6  26   17.12   14.90
   2  -6  25   21.66    6.82
   2  -6  25   30.65   17.09
   2  -6  24   13.61    7.18
   2  -6  24   -0.12    9.46
   2  -6  23    4.67    3.93
   2  -6  23    4.94    8.93
   2  -6  22    3.27    5.26
   2  -6  22    6.32    9.08
   2  -6  21    4.01    4.11
   2  -6  20   37.81    9.87
   2  -6  19    7.72    4.16
   2  -6  19   10.43    9.25
   2  -6  18   79.45   14.63
   2  -6  18   48.01   14.43
   2  -6  17    4.96    3.51
   2  -6  17   -3.37   11.55
   2  -6  16  202.54   17.49
  -2   6 -16  148.68    8.02
   2  -6  16  189.62   30.03
   2  -6  15    0.44    4.21
  -2   6 -15   16.73    6.81
   2  -6  15    1.11   12.52
   2  -6  14   83.92   10.73
  -2   6 -14   68.05   13.87
   2  -6  14   40.35   14.57
   2  -6  13  267.85   12.62
  -2   6 -13  247.74    9.49
   2  -6  13  224.95   24.39
   2  -6  12   60.31    8.90
  -2   6 -12   51.93    7.91
   2  -6  12   40.06   18.81
   2  -6  11   12.06    2.89
  -2   6 -11   17.62    3.52
   2  -6  11   15.74   14.71
   2  -6  10    4.68    2.38
  -2   6 -10    4.02    3.42
   2  -6  10   13.53    9.83
  -2   6 -10    3.34    3.45
   2  -6   9    8.10    2.83
  -2   6  -9    6.70    2.04
   2  -6   9   26.47   13.68
  -2   6  -9   10.41    3.91
   2  -6   8    4.55    1.47
  -2   6  -8    9.08    2.30
   2  -6   8   18.04    9.54
  -2   6  -8    9.02    6.64
   2  -6   7    6.28    2.87
  -2   6  -7    6.68    1.86
   2  -6   7    8.50   11.83
  -2   6  -7    4.59    5.02
   2  -6   6  362.43   15.60
  -2   6  -6  371.11   14.82
   2  -6   6  359.26   20.55
  -2   6  -6  396.85   19.24
  -2   6  -5   40.04    4.01
  -2   6  -5   45.40    4.60
   2  -6   5   39.41   11.54
  -2   6  -5   41.45    7.19
  -2   6  -4  755.59    9.93
  -2   6  -4  800.25   10.37
   2  -6   4  812.56   20.56
  -2   6  -4  785.25   17.99
  -2   6  -3  239.57    9.55
  -2   6  -3  220.80    8.74
   2  -6   3  209.70   15.06
  -2   6  -3  219.03   12.06
  -2   6  -2  866.46   10.49
   2  -6   2  868.69   17.85
  -2   6  -2  858.31   16.85
  -2   6  -1   17.74    4.32
   2  -6   1   28.57    6.86
   2  -6   1   10.81    4.08
  -2   6  -1   18.83    6.47
  -2   6   0   77.85    9.26
   2  -6   0   93.50   11.03
   2  -6   0   65.88    9.66
  -2   6   0   77.34   10.10
  -2   6   1  105.39   12.49
   2  -6  -1   90.10   10.51
   2  -6  -1   95.83   12.25
  -2   6   1   94.20   11.84
  -2   6   2  242.40   11.13
   2  -6  -2  242.64   10.53
   2  -6  -2  236.36   10.81
  -2   6   2  241.63   11.45
  -2   6   3   32.85    8.46
   2  -6  -3   21.91    5.67
   2  -6  -3   35.39    9.77
  -2   6   3   28.73    7.70
  -2   6   4  421.64   18.31
   2  -6  -4  405.64   16.99
   2  -6  -4  413.72   17.05
  -2   6   4  427.17   17.52
  -2   6   5   75.66    9.52
   2  -6  -5   82.83    8.43
   2  -6  -5   63.07    6.22
  -2   6   5   77.10    7.61
  -2   6   6   37.84    7.48
   2  -6  -6   45.27    5.56
   2  -6  -6   54.37    6.11
  -2   6   6   42.92    8.86
  -2   6   7    5.14    5.92
   2  -6  -7   13.44    5.20
   2  -6  -7   16.16    2.90
  -2   6   7    9.45    2.16
  -2   6   8  685.98   23.94
   2  -6  -8  748.44   23.96
   2  -6  -8  694.97   21.24
  -2   6   8  709.05   19.62
  -2   6   9   71.93   12.64
   2  -6  -9   66.52    9.35
   2  -6  -9   63.40   12.66
  -2   6   9   58.50    7.44
  -2   6  10  474.92   18.00
   2  -6 -10  369.95   12.13
   2  -6 -10  370.81   10.99
  -2   6  10  452.23   10.46
  -2   6  11    0.59    6.35
  -2   6  11    3.55    1.94
  -2   6  12  409.67   20.01
  -2   6  12  364.79   11.47
  -2   6  13    9.28    7.53
  -2   6  13    6.60    2.79
  -2   6  14    1.57    7.47
  -2   6  14    2.82    1.97
  -2   6  14    2.54    1.90
  -2   6  15    2.64    7.38
  -2   6  15    3.53    1.70
  -2   6  15    3.13    2.05
  -2   6  16   -0.41    5.57
  -2   6  16    4.71    1.99
  -2   6  16    1.55    1.50
  -2   6  17    2.41    5.64
  -2   6  17    4.31    2.49
  -2   6  17    2.15    2.26
  -2   6  18   32.47   11.78
  -2   6  18   27.47    8.47
  -2   6  18   33.37   10.39
  -2   6  19    6.84    6.46
  -2   6  19    3.31    1.92
  -2   6  19    3.28    2.13
  -2   6  20   41.24   13.53
  -2   6  20   58.96   13.26
  -2   6  21   10.75    6.75
  -2   6  21    7.73    3.62
  -2   6  22   57.32   12.31
  -2   6  22   27.45    8.03
  -2   6  23   10.00    7.66
  -2   6  24    3.30    5.58
  -2   6  25    9.27    5.82
   2  -5  27    9.74    6.88
   2  -5  27    4.05    9.06
   2  -5  26    8.10    6.97
   2  -5  26   15.54   14.60
   2  -5  25   59.42   15.90
   2  -5  25   38.39   14.36
   2  -5  24    2.52    4.12
   2  -5  24   -1.28    9.37
   2  -5  23   23.62    8.76
   2  -5  23   22.69   15.32
   2  -5  22   20.54   10.10
   2  -5  22   16.49   12.17
   2  -5  21    2.99    4.17
   2  -5  21    7.56    9.80
   2  -5  20    1.67    4.02
   2  -5  19   15.23    7.47
   2  -5  19   45.60   16.81
   2  -5  18   56.19   10.25
   2  -5  18   36.38   12.89
   2  -5  17  132.29   12.81
   2  -5  17   67.21   17.05
   2  -5  16    3.66    4.30
   2  -5  15  205.58   18.04
  -2   5 -15  181.09   15.42
   2  -5  15  178.07   21.35
   2  -5  14   17.39    9.47
  -2   5 -14   25.41    8.16
   2  -5  14    4.99   12.66
   2  -5  13  900.60   22.32
  -2   5 -13  944.34   21.74
   2  -5  13  925.04   30.48
   2  -5  12   67.85    9.73
  -2   5 -12   59.29    8.12
   2  -5  12    9.11   10.62
   2  -5  11    5.47    4.10
  -2   5 -11    8.01    4.63
   2  -5  11   11.37    9.10
  -2   5 -11    5.47    3.47
   2  -5  10    4.47    3.34
  -2   5 -10   11.11    4.00
   2  -5  10    0.59    8.24
  -2   5 -10    5.54    2.43
   2  -5   9    5.00    3.30
  -2   5  -9    4.17    3.30
   2  -5   9   11.45    8.86
  -2   5  -9    8.59    4.84
   2  -5   8  173.38    6.65
  -2   5  -8  174.21    5.68
   2  -5   8  188.54   13.45
  -2   5  -8  178.18    8.72
   2  -5   7  542.55   20.11
  -2   5  -7  566.90   20.76
   2  -5   7  536.83   25.95
  -2   5  -7  545.72   22.83
   2  -5   6  106.01   12.14
  -2   5  -6  111.46   12.51
  -2   5  -6  108.13   13.68
   2  -5   5   29.91    8.90
  -2   5  -5   36.92    8.16
   2  -5   5   24.50    9.12
  -2   5  -5   31.60    8.94
  -2   5  -4    4.19    1.11
  -2   5  -4    3.51    1.26
   2  -5   4    5.07    7.85
  -2   5  -4    5.59    5.72
  -2   5  -3  888.40    9.56
  -2   5  -3  900.51    9.26
   2  -5   3  890.34   18.04
  -2   5  -3  890.22   16.91
  -2   5  -2  574.51   19.02
  -2   5  -2  575.05   18.19
   2  -5   2  586.51   22.39
  -2   5  -2  581.54   21.64
  -2   5  -1    4.13    2.46
   2  -5   1    3.82    2.01
   2  -5   1    3.99    5.46
  -2   5  -1   14.48    7.33
  -2   5   0   17.44    4.35
   2  -5   0   21.67    5.37
   2  -5   0   10.69    4.32
  -2   5   0   11.82    4.07
  -2   5   1   51.59    7.09
   2  -5  -1   49.95    6.23
   2  -5  -1   55.03   13.05
  -2   5   1   56.99    8.46
  -2   5   2    3.81    3.24
   2  -5  -2    4.89    4.04
   2  -5  -2   -1.86    3.12
  -2   5   2   -1.90    3.69
  -2   5   3  161.72    8.51
   2  -5  -3  171.69    8.51
   2  -5  -3  176.87    7.99
  -2   5   3  163.22    8.10
  -2   5   4    6.61    4.21
   2  -5  -4   19.37    6.37
   2  -5  -4   11.29    3.28
  -2   5   4   13.30    4.14
  -2   5   5  614.58   22.32
   2  -5  -5  595.59   20.92
   2  -5  -5  588.36   19.50
  -2   5   5  619.48   20.37
  -2   5   6   98.33    8.26
   2  -5  -6  109.73    6.41
   2  -5  -6  108.62    4.38
  -2   5   6   96.79    3.82
  -2   5   7   15.72    8.14
   2  -5  -7    9.98    5.51
   2  -5  -7    4.33    1.62
  -2   5   7    5.25    2.65
  -2   5   8   28.47    7.24
   2  -5  -8   15.71    3.74
   2  -5  -8   31.04    8.14
  -2   5   8   26.19    7.32
  -2   5   9   19.90    6.68
   2  -5  -9   19.27    4.74
   2  -5  -9   15.92    4.95
  -2   5   9   23.92    5.00
  -2   5  10   12.13    6.74
   2  -5 -10   16.93    5.94
  -2   5  10   11.81    2.17
  -2   5  11   44.41    8.63
  -2   5  11   42.41   11.08
  -2   5  12  106.72   11.74
  -2   5  12  102.22    6.61
  -2   5  12  104.03    7.27
  -2   5  13   53.40   12.60
  -2   5  13   54.74    9.53
  -2   5  13   51.01    9.26
  -2   5  14   30.80   10.48
  -2   5  14   23.75    7.90
  -2   5  14   30.42    7.08
  -2   5  15  259.27   24.36
  -2   5  15  248.18   18.32
  -2   5  15  233.32   17.70
  -2   5  16    6.67    7.38
  -2   5  16    8.78    2.35
  -2   5  16    5.03    3.13
  -2   5  17    8.51    6.24
  -2   5  17    4.58    2.05
  -2   5  17    5.92    3.25
  -2   5  18   21.22   11.66
  -2   5  18   22.67    8.64
  -2   5  18   22.26    8.92
  -2   5  19    7.81    6.08
  -2   5  19    4.67    2.15
  -2   5  19    7.65    3.59
  -2   5  20    3.10    7.29
  -2   5  20    6.59    3.63
  -2   5  21   67.86   12.56
  -2   5  21   62.47    9.49
  -2   5  22   13.21    6.13
  -2   5  22    4.21    3.54
  -2   5  23   54.25   11.31
  -2   5  23   30.13    8.80
  -2   5  24   25.08   11.72
  -2   5  25   18.16    5.75
  -2   5  26    9.89    9.15
   2  -4  27    9.32    6.44
   2  -4  27    3.85    8.41
   2  -4  26    3.68    5.58
   2  -4  26   11.94   12.51
   2  -4  25   17.04    8.09
   2  -4  25   11.78    9.71
   2  -4  24    6.49    4.86
   2  -4  24   11.66    9.79
   2  -4  23    4.63    4.69
   2  -4  23    6.50    9.16
   2  -4  22   38.37   13.09
   2  -4  22   41.29   17.95
   2  -4  21    2.96    4.20
   2  -4  21   16.30    9.83
   2  -4  20    9.65    6.66
   2  -4  20   11.12    9.81
   2  -4  19    5.82    4.11
   2  -4  18    8.54    7.14
   2  -4  18   12.65   13.81
   2  -4  17   15.69    5.88
   2  -4  17    0.42   10.69
   2  -4  16   52.97   12.05
   2  -4  16   64.35   15.39
   2  -4  15   74.38   15.49
  -2   4 -15   84.12    9.19
   2  -4  15   99.36   20.57
   2  -4  14   17.11    6.38
  -2   4 -14   41.34    8.41
   2  -4  14   20.56   10.96
   2  -4  13  187.34   15.01
  -2   4 -13  211.90   16.76
   2  -4  13  196.25   21.80
   2  -4  12   26.84    6.11
  -2   4 -12   38.84    8.13
   2  -4  12   29.48    9.93
   2  -4  11   33.59    6.92
  -2   4 -11   42.20    8.14
   2  -4  11   38.23   10.94
  -2   4 -11   43.71    7.88
   2  -4  10    3.05    2.63
  -2   4 -10    1.22    3.21
   2  -4  10   10.37    7.59
  -2   4 -10    2.58    3.11
   2  -4   9    6.98    2.21
  -2   4  -9    7.19    2.26
   2  -4   9   12.24    7.82
  -2   4  -9   13.35    4.09
   2  -4   8  196.93    6.69
  -2   4  -8  211.61    6.36
   2  -4   8  181.48   15.35
  -2   4  -8  190.74    9.23
   2  -4   7    6.26    2.65
  -2   4  -7    7.88    3.37
   2  -4   7   27.69   11.77
  -2   4  -7    6.63    4.31
   2  -4   6  590.90   19.58
  -2   4  -6  582.91   18.96
   2  -4   6  573.25   24.31
  -2   4  -6  630.95   14.27
   2  -4   5    2.66    1.76
  -2   4  -5    1.59    1.33
   2  -4   5    1.85    6.72
  -2   4  -5    3.58    4.20
   2  -4   4  118.47    4.30
   2  -4   4  127.04   12.89
  -2   4  -4  136.34    7.29
   2  -4   3  321.98   17.19
  -2   4  -3  309.11   13.78
  -2   4  -2   12.60    1.95
   2  -4   2   -1.28    6.22
  -2   4  -2   13.91    6.75
  -2   4  -1  299.72    9.80
   2  -4   1  309.52   10.07
   2  -4   1  310.18   14.43
  -2   4  -1  313.95   13.40
  -2   4   0  147.87    6.71
   2  -4   0  153.75    6.33
   2  -4   0  123.61    7.95
  -2   4   0  151.29    8.22
  -2   4   1  206.09    8.94
   2  -4  -1  199.71    8.37
   2  -4  -1  175.60    8.95
  -2   4   1  186.79    8.55
  -2   4   2   12.20    6.05
   2  -4  -2    4.99    3.87
   2  -4  -2    1.90    3.36
  -2   4   2   -0.91    3.20
  -2   4   3  131.21    6.13
   2  -4  -3  126.01    5.42
   2  -4  -3  116.71    4.26
  -2   4   3  122.86    4.98
  -2   4   4  202.31   10.09
   2  -4  -4  207.39   10.56
   2  -4  -4  202.33    8.05
  -2   4   4  202.27    8.27
  -2   4   5    9.27    5.06
   2  -4  -5    3.60    3.78
   2  -4  -5    2.94    2.01
  -2   4   5    1.65    1.69
  -2   4   6  353.24   10.53
   2  -4  -6  366.50   15.19
   2  -4  -6  362.33   12.54
  -2   4   6  356.51    4.64
  -2   4   7  168.95   10.74
   2  -4  -7  164.21    9.36
   2  -4  -7  162.17    4.01
  -2   4   7  161.39    3.32
  -2   4   8   36.06    6.59
   2  -4  -8   32.33    6.83
  -2   4   8   49.82    5.44
  -2   4   9    0.61    6.10
   2  -4  -9    4.60    4.40
  -2   4   9    0.68    0.69
  -2   4  10  113.84   16.62
   2  -4 -10  114.49   16.34
  -2   4  10  100.70   11.96
  -2   4  10  111.16   13.45
  -2   4  11    6.39    8.91
   2  -4 -11    2.08    4.31
  -2   4  11    7.96    1.76
  -2   4  11    5.83    2.11
  -2   4  12   58.41   10.49
  -2   4  12   58.61    6.89
  -2   4  12   58.74    7.47
  -2   4  13   68.95   11.77
  -2   4  13   81.63    8.79
  -2   4  13   77.98    8.84
  -2   4  14    2.62    7.15
  -2   4  14    1.72    1.20
  -2   4  14    4.26    2.64
  -2   4  15   10.73    7.79
  -2   4  15    3.17    1.72
  -2   4  15    3.94    2.45
  -2   4  16    9.41    7.05
  -2   4  16    2.92    1.90
  -2   4  16    5.91    3.28
  -2   4  17   11.64    8.54
  -2   4  17    0.44    2.54
  -2   4  18   27.05    8.99
  -2   4  18   20.73    6.56
  -2   4  18   22.00    7.99
  -2   4  19    6.36    5.88
  -2   4  19    1.86    1.91
  -2   4  19    1.36    2.64
  -2   4  20    4.55    6.44
  -2   4  20    0.96    1.32
  -2   4  20    2.93    2.77
  -2   4  21    9.09    8.95
  -2   4  21   -0.44    2.81
  -2   4  22   28.11   10.58
  -2   4  22    9.26    4.30
  -2   4  23    1.63    5.16
  -2   4  23    3.49    2.84
  -2   4  24   31.36   10.75
  -2   4  24   20.26    8.26
  -2   4  25   -0.31    5.59
  -2   4  26    9.23    6.48
   2  -3  27   10.71    6.22
   2  -3  27   18.61   12.97
   2  -3  26    9.80    6.14
   2  -3  26    8.14    8.43
   2  -3  25   14.76    6.75
   2  -3  25   18.99   13.94
   2  -3  24    6.02    6.46
   2  -3  24   10.95    8.72
   2  -3  23   25.44    6.73
   2  -3  23   31.75   15.37
   2  -3  22    9.23    5.12
   2  -3  21   60.66   14.67
   2  -3  21   21.97   12.23
   2  -3  20    3.09    4.92
   2  -3  20    2.84    7.82
   2  -3  19   56.24   11.92
   2  -3  19   45.19   12.75
   2  -3  18   36.58   11.27
   2  -3  18   30.36   11.51
   2  -3  17   11.57    7.14
   2  -3  17    8.16    9.52
   2  -3  16  199.98   18.25
   2  -3  16  197.01   23.32
   2  -3  15   14.26    8.09
  -2   3 -15   11.67    6.03
   2  -3  15    3.52    8.48
   2  -3  14  128.30   10.98
  -2   3 -14  135.33   10.32
   2  -3  14  124.72   15.65
   2  -3  13    7.46    4.60
  -2   3 -13   11.79    3.88
   2  -3  13    5.99    7.67
   2  -3  12   25.94    6.30
  -2   3 -12   41.44    8.34
   2  -3  12   29.96    9.62
   2  -3  11   43.63    8.03
  -2   3 -11   48.70    8.27
   2  -3  11   36.24    9.86
   2  -3  10  135.80    7.42
  -2   3 -10  121.74    5.71
   2  -3  10  127.29   11.69
  -2   3 -10  132.73    7.83
   2  -3   9   20.76    5.52
  -2   3  -9   18.19    5.90
   2  -3   9   25.03   11.64
  -2   3  -9   19.34    4.78
   2  -3   8   64.95   12.76
  -2   3  -8   57.20    7.18
   2  -3   8   31.07   14.10
  -2   3  -8   87.91   11.59
   2  -3   7 1123.97   14.46
   2  -3   7 1110.81   22.93
   2  -3   6   78.21    9.25
  -2   3  -6   84.22    9.63
   2  -3   6   62.34   11.37
  -2   3  -6   85.14   12.33
   2  -3   5  110.80    3.85
  -2   3  -5  119.96    3.19
   2  -3   5  117.15   10.33
  -2   3  -5  109.17    6.62
   2  -3   4    5.18    1.75
  -2   3  -4    1.68    1.13
   2  -3   4    2.42    5.12
  -2   3  -4   13.88    5.45
   2  -3   3   60.05    7.53
  -2   3  -3   54.55    9.66
   2  -3   2    0.48    5.43
  -2   3  -2   -0.24    3.42
   2  -3   1  479.48   14.68
   2  -3   1  488.09   18.20
  -2   3  -1  485.07   17.36
  -2   3   0  205.53    7.86
   2  -3   0  213.35    8.39
   2  -3   0  206.76   12.05
  -2   3   0  212.21   10.13
  -2   3   1  232.36    9.40
   2  -3  -1  233.89    9.51
   2  -3  -1  236.38   11.05
  -2   3   1  234.14    9.62
  -2   3   2 2472.06   24.47
   2  -3  -2 2470.72   24.42
   2  -3  -2 2416.12   22.88
  -2   3   2 2537.03   24.26
  -2   3   3 1445.63   28.61
   2  -3  -3 1392.73   16.56
   2  -3  -3 1479.81   14.23
  -2   3   3 1456.07   14.68
  -2   3   4   -8.23    4.19
   2  -3  -4   -7.88    4.04
   2  -3  -4    0.32    0.65
  -2   3   4    0.20    0.96
  -2   3   5   63.07    5.26
   2  -3  -5   53.15    8.40
   2  -3  -5   57.73    5.82
  -2   3   5   64.29    2.41
  -2   3   6   -1.56    4.46
   2  -3  -6   -6.02    4.22
  -2   3   7  589.31   22.11
   2  -3  -7  538.65   20.04
  -2   3   7  541.57   16.78
  -2   3   8  146.87    8.95
   2  -3  -8  120.95    8.23
  -2   3   8  144.85    2.85
  -2   3   8  139.91    3.55
  -2   3   9    7.54    5.47
   2  -3  -9    7.25    4.22
  -2   3   9    7.42    1.63
  -2   3   9    5.10    1.33
  -2   3  10   13.35    8.01
   2  -3 -10    4.59    4.12
  -2   3  10    6.51    1.71
  -2   3  10    6.28    2.69
  -2   3  11   21.25    6.19
   2  -3 -11   25.35    6.99
  -2   3  11   22.22    4.23
  -2   3  11   12.34    2.65
  -2   3  12   23.01    7.40
  -2   3  12   33.79    6.06
  -2   3  12   25.48    5.60
  -2   3  13   10.80    5.35
  -2   3  13   18.06    3.97
  -2   3  13   20.63    4.20
  -2   3  14   88.66   15.95
  -2   3  14   64.82   16.05
  -2   3  14   71.87    9.27
  -2   3  15  449.31   31.37
  -2   3  15  397.24   22.98
  -2   3  15  395.19   23.48
  -2   3  16   45.67   11.73
  -2   3  16   30.93   10.96
  -2   3  16   41.33    9.96
  -2   3  17   29.00   10.34
  -2   3  17   18.49    6.83
  -2   3  17   31.76    7.86
  -2   3  18    4.53    5.71
  -2   3  18   25.67    7.45
  -2   3  18    6.91    4.30
  -2   3  19    5.89    5.76
  -2   3  19    2.24    1.63
  -2   3  19    3.83    3.13
  -2   3  20    5.37    6.48
  -2   3  20    0.38    0.89
  -2   3  20    7.98    3.38
  -2   3  21   39.63   11.63
  -2   3  21   35.92   11.44
  -2   3  22   21.25   11.80
  -2   3  22    9.07    4.98
  -2   3  23   12.78    7.74
  -2   3  23    5.39    4.61
  -2   3  24   15.69    7.74
  -2   3  24    7.09    4.07
  -2   3  25   35.30   11.10
  -2   3  26   11.32    6.71
   2  -2  27    0.72    4.50
   2  -2  27    7.55   10.57
   2  -2  26   10.90    6.44
   2  -2  26    8.00    6.93
   2  -2  25   32.87   11.18
   2  -2  25   26.85   16.27
   2  -2  24   11.46    6.72
   2  -2  24   13.16    8.98
   2  -2  23   23.94    8.40
   2  -2  23   27.10    9.13
   2  -2  22  300.02   25.55
   2  -2  21    5.84    5.53
   2  -2  20  383.16   29.08
   2  -2  20  393.78   31.99
   2  -2  19    4.48    5.92
   2  -2  19    3.86    8.40
   2  -2  18   51.73   13.65
   2  -2  17   64.77   15.63
   2  -2  17   79.09   17.67
   2  -2  16    5.87    8.50
   2  -2  16   10.20    7.88
   2  -2  15   10.92    8.15
  -2   2 -15    7.67    3.96
   2  -2  15   11.64   10.35
   2  -2  14  173.64   12.43
  -2   2 -14  146.20   10.60
   2  -2  14  155.12   16.28
   2  -2  13   83.71   13.05
  -2   2 -13   61.50    8.41
   2  -2  13   69.54   12.57
   2  -2  12   75.58   11.73
  -2   2 -12   96.94   11.78
   2  -2  12   88.03   13.10
   2  -2  11    4.31    4.06
  -2   2 -11   -0.90    2.69
   2  -2  11    8.19    5.72
   2  -2  10  211.32    8.53
  -2   2 -10  208.89    6.76
   2  -2  10  210.85   11.98
   2  -2   9  237.47   12.32
  -2   2  -9  236.35   10.81
   2  -2   9  236.55   14.57
   2  -2   8   87.41   11.05
  -2   2  -8   93.58   11.10
   2  -2   8   80.99   13.91
   2  -2   7  416.96   15.34
  -2   2  -7  424.58   14.76
   2  -2   7  401.02   17.82
   2  -2   6   11.06    5.22
  -2   2  -6   11.30    2.50
   2  -2   6   10.46    7.91
   2  -2   5   28.45    4.85
  -2   2  -5   32.06    5.07
   2  -2   5   25.38    6.87
   2  -2   4    1.42    1.85
  -2   2  -4    6.51    2.19
   2  -2   4    5.95    6.68
  -2   2  -4    1.42    3.57
   2  -2   3  310.52   10.03
   2  -2   3  303.85   13.86
  -2   2  -3  283.32   30.29
   2  -2   2  384.47   11.97
   2  -2   2  388.96   11.96
   2  -2   2  388.22   15.66
  -2   2  -2  357.24   13.52
  -2   2  -1   57.76    2.95
   2  -2   1   66.04    2.25
   2  -2   1   65.26    4.93
  -2   2  -1   47.63    7.44
  -2   2   0  113.51    3.38
   2  -2   0  119.77    3.81
   2  -2   0  125.61    6.46
  -2   2   0  116.28    4.79
  -2   2   1  345.40   11.99
   2  -2  -1  353.30   12.30
   2  -2  -1  361.19   13.01
  -2   2   2 1165.83   14.21
   2  -2  -2 1173.72   14.52
   2  -2  -2 1176.01   13.04
  -2   2   3  566.43   19.34
   2  -2  -3  565.61   19.97
   2  -2  -3  534.75   16.75
  -2   2   4  193.91    9.54
   2  -2  -4  201.38   10.26
  -2   2   5  414.77   16.05
   2  -2  -5  418.72   15.85
  -2   2   6   59.48    9.19
   2  -2  -6   63.69    8.94
  -2   2   7    6.60    7.67
   2  -2  -7   17.40    7.09
  -2   2   8  238.19   12.86
   2  -2  -8  213.88   11.41
  -2   2   8  221.10    8.24
  -2   2   8  225.51    8.68
  -2   2   9   19.12    9.62
   2  -2  -9    9.75    3.77
  -2   2   9   10.41    3.35
  -2   2   9    8.19    2.01
  -2   2  10  226.12   12.97
   2  -2 -10  243.51   12.94
  -2   2  10  238.33   10.57
  -2   2  11    3.13    5.95
   2  -2 -11    2.15    4.27
  -2   2  11    3.41    1.37
  -2   2  11    1.32    2.96
  -2   2  12  476.05   22.26
  -2   2  12  463.08   17.76
  -2   2  12  467.82   17.01
  -2   2  13  156.35   15.24
  -2   2  13  158.38   11.03
  -2   2  13  144.36   10.20
  -2   2  14  676.13   25.98
  -2   2  14  626.27   18.64
  -2   2  14  646.16   19.77
  -2   2  15   10.50   12.24
  -2   2  15    3.28    2.27
  -2   2  15    5.31    4.85
  -2   2  16  660.80   40.32
  -2   2  16  667.54   38.16
  -2   2  17   13.31   10.31
  -2   2  17    7.55    2.67
  -2   2  17    9.82    5.47
  -2   2  18  179.01   18.95
  -2   2  18   58.92   22.61
  -2   2  18  143.42   13.69
  -2   2  19   25.95   11.20
  -2   2  19    5.30    1.98
  -2   2  19   15.28    7.58
  -2   2  20    6.19    6.29
  -2   2  20    2.20    1.77
  -2   2  20    4.03    5.32
  -2   2  21    1.10    5.82
  -2   2  21    6.22    4.88
  -2   2  22   14.91   10.11
  -2   2  22    7.06    4.38
  -2   2  23    9.83    7.20
  -2   2  23    7.44    4.93
  -2   2  24   47.22   14.89
  -2   2  24   39.92   11.53
  -2   2  25    7.82    5.57
  -2   2  25    1.99    2.94
  -2   2  26   35.96   15.55
  -2   2  27    1.08    5.84
   2  -1  27    5.37    5.20
   2  -1  27   11.93    7.68
   2  -1  26    0.78    5.14
   2  -1  26    7.31   10.07
   2  -1  25   13.45    6.91
   2  -1  25    0.18    7.08
   2  -1  24    7.60    5.04
   2  -1  24   24.35   11.58
   2  -1  23   47.94   10.58
   2  -1  23   34.20   13.19
   2  -1  22   11.66    7.52
   2  -1  22   15.62    9.96
   2  -1  21  162.23   22.71
   2  -1  20   27.52   12.40
   2  -1  20   18.86    9.78
   2  -1  19   48.91   12.41
   2  -1  19   43.04   12.55
   2  -1  18   11.30    7.00
   2  -1  18   18.95    8.77
   2  -1  17   10.36    9.47
   2  -1  16    7.85    6.67
   2  -1  16   -2.79    6.78
   2  -1  15   47.06   10.96
  -2   1 -15   39.10    7.72
   2  -1  15   42.25   10.99
   2  -1  14   33.37   10.29
  -2   1 -14   33.61    8.66
   2  -1  14   19.56    5.75
   2  -1  13   75.92   13.26
  -2   1 -13   69.05    9.05
   2  -1  13   75.25   12.65
   2  -1  12    5.84    5.47
  -2   1 -12    3.41    2.64
   2  -1  12    7.18    7.77
   2  -1  11  213.19   15.14
  -2   1 -11  184.37   10.86
   2  -1  11  211.34   16.59
   2  -1  10   92.53    7.25
  -2   1 -10   88.24    5.78
   2  -1  10  110.32    8.99
   2  -1   9 1156.62   18.34
  -2   1  -9 1201.08   17.06
   2  -1   9 1105.57   22.00
   2  -1   8   17.36    7.01
  -2   1  -8    4.40    2.91
   2  -1   8   13.11    8.55
   2  -1   7  528.31   18.73
  -2   1  -7  535.43   18.32
   2  -1   7  549.08   21.79
   2  -1   6  372.74   13.63
  -2   1  -6  381.68   13.38
   2  -1   6  371.40   15.87
   2  -1   5  131.00    5.51
  -2   1  -5  131.22    4.36
   2  -1   5  133.07    8.28
   2  -1   4  262.49    9.98
  -2   1  -4  282.18   29.40
   2  -1   4  270.96   12.27
   2  -1   3  268.92    9.89
  -2   1  -3  264.82    9.97
   2  -1   3  251.65   11.72
   2  -1   2  110.51    3.30
  -2   1  -2  123.24    3.92
   2  -1   1  288.63   29.98
   2  -1   1  298.83   10.15
  -2   1   0  139.81   15.07
   2  -1   0  142.68    6.15
   2  -1  -1 5155.75   44.44
  -2   1   2  457.37   15.79
   2  -1  -2  518.98   17.56
   2  -1  -2  474.72   15.32
  -2   1   3 3209.81   31.73
   2  -1  -3 3240.63   31.48
   2  -1  -3 3347.55   28.14
  -2   1   4  960.90   14.59
   2  -1  -4  953.08   14.51
   2  -1  -4  935.57    8.20
  -2   1   5  244.44   11.41
   2  -1  -5  228.43   10.76
  -2   1   6   58.86    5.64
   2  -1  -6   54.97    8.83
  -2   1   7  416.18   16.82
   2  -1  -7  413.47   17.07
  -2   1   7  436.02   13.87
  -2   1   8   54.74    8.58
   2  -1  -8   53.88    7.98
  -2   1   8   62.10    7.25
  -2   1   9    2.17    5.66
   2  -1  -9    8.10    6.32
  -2   1   9    6.03    3.12
  -2   1  10   90.25    7.93
   2  -1 -10   83.23    9.81
  -2   1  10   82.14    7.59
  -2   1  11    4.86    6.23
   2  -1 -11   10.34    3.76
  -2   1  11   13.32    3.14
  -2   1  12  273.66   20.42
   2  -1 -12  253.53   19.40
  -2   1  12  251.95   16.91
  -2   1  13    5.09    5.97
  -2   1  13    3.22    2.96
  -2   1  13    0.20    2.80
  -2   1  14   16.43    8.77
  -2   1  14    5.87    2.36
  -2   1  14   11.91    4.59
  -2   1  15  125.69   15.00
  -2   1  15  139.87   13.16
  -2   1  16    9.81    8.73
  -2   1  16    6.63    3.47
  -2   1  16    1.02    4.28
  -2   1  17   59.06   13.00
  -2   1  17   34.94   12.45
  -2   1  17   65.14   13.05
  -2   1  18   15.91    7.12
  -2   1  18    5.20    3.29
  -2   1  18    3.01    5.31
  -2   1  19  249.10   17.28
  -2   1  19  216.11   12.34
  -2   1  20    3.45    5.68
  -2   1  20    1.59    2.61
  -2   1  20   -0.23    3.92
  -2   1  21   20.30   11.93
  -2   1  21    2.30    2.49
  -2   1  21   19.96   10.65
  -2   1  22   10.35    5.55
  -2   1  22   12.16    5.39
  -2   1  23    0.81    4.80
  -2   1  23    8.75    4.98
  -2   1  24   36.58   11.75
  -2   1  24   27.15    8.79
  -2   1  25   16.69    6.96
  -2   1  25   21.15    9.15
  -2   1  26    7.22    6.11
  -2   1  26    7.48    4.56
  -2   1  27   18.94   10.87
   2   0  27   12.39    7.21
   2   0  27    8.67    7.62
   2   0  26   12.78    8.51
   2   0  26    0.87    7.11
   2   0  25    7.46    6.08
   2   0  25    3.11    7.01
   2   0  24   14.98    7.67
   2   0  24    3.97    6.60
   2   0  23   15.79    9.24
   2   0  23    7.63    6.17
   2   0  22    3.35    6.39
   2   0  22   15.23    7.36
   2   0  21   17.33   11.31
   2   0  21   10.47    9.49
   2   0  20   13.84    9.94
   2   0  20    7.02    6.39
   2   0  19    9.09    7.64
   2   0  19    9.26    8.09
   2   0  18   21.26    8.02
   2   0  18   24.87    8.46
   2   0  17   90.94   17.63
   2   0  16   10.86    7.51
   2   0  15    7.87    6.89
   2   0  15   -0.03    5.16
   2   0  14   15.80    9.48
  -2   0 -14    4.00    3.71
   2   0  14   13.91    7.15
   2   0  13   25.64    7.80
  -2   0 -13   34.82    7.98
   2   0  13   50.60   20.00
   2   0  13   36.43    9.07
   2   0  12  151.56   15.51
  -2   0 -12  168.66   12.42
   2   0  12  314.81   74.37
   2   0  12  177.71   15.42
   2   0  11  244.55   16.55
  -2   0 -11  245.45   13.92
   2   0  11  246.97   17.18
   2   0  10   10.30    5.36
  -2   0 -10   15.36    4.19
   2   0  10   34.89   10.90
   2   0  10    8.57    5.32
   2   0   9  237.08   12.06
  -2   0  -9  253.41   11.40
   2   0   9  251.83   14.43
   2   0   8 1702.32   21.31
  -2   0  -8 1706.88   20.57
   2   0   7    0.82    4.18
  -2   0  -7    6.69    4.16
   2   0   7    0.90    6.84
   2   0   6  107.07    5.55
  -2   0  -6  111.33    4.86
   2   0   6  249.86   35.50
   2   0   5  889.70   13.29
  -2   0  -5  886.51   12.83
   2   0   4  281.82   29.57
  -2   0  -4  275.43   10.99
   2   0   4  329.53   15.37
   2   0   3 3664.90   33.13
   2   0   2    4.19    3.09
  -2   0  -2    8.17    3.81
   2   0   2    5.22    3.64
   2   0   1 1173.04   14.43
  -2   0   0 6195.06   53.62
   2   0   0 6177.59   53.25
  -2   0   1 1089.40   14.43
   2   0  -1 1117.23   14.26
  -2   0   1 1109.16   16.86
   2   0  -1 1150.48   14.03
  -2   0   2    1.86    2.91
   2   0  -2    1.41    2.75
  -2   0   2    5.07    2.03
   2   0  -2    5.28    2.98
  -2   0   3 3521.27   35.18
   2   0  -3 3694.49   36.05
  -2   0   3 3705.50   33.25
   2   0  -3 3688.85   31.77
  -2   0   4  279.50   13.12
   2   0  -4  274.91   11.91
  -2   0   4  286.34   29.69
   2   0  -4  284.58   29.45
  -2   0   5  848.87   15.06
   2   0  -5  888.82   14.99
  -2   0   5  880.83    9.88
   2   0  -5  862.29    9.95
  -2   0   6  116.32    7.18
   2   0  -6  115.13    6.94
  -2   0   6  116.91    3.03
   2   0  -6  113.32    4.58
  -2   0   7    4.07    4.96
   2   0  -7    4.24    6.38
  -2   0   7    5.58    2.28
   2   0  -7    1.66    2.63
  -2   0   8 1687.64   24.97
   2   0  -8 1722.36   24.06
  -2   0   8 1772.49   17.55
   2   0  -8 1734.26   18.13
  -2   0   9  234.17   12.99
   2   0  -9  266.30   13.33
  -2   0   9  273.30   11.16
   2   0  -9  251.45   10.32
  -2   0  10   14.83    6.36
   2   0 -10   15.95    5.01
  -2   0  10   18.95    4.60
   2   0 -10   15.20    3.47
  -2   0  11  225.68   14.68
   2   0 -11  252.03   16.05
  -2   0  11  238.85   13.32
   2   0 -11  234.41   12.64
  -2   0  12  142.14   12.03
   2   0 -12  136.86   11.91
  -2   0  12  147.35   11.97
  -2   0  13   21.05    5.73
  -2   0  13   24.16    6.34
  -2   0  14    8.86    5.57
  -2   0  14   10.39    5.75
  -2   0  15   13.49    6.70
  -2   0  15    1.89    4.72
  -2   0  16   19.02    8.40
  -2   0  16   11.58    7.05
  -2   0  17  102.30   15.31
  -2   0  17   87.20   12.90
  -2   0  18    6.38    5.03
  -2   0  18    4.82    4.63
  -2   0  19   12.10    7.89
  -2   0  19    5.88    4.04
  -2   0  19    0.68    3.66
  -2   0  20   18.00    9.67
  -2   0  20    7.76    7.41
  -2   0  20    5.76    3.68
  -2   0  21   12.66    7.21
  -2   0  21    7.27    3.10
  -2   0  21    9.09    5.40
  -2   0  22    4.98    7.36
  -2   0  22    9.32    6.00
  -2   0  23    7.27    5.52
  -2   0  23    6.15    4.09
  -2   0  24   14.98    8.83
  -2   0  24   10.90    5.16
  -2   0  25   12.64    5.52
  -2   0  25    6.96    4.77
  -2   0  26   14.61    9.40
  -2   0  26    4.43    4.85
  -2   0  27   20.50   10.35
   2   1  27   19.75    9.61
   2   1  27   20.13   12.18
   2   1  26    5.98    5.51
   2   1  26   19.43   12.51
   2   1  25   43.49   12.93
   2   1  25   10.68    6.88
   2   1  24   35.74   12.64
   2   1  24   17.38    8.99
   2   1  23    8.19    6.92
   2   1  23    7.28    6.03
   2   1  22   19.34    8.06
   2   1  22   20.67    8.98
   2   1  21   20.47   12.97
   2   1  21   16.78    9.24
   2   1  20    4.91    6.94
   2   1  20    7.10    6.09
   2   1  19  236.93   17.65
   2   1  19  233.09   16.58
   2   1  18   15.03    9.29
   2   1  18    8.56    6.21
   2   1  17   30.24   10.31
   2   1  17   82.18   12.80
   2   1  16   12.29   12.07
   2   1  15  172.33   18.90
   2   1  14    6.49    9.77
   2   1  14   14.34    4.86
   2   1  13    9.57    9.39
  -2  -1 -13    2.78    3.09
   2   1  13    5.12    5.30
   2   1  12  250.56   20.43
  -2  -1 -12  252.35   17.41
   2   1  12  194.29   31.59
   2   1  12  272.82   20.53
   2   1  11    9.77    5.94
  -2  -1 -11   25.77    5.87
   2   1  11   21.22    7.13
   2   1  10   76.09    9.47
  -2  -1 -10   78.82    7.75
   2   1  10   74.28   14.18
   2   1   9    1.26    5.00
  -2  -1  -9    5.75    4.73
   2   1   9    4.05    6.07
   2   1   8   56.75    9.69
  -2  -1  -8   55.73    7.66
   2   1   8   60.26   15.41
   2   1   7  396.37   15.40
  -2  -1  -7  404.60   15.19
   2   1   6   70.06    4.96
  -2  -1  -6   80.61    5.49
   2   1   6   62.03   11.86
   2   1   5  240.04   10.63
  -2  -1  -5  237.99   10.48
   2   1   5  281.82   31.09
   2   1   4  943.04   13.46
  -2  -1  -4  968.23   14.40
   2   1   4  950.00   17.04
  -2  -1  -3 3242.99   31.84
   2   1   3 3418.99   36.28
   2   1   2  459.40   15.78
  -2  -1  -2  480.41   16.86
  -2  -1  -2  537.47   20.41
   2   1   2  491.98   17.84
   2   1   1 4934.01   44.61
   2   1   0  130.74    5.63
  -2  -1   0  146.55    8.17
   2   1   0  142.14    7.11
  -2  -1   1  293.59   12.24
   2   1  -1  308.15   11.82
  -2  -1   1  288.59   30.32
   2   1  -1  301.77   11.07
  -2  -1   2  111.14    6.28
   2   1  -2  113.57    5.28
  -2  -1   2  115.23    4.69
   2   1  -2  114.24    4.34
  -2  -1   3  262.80   12.90
   2   1  -3  265.22   12.00
  -2  -1   3  250.52   10.03
   2   1  -3  269.59   10.22
  -2  -1   4  275.36   13.31
   2   1  -4  267.22   11.95
  -2  -1   4  268.11   10.36
   2   1  -4  269.15   10.13
  -2  -1   5  144.07   10.19
   2   1  -5  123.60    7.36
  -2  -1   5  134.80    4.30
   2   1  -5  129.29    4.42
  -2  -1   6  383.97   15.66
   2   1  -6  386.08   15.10
  -2  -1   6  387.25   13.00
   2   1  -6  383.24   14.06
  -2  -1   7  566.20   22.05
   2   1  -7  576.01   21.65
  -2  -1   7  560.54   18.65
   2   1  -7  536.10   18.79
  -2  -1   8   17.61    7.44
   2   1  -8   13.78    5.33
  -2  -1   8    3.92    2.41
   2   1  -8    3.55    3.31
   2   1  -9 1147.17   19.68
  -2  -1   9 1174.35   15.10
   2   1  -9 1143.81   15.79
  -2  -1  10   89.66    7.93
   2   1 -10   82.33    9.51
  -2  -1  10  102.37    6.27
   2   1 -10   98.35    5.26
  -2  -1  11  230.72   16.63
   2   1 -11  185.73   12.71
  -2  -1  11  223.05   13.24
   2   1 -11  205.00   11.93
  -2  -1  12    5.90    8.30
   2   1 -12    1.18    4.71
  -2  -1  12    7.38    5.59
   2   1 -12    6.74    3.40
  -2  -1  13   80.69   12.94
  -2  -1  13   66.58   10.06
   2   1 -13   74.60    9.21
  -2  -1  14   22.12    8.01
  -2  -1  14   36.31   10.37
   2   1 -14   37.85    8.75
  -2  -1  15   49.42   11.20
  -2  -1  15   49.72   12.04
  -2  -1  16   16.38    9.65
  -2  -1  16    1.73    5.30
  -2  -1  17    8.21    5.61
  -2  -1  17    9.77    7.22
  -2  -1  18   49.44   13.68
  -2  -1  18   12.77    5.07
  -2  -1  19   37.46   10.10
  -2  -1  19   38.81    9.21
  -2  -1  20   34.06   14.14
  -2  -1  20   14.70    7.03
  -2  -1  21  159.91   19.11
  -2  -1  21  161.49   16.79
  -2  -1  22    1.39    5.61
  -2  -1  22   10.79    5.95
  -2  -1  23   42.13   14.04
  -2  -1  23   52.21   11.01
  -2  -1  24    2.92    4.89
  -2  -1  24    5.30    5.68
  -2  -1  25    3.81    5.43
  -2  -1  25    3.55    4.96
  -2  -1  26    7.00    8.43
  -2  -1  26    9.04    5.18
  -2  -1  27   10.34    9.10
  -2  -1  27    8.53    5.65
   2   2  26   28.80   14.11
   2   2  26   43.48   20.88
   2   2  25    3.21    5.92
   2   2  25    8.71    6.79
   2   2  24   37.95   12.16
   2   2  24   16.28    8.74
   2   2  23   11.67    7.00
   2   2  23    3.63    5.28
   2   2  22    9.36    8.18
   2   2  22   13.34   10.92
   2   2  21    1.73    7.82
   2   2  21    5.91    5.13
   2   2  20    6.17    7.41
   2   2  20    9.38    4.73
   2   2  19   14.29    7.48
   2   2  19   21.33    8.37
   2   2  18  166.66   17.68
   2   2  18  174.48   17.11
   2   2  17   22.46   13.49
   2   2  17   10.38    3.91
   2   2  16  689.58   43.16
   2   2  16  640.46   39.17
   2   2  15    0.34    8.64
   2   2  14  680.30   26.20
   2   2  14  669.81   25.38
   2   2  13  169.67   17.32
  -2  -2 -13  156.55   11.14
   2   2  12  496.14   21.51
  -2  -2 -12  456.08   18.25
   2   2  11    1.43    5.87
  -2  -2 -11    5.95    4.81
   2   2  11    6.83    5.01
   2   2  10  279.98   17.83
  -2  -2 -10  236.73   11.85
   2   2  10  212.05   19.63
   2   2   9    8.31    5.09
  -2  -2  -9    8.63    2.71
   2   2   9    5.73    3.23
   2   2   8  202.44   11.08
  -2  -2  -8  232.76   11.19
   2   2   8  209.41   18.06
   2   2   7   11.60    6.43
  -2  -2  -7    9.13    4.80
   2   2   7    9.63    5.40
   2   2   6   54.83    7.95
  -2  -2  -6   63.21    8.52
  -2  -2  -6   79.64   16.72
   2   2   6   63.55   12.01
   2   2   5  453.24   16.76
  -2  -2  -5  425.79   15.84
  -2  -2  -5  471.08   22.07
   2   2   5  442.80   17.63
   2   2   4  203.87    9.93
  -2  -2  -4  195.81    9.75
  -2  -2  -4  210.11   11.38
   2   2   4  200.90   26.39
   2   2   3  543.82   18.93
  -2  -2  -3  517.65   18.49
  -2  -2  -3  537.13   20.63
   2   2   3  547.11   21.86
   2   2   2 1189.09   17.17
  -2  -2  -2 1195.78   17.37
  -2  -2  -2 1227.19   18.38
   2   2   2 1227.02   18.27
   2   2   1  297.82   12.56
  -2  -2  -1  300.75   12.38
  -2  -2  -1  303.92   13.00
   2   2   1  308.96   12.58
   2   2   0  128.73   17.18
   2   2   0  129.34    6.39
  -2  -2   0  123.61    6.32
   2   2   0  121.79    5.38
  -2  -2   1   69.42   11.69
   2   2  -1   65.54    4.83
  -2  -2   1   74.24    5.23
   2   2  -1   61.47    4.48
  -2  -2   2  391.84   15.14
   2   2  -2  410.30   15.55
  -2  -2   2  390.89   14.19
   2   2  -2  393.64   13.79
  -2  -2   3  310.24   13.33
   2   2  -3  302.89   12.44
  -2  -2   3  319.74   11.87
   2   2  -3  313.85   11.25
  -2  -2   4    0.69    3.87
   2   2  -4   11.90    5.66
  -2  -2   4    8.25    3.89
   2   2  -4    2.01    2.26
  -2  -2   5   34.89    7.44
   2   2  -5   38.20    8.23
  -2  -2   5   34.03    5.51
   2   2  -5   29.18    5.24
  -2  -2   6   17.36    7.45
   2   2  -6   11.69    4.40
  -2  -2   6   14.15    4.57
   2   2  -6    9.36    4.95
  -2  -2   7  405.99   17.58
   2   2  -7  432.15   17.17
  -2  -2   7  410.59   14.64
   2   2  -7  434.22   16.67
  -2  -2   8   97.45   13.23
   2   2  -8   83.32   10.99
  -2  -2   8   90.42   11.06
   2   2  -8   90.47   11.92
  -2  -2   9  217.91    9.82
   2   2  -9  229.07   12.96
  -2  -2   9  252.99   11.72
   2   2  -9  254.70   12.57
  -2  -2  10  238.75   14.86
   2   2 -10  242.82   13.29
  -2  -2  10  231.28   14.41
   2   2 -10  230.06   11.92
  -2  -2  11    9.54    7.73
   2   2 -11    4.15    4.32
  -2  -2  11    5.98    5.64
   2   2 -11    9.28    5.28
  -2  -2  12   88.29   12.42
   2   2 -12   80.01   12.06
  -2  -2  12  101.90    8.12
   2   2 -12  107.04    7.18
  -2  -2  13   67.77   11.33
  -2  -2  13   74.90   11.22
   2   2 -13   74.84    9.81
  -2  -2  14  151.98   13.69
  -2  -2  14  172.31   10.89
   2   2 -14  152.55   10.66
  -2  -2  15   12.22    6.43
  -2  -2  15    5.51    5.34
   2   2 -15    4.80    2.57
  -2  -2  16    3.64    6.24
  -2  -2  16    5.76    7.70
   2   2 -16    4.42    2.42
  -2  -2  17   75.83   15.89
  -2  -2  17   72.10   14.97
   2   2 -17   51.39   10.31
  -2  -2  18   34.65   10.24
  -2  -2  18   55.45   14.40
  -2  -2  19    2.06    5.49
  -2  -2  19    9.10    4.81
  -2  -2  20  382.51   30.27
  -2  -2  20  372.49   27.29
  -2  -2  21   11.45    8.56
  -2  -2  21   -0.47    4.09
  -2  -2  22  261.44   23.26
  -2  -2  22  232.01   19.35
  -2  -2  23   18.02   10.67
  -2  -2  23   16.56    9.12
  -2  -2  24   34.27   11.49
  -2  -2  24   15.96    8.06
  -2  -2  25   24.08   10.26
  -2  -2  25   31.23    9.60
  -2  -2  26    3.80    5.61
  -2  -2  26    8.38    6.31
  -2  -2  27   14.18    9.28
  -2  -2  27   -0.19    3.01
   2   3  26    0.51    5.36
   2   3  26    6.96    5.94
   2   3  25   25.00   11.10
   2   3  25   30.96   10.96
   2   3  24   14.04    9.95
   2   3  24   27.96   11.02
   2   3  23    7.14    6.59
   2   3  23    6.71    7.38
   2   3  22   22.72   13.19
   2   3  22   14.43    8.15
   2   3  21   36.71   10.54
   2   3  21   65.90   16.21
   2   3  20    0.85    7.57
   2   3  20   -0.03    4.30
   2   3  19    8.15    7.72
   2   3  19    1.93    4.89
   2   3  18   10.84    8.31
   2   3  18    4.04    5.20
   2   3  17   20.92    8.48
   2   3  17   21.04    7.43
   2   3  16   40.31   14.15
   2   3  16   51.38   11.87
   2   3  15  415.95   29.09
   2   3  14   55.27   13.74
   2   3  13   16.48    7.66
   2   3  12   20.11    7.79
  -2  -3 -12   27.98    5.83
   2   3  12   17.05    9.76
   2   3  11   13.37    5.02
  -2  -3 -11   25.11    5.54
   2   3  11   16.90    6.61
   2   3  10    2.81    5.03
  -2  -3 -10    6.14    2.10
   2   3  10    9.95    4.41
   2   3   9    6.20    4.81
  -2  -3  -9    2.43    1.40
  -2  -3  -9    7.85    8.58
   2   3   9   11.57    4.47
   2   3   8  151.79    9.43
  -2  -3  -8  154.83    7.35
  -2  -3  -8  363.16   64.74
   2   3   8  128.57   21.07
   2   3   7  631.40   12.93
  -2  -3  -7  595.20   21.77
  -2  -3  -7  667.94   18.35
   2   3   7  589.98   23.00
   2   3   6    3.75    5.50
  -2  -3  -6   -0.11    3.23
  -2  -3  -6    1.27    4.18
   2   3   6    4.15    3.69
   2   3   5   64.00    6.96
  -2  -3  -5   66.60    7.00
  -2  -3  -5   68.07   12.71
   2   3   5   56.51   12.94
   2   3   4    6.79    6.35
  -2  -3  -4    6.94    5.79
  -2  -3  -4    4.24    2.89
   2   3   4    1.37    5.39
   2   3   3 1443.94   19.73
  -2  -3  -3 1455.73   20.42
  -2  -3  -3 1416.03   21.78
   2   3   3 1399.94   21.81
   2   3   2 2605.62   29.64
  -2  -3  -2 2620.71   30.32
  -2  -3  -2 2545.78   30.73
   2   3   2 2646.18   30.74
   2   3   1  257.91   12.84
  -2  -3  -1  255.96   12.80
  -2  -3  -1  253.65   12.19
   2   3   1  264.36   11.80
   2   3   0  200.01   29.75
   2   3   0  219.34   11.87
  -2  -3   0  209.18   10.71
   2   3   0  217.90   10.22
   2   3  -1  489.21   17.97
   2   3  -1  499.57   18.62
  -2  -3   1  490.81   17.78
   2   3  -1  497.18   17.46
  -2  -3   2    4.41    2.28
   2   3  -2    4.32    4.04
  -2  -3   2   -0.99    2.87
   2   3  -2    9.36    4.29
  -2  -3   3   57.52    9.90
   2   3  -3   55.99    9.60
  -2  -3   3   52.06    8.02
   2   3  -3   60.00    3.94
  -2  -3   4    5.97    4.65
   2   3  -4   -0.62    3.83
  -2  -3   4    5.37    2.69
   2   3  -4   -0.43    2.50
  -2  -3   5  130.13    9.51
   2   3  -5   96.07    6.53
  -2  -3   5  123.95    5.26
   2   3  -5  125.01    5.90
  -2  -3   6   91.75   12.91
   2   3  -6   84.95   11.94
  -2  -3   6   86.66   10.34
   2   3  -6   85.55   11.14
  -2  -3   7 1104.54   20.31
   2   3  -7 1213.91   20.45
  -2  -3   7 1123.93   15.38
   2   3  -7 1188.44   17.56
  -2  -3   8   71.03   10.40
   2   3  -8   78.73   10.86
  -2  -3   8   63.85    8.23
   2   3  -8   62.49    8.96
  -2  -3   9   18.22    5.90
   2   3  -9   23.74    6.22
  -2  -3   9   25.94    5.90
   2   3  -9   19.38    5.77
  -2  -3  10  142.80    9.44
   2   3 -10  141.35    8.55
  -2  -3  10  132.10    6.40
   2   3 -10  127.59    8.96
  -2  -3  11   49.73    9.65
   2   3 -11   62.63    7.70
  -2  -3  11   52.79    9.24
   2   3 -11   60.24    7.30
  -2  -3  12   31.98    7.90
   2   3 -12   37.60    8.20
  -2  -3  12   36.70    8.14
   2   3 -12   42.15    9.11
  -2  -3  13   13.62    4.11
  -2  -3  13    9.11    4.55
   2   3 -13    7.26    3.82
  -2  -3  14  124.44   12.45
  -2  -3  14  121.88   10.76
   2   3 -14  116.64    9.39
  -2  -3  15    8.25    7.11
  -2  -3  15   11.07    5.89
   2   3 -15   20.47    7.50
  -2  -3  16  214.44   20.57
  -2  -3  16  216.44   19.22
   2   3 -16  200.98   16.96
  -2  -3  17    7.40    6.20
  -2  -3  17    3.03    5.36
   2   3 -17    3.81    2.68
  -2  -3  18   29.67    8.46
  -2  -3  18   27.34    8.40
   2   3 -18   25.63    5.99
  -2  -3  19   76.06   14.77
  -2  -3  19   61.03   12.30
  -2  -3  20    2.65    5.94
  -2  -3  20    8.54    5.07
  -2  -3  21   62.71   16.36
  -2  -3  21   52.46   13.30
  -2  -3  22    6.33    5.55
  -2  -3  22    8.42    4.87
  -2  -3  23   20.71   11.32
  -2  -3  23   23.65    7.07
  -2  -3  24   14.14    8.87
  -2  -3  24    0.91    3.73
  -2  -3  25   13.96    8.32
  -2  -3  25   11.61    5.44
  -2  -3  26   11.21    7.31
  -2  -3  26   14.70    7.36
  -2  -3  27    6.31    5.74
  -2  -3  27   15.23    7.14
   2   4  26    6.55    6.96
   2   4  26    5.61    5.40
   2   4  25    2.13    6.35
   2   4  25    2.45    4.14
   2   4  24    9.95    6.60
   2   4  24   43.67   13.05
   2   4  23    6.58    7.15
   2   4  23   10.73    7.00
   2   4  22   25.27   11.06
   2   4  22   12.69    7.44
   2   4  21   11.34    8.24
   2   4  21    5.68    5.18
   2   4  20    4.63    8.59
   2   4  20   -1.74    4.13
   2   4  19   17.37   12.49
   2   4  19   15.33    9.30
   2   4  18   11.46    8.36
   2   4  18   17.59    7.41
   2   4  17    5.50    8.77
   2   4  17    9.18    5.00
   2   4  16   10.54    8.75
   2   4  15    9.81    8.81
   2   4  14    1.98    8.87
   2   4  13   83.34   15.52
   2   4  12   51.14   10.62
   2   4  12   39.98   11.91
   2   4  11   18.46    8.93
  -2  -4 -11    6.21    2.43
   2   4  11    4.55    3.47
   2   4  10  115.48   16.28
  -2  -4 -10  106.59   13.93
  -2  -4 -10  264.52   52.44
   2   4  10   96.22   23.45
   2   4   9    1.38    5.00
  -2  -4  -9    3.71    2.46
  -2  -4  -9    4.89    4.18
   2   4   9    1.50    2.72
   2   4   8   60.18    9.47
  -2  -4  -8   49.37    6.20
  -2  -4  -8   56.94   17.96
   2   4   8   40.10   10.44
  -2  -4  -7  171.64    7.86
  -2  -4  -7  184.27   30.52
   2   4   7  173.17    8.83
   2   4   6  402.33   16.45
  -2  -4  -6  373.79   15.49
  -2  -4  -6  405.32   42.00
   2   4   6  406.80   17.48
   2   4   5    3.39    6.79
  -2  -4  -5    5.35    3.94
  -2  -4  -5    3.68    3.06
   2   4   5    2.11    3.63
   2   4   4  193.24   10.80
  -2  -4  -4  217.96   12.23
  -2  -4  -4  215.82   35.01
   2   4   4  216.64   12.30
   2   4   3  114.71    7.83
  -2  -4  -3  127.02    7.18
  -2  -4  -3  109.56   22.29
   2   4   3  121.29    7.09
   2   4   2    3.64    6.84
  -2  -4  -2    3.88    4.32
  -2  -4  -2    8.20    5.65
   2   4   2   10.39    5.76
   2   4   1  208.42   10.69
  -2  -4  -1  226.94   11.89
  -2  -4  -1  210.53   11.36
   2   4   1  217.27   10.73
   2   4   0  143.40   17.91
   2   4   0  151.12    9.70
  -2  -4   0  163.68    9.96
   2   4   0  172.92    9.10
   2   4  -1  336.45   15.04
   2   4  -1  300.08   14.06
  -2  -4   1  303.25   12.70
   2   4  -1  328.75   12.98
  -2  -4   2    9.60    3.66
   2   4  -2   13.21    6.04
  -2  -4   2    8.09    3.07
   2   4  -2    5.93    1.92
  -2  -4   3  318.82   24.76
   2   4  -3  309.84   13.78
  -2  -4   3  309.07   12.45
   2   4  -3  310.74   12.22
  -2  -4   4  132.65   22.76
   2   4  -4  152.94   10.72
  -2  -4   4  117.66    6.98
   2   4  -4  113.06    5.62
  -2  -4   5    5.01    6.79
   2   4  -5    4.83    4.20
  -2  -4   5    1.60    2.89
   2   4  -5    2.58    3.68
  -2  -4   6  614.37   24.26
   2   4  -6  607.19   23.08
  -2  -4   6  628.96   11.20
   2   4  -6  620.13   22.26
  -2  -4   7    9.95    5.86
   2   4  -7    9.60    4.86
  -2  -4   7    9.14    3.33
   2   4  -7    6.38    5.26
   2   4  -8  180.77    9.48
  -2  -4   8  204.17    7.63
   2   4  -8  196.40    9.26
  -2  -4   9   11.41    5.30
   2   4  -9    3.42    2.03
  -2  -4   9    5.08    2.25
   2   4  -9   10.87    7.70
  -2  -4  10    9.71    7.72
   2   4 -10    1.65    3.34
  -2  -4  10    5.37    3.28
   2   4 -10   13.56    7.99
  -2  -4  11   41.33    9.20
   2   4 -11   48.41    9.26
  -2  -4  11   39.48    7.47
   2   4 -11   46.61    9.64
  -2  -4  12   31.24    7.89
  -2  -4  12   38.88    9.18
   2   4 -12   38.44    9.29
  -2  -4  13  222.77   20.56
  -2  -4  13  217.06   17.12
   2   4 -13  199.71   16.43
  -2  -4  14   40.10   10.45
  -2  -4  14   25.99    9.66
   2   4 -14   25.44    8.07
  -2  -4  15  109.67   13.85
  -2  -4  15  105.78   14.25
   2   4 -15   87.10   10.53
  -2  -4  16   59.91   14.19
  -2  -4  16   75.35   21.51
   2   4 -16   49.57   10.84
  -2  -4  17    3.80    8.18
  -2  -4  17    4.82    5.76
   2   4 -17    5.53    2.67
  -2  -4  18    7.20    7.04
  -2  -4  18   11.02    7.16
  -2  -4  19    6.90    5.54
  -2  -4  19    3.76    5.05
  -2  -4  20    8.96    5.77
  -2  -4  20   10.60    8.51
  -2  -4  21   10.18    8.52
  -2  -4  21    3.94    4.57
  -2  -4  22   24.50    8.80
  -2  -4  22   37.32   13.39
  -2  -4  23    5.28    5.05
  -2  -4  23    7.35    5.05
  -2  -4  24    5.70    4.95
  -2  -4  24    5.76    4.10
  -2  -4  25    6.36    5.47
  -2  -4  25    9.75    5.77
  -2  -4  26    6.71    5.40
  -2  -4  26    5.74    4.04
  -2  -4  27   10.21    5.47
  -2  -4  27    5.31    3.36
   2   5  25   26.54   12.90
   2   5  24   13.03    9.64
   2   5  24   23.78   10.83
   2   5  23   39.34   15.82
   2   5  23   25.38    6.73
   2   5  22   14.65   10.05
   2   5  22    3.77    4.69
   2   5  21   53.23   12.05
   2   5  21   93.50   14.91
   2   5  20   -2.96    8.37
   2   5  20    7.82    4.89
   2   5  19    6.40    8.55
   2   5  19    8.18    4.73
   2   5  18   22.10   13.67
   2   5  17    6.14    8.29
   2   5  16    6.62    8.49
   2   5  15  252.90   22.87
   2   5  14   16.50    9.76
   2   5  13   59.17   14.25
   2   5  12  126.63   16.84
  -2  -5 -12  237.88   27.04
   2   5  11   55.89   11.68
  -2  -5 -11  117.14   32.34
   2   5  11   45.48    8.38
   2   5  10   14.28    5.74
  -2  -5 -10    6.74    2.24
  -2  -5 -10   16.78    7.74
   2   5  10    9.54    3.67
   2   5   9   17.57    5.83
  -2  -5  -9   21.88    5.62
  -2  -5  -9   30.32    9.06
   2   5   9   27.20    5.54
   2   5   8   19.45    5.83
  -2  -5  -8   17.91    4.59
  -2  -5  -8   23.40    7.57
   2   5   8   17.43    4.70
   2   5   7    8.39    4.50
  -2  -5  -7    5.91    3.15
  -2  -5  -7    5.40    4.38
   2   5   7   13.46    5.13
   2   5   6  107.96    8.89
  -2  -5  -6   99.98    7.43
  -2  -5  -6  105.91   22.51
   2   5   6  112.83    7.39
  -2  -5  -5  630.14   14.31
   2   5   5  582.14   22.18
   2   5   4   10.02    5.92
  -2  -5  -4   10.75    4.05
  -2  -5  -4   16.94    8.09
   2   5   4    6.88    3.03
   2   5   3  160.61   10.02
  -2  -5  -3  165.10    9.88
  -2  -5  -3  190.45   12.89
   2   5   3  168.30   10.13
   2   5   2    3.87    5.18
  -2  -5  -2   10.53    6.16
  -2  -5  -2    3.35    4.37
   2   5   2   10.93    4.66
   2   5   1   49.68    8.78
  -2  -5  -1   69.88    9.63
  -2  -5  -1   44.83   11.03
   2   5   1   62.88    9.17
   2   5   0   12.62    5.84
  -2  -5   0   20.25    6.18
   2   5   0   19.86    5.42
   2   5  -1   10.86    6.28
   2   5  -1    7.00    5.12
  -2  -5   1    6.26    5.36
   2   5  -1   11.80    5.27
   2   5  -2  607.46   23.41
   2   5  -2  542.82   21.59
  -2  -5   2  555.01   20.46
   2   5  -2  579.00   20.81
  -2  -5   3  893.84   20.15
   2   5  -3  866.17   17.22
  -2  -5   3  873.26   15.26
   2   5  -3  923.45   15.17
  -2  -5   4    9.64    5.40
   2   5  -4   13.03    6.21
  -2  -5   4    8.14    3.13
   2   5  -4    6.67    3.71
  -2  -5   5   55.92   13.92
   2   5  -5   28.74    8.18
  -2  -5   5   36.65    8.84
   2   5  -5   36.42   10.16
   2   5  -6  109.38   13.77
  -2  -5   6  119.43   14.22
   2   5  -6  111.82   14.66
   2   5  -7  564.47   23.44
  -2  -5   7  540.33   21.24
   2   5  -7  580.46   23.17
  -2  -5   8  170.27   11.08
   2   5  -8  166.06    8.91
  -2  -5   8  175.23    7.57
   2   5  -8  171.34    9.34
  -2  -5   9   11.36    7.09
   2   5  -9    5.39    3.27
   2   5  -9    5.75    5.60
  -2  -5  10    4.28    4.95
   2   5 -10    5.18    2.88
   2   5 -10   14.94    7.99
  -2  -5  11   15.52    9.04
   2   5 -11    4.63    3.22
   2   5 -11    7.90    7.93
  -2  -5  12   62.45   11.15
  -2  -5  12   68.45    9.89
   2   5 -12   77.99   11.56
  -2  -5  13  957.05   27.96
  -2  -5  13 1027.77   25.37
   2   5 -13  946.96   24.34
  -2  -5  14   47.68   12.47
  -2  -5  14   22.87    8.76
   2   5 -14   17.66    6.77
  -2  -5  15  190.76   18.66
  -2  -5  15  180.32   21.41
   2   5 -15  165.80   15.24
  -2  -5  16    6.47    6.31
  -2  -5  16    1.06    4.87
  -2  -5  17  145.87   15.59
  -2  -5  17  168.12   35.69
  -2  -5  18   83.26   15.22
  -2  -5  18   83.84   18.16
  -2  -5  19   11.16    5.90
  -2  -5  19   24.59   10.69
  -2  -5  20   16.85   10.50
  -2  -5  20    2.70    4.05
  -2  -5  21   -0.60    5.73
  -2  -5  22   12.14    6.19
  -2  -5  22   12.65    4.40
  -2  -5  23   46.80   12.12
  -2  -5  23   35.57   12.84
  -2  -5  24    6.01    6.97
  -2  -5  24    4.27    5.77
  -2  -5  25   90.34   15.49
  -2  -5  25   51.12   13.00
  -2  -5  26    4.52    5.25
  -2  -5  26    6.88    5.59
  -2  -5  27   12.36    6.13
  -2  -5  27   11.74    5.58
   2   6  25   18.80   12.84
   2   6  25    5.53    5.90
   2   6  24    9.14    7.63
   2   6  24   27.92   12.63
   2   6  23   11.48   10.67
   2   6  23    7.47    4.72
   2   6  22   36.93   13.92
   2   6  22   71.67   10.86
   2   6  21   19.95   11.82
   2   6  21   10.44    6.99
   2   6  20   49.17   13.65
   2   6  20   57.93   14.91
   2   6  19    0.50    8.19
   2   6  18   25.78   10.28
   2   6  17    9.57    8.22
   2   6  16    6.30    7.79
   2   6  15    0.16    8.22
   2   6  14   15.75    9.25
   2   6  13    7.30    8.23
  -2  -6 -13    8.82   10.08
   2   6  12  355.30   17.66
  -2  -6 -12  459.49   29.58
   2   6  11   18.28    9.71
  -2  -6 -11    3.58    3.41
   2   6  10  428.36   16.00
  -2  -6 -10  514.62   26.44
   2   6   9   66.84   10.90
  -2  -6  -9   56.34   14.47
   2   6   9   77.45   11.75
   2   6   8  738.80   24.69
  -2  -6  -8  708.21   23.49
  -2  -6  -8  743.98   25.80
   2   6   8  670.21   22.57
   2   6   7    6.41    3.06
  -2  -6  -7   10.87    3.27
  -2  -6  -7   14.74    6.61
   2   6   7    7.27    2.71
   2   6   6   42.81    8.14
  -2  -6  -6   44.73    6.00
  -2  -6  -6   55.40   15.02
   2   6   6   50.83    7.08
   2   6   5   63.51    8.27
  -2  -6  -5   69.22    7.69
  -2  -6  -5   77.01   19.73
   2   6   5   66.74    8.50
   2   6   4  395.82   18.35
  -2  -6  -4  415.54   18.99
   2   6   4  436.31   20.17
   2   6   3   13.53    6.38
  -2  -6  -3   30.67    8.90
  -2  -6  -3   26.39    8.58
   2   6   3   47.92    8.66
   2   6   2  244.58   13.12
  -2  -6  -2  212.10   12.07
  -2  -6  -2  227.92   13.24
   2   6   2  234.74   11.98
   2   6   1  105.49   15.27
  -2  -6  -1   93.46   12.01
  -2  -6  -1   92.25   12.42
   2   6   1   87.86   11.00
   2   6   0   83.83   11.55
  -2  -6   0   88.53   11.68
  -2  -6   0   92.13   12.33
   2   6   0   89.89   11.88
   2   6  -1   23.88    8.28
   2   6  -1   19.95    7.86
  -2  -6   1   17.66    5.96
   2   6  -1   18.47    5.41
   2   6  -2  891.73   19.14
   2   6  -2  908.08   19.37
  -2  -6   2  860.85   17.20
   2   6  -2  866.63   14.96
   2   6  -3  222.88   12.24
   2   6  -3  210.61   12.95
  -2  -6   3  217.71   11.94
   2   6  -3  233.12   12.45
   2   6  -4  793.21   17.90
  -2  -6   4  771.10   15.28
   2   6  -4  774.20   14.28
   2   6  -5   31.30    6.63
  -2  -6   5   38.99    6.24
   2   6  -5   39.89    5.95
  -2  -6   6  353.05   44.55
   2   6  -6  388.70   18.45
  -2  -6   6  389.95   17.85
   2   6  -6  376.87   17.53
  -2  -6   7    6.09    4.83
   2   6  -7   14.88    5.46
  -2  -6   7   12.22    5.32
   2   6  -7    6.57    5.22
  -2  -6   8    9.77    3.72
   2   6  -8    6.92    2.89
  -2  -6   8    9.25    3.86
   2   6  -8   18.12    9.27
  -2  -6   9   23.14    7.63
   2   6  -9    8.23    3.35
  -2  -6   9    5.36    4.00
   2   6  -9   20.72    8.31
  -2  -6  10    2.39    5.01
   2   6 -10    3.19    3.08
  -2  -6  10    5.16    5.45
   2   6 -10   12.69    8.54
  -2  -6  11   15.78    5.02
   2   6 -11   27.97   10.55
  -2  -6  12   42.50   11.63
  -2  -6  12   50.51    9.59
   2   6 -12   30.38    9.83
  -2  -6  13  251.56   14.70
  -2  -6  13  224.26   19.46
   2   6 -13  228.42   20.04
  -2  -6  14   82.44   12.74
  -2  -6  14   80.31   10.21
   2   6 -14   43.31   11.59
  -2  -6  15    4.32    5.71
  -2  -6  15    8.28    6.81
  -2  -6  16  185.06   17.48
  -2  -6  16  172.04   15.89
  -2  -6  17    7.64    7.88
  -2  -6  17    8.25    6.89
  -2  -6  18   60.34   11.85
  -2  -6  18   59.72   11.08
  -2  -6  19    6.71    5.40
  -2  -6  19   15.98    9.78
  -2  -6  20   44.20   13.70
  -2  -6  20   50.10   12.79
  -2  -6  21   18.99    9.67
  -2  -6  21   18.52    7.84
  -2  -6  22    9.15    7.90
  -2  -6  23    5.76    3.85
  -2  -6  23    9.48    6.44
  -2  -6  24    9.65    5.28
  -2  -6  24    6.15    6.52
  -2  -6  25   13.85    8.34
  -2  -6  25   19.45    9.50
  -2  -6  26   14.26    7.23
  -2  -6  26   32.63   11.00
   2   7  24    5.20    8.17
   2   7  24    3.43    4.05
   2   7  23    7.92    8.18
   2   7  23    6.20    4.42
   2   7  22    4.35    7.16
   2   7  22    2.52    4.37
   2   7  21   13.64   11.03
   2   7  21    4.88    6.22
   2   7  20    6.33    7.72
   2   7  19   53.14   16.44
   2   7  18    1.44    8.04
   2   7  17   10.50    8.65
   2   7  16   30.24    9.64
   2   7  15    6.30    8.10
   2   7  14   23.71   13.33
  -2  -7 -14   15.61    9.29
   2   7  13   24.93   11.86
  -2  -7 -13   17.38    8.85
   2   7  12   12.82    7.53
  -2  -7 -12   33.25   10.93
   2   7  11   26.03   12.40
  -2  -7 -11    3.77    4.76
   2   7  10  142.39   14.08
  -2  -7 -10  123.65   25.58
   2   7   9    4.75    5.64
  -2  -7  -9   11.44    5.35
   2   7   9    7.60    3.08
   2   7   8   45.65   10.75
  -2  -7  -8   53.23   12.93
   2   7   8   53.49    8.36
   2   7   7  109.74   11.00
  -2  -7  -7   79.38   10.55
  -2  -7  -7  103.62   19.79
   2   7   7   77.99   10.40
   2   7   6   69.78   11.38
  -2  -7  -6   74.56   10.93
  -2  -7  -6   74.12   17.15
   2   7   6   73.01   10.36
   2   7   5   15.23    7.54
  -2  -7  -5    4.47    2.89
  -2  -7  -5   11.69    6.86
   2   7   5    7.64    3.08
   2   7   4  401.63   19.42
  -2  -7  -4  417.12   19.34
  -2  -7  -4  447.77   21.76
   2   7   4  399.15   18.28
   2   7   3 1141.08   42.49
  -2  -7  -3 1080.44   40.46
  -2  -7  -3 1128.15   42.76
   2   7   3 1113.57   41.09
   2   7   2   65.07    8.96
  -2  -7  -2   75.57    8.89
  -2  -7  -2   80.04   11.11
   2   7   2   54.76   14.60
   2   7   1   18.08    7.53
  -2  -7  -1   18.39    4.89
  -2  -7  -1   23.37    6.09
   2   7   1   10.64    3.63
   2   7   0  453.06   13.15
  -2  -7   0  479.90   20.78
  -2  -7   0  462.35   12.80
   2   7   0  457.39   11.77
   2   7  -1   77.76   17.20
   2   7  -1   92.48    9.43
  -2  -7   1   91.15    6.92
   2   7  -1  109.50    6.99
   2   7  -2  384.70   21.58
   2   7  -2  399.80   20.75
  -2  -7   2  402.24   18.71
   2   7  -2  392.24   17.66
   2   7  -3  290.51   15.68
   2   7  -3  278.33   16.11
  -2  -7   3  292.09   14.62
   2   7  -3  285.22   14.42
   2   7  -4  208.13    9.14
   2   7  -4  207.08   10.69
  -2  -7   4  205.43    8.70
   2   7  -4  208.76    8.34
  -2  -7   5    2.30    3.45
   2   7  -5   20.43    5.57
  -2  -7   5   22.30    5.60
   2   7  -5   25.58    6.68
  -2  -7   6    1.76    2.61
  -2  -7   6    2.50    3.55
   2   7  -6    6.71    5.13
  -2  -7   7  174.56   28.93
   2   7  -7  162.25   11.71
  -2  -7   7  164.65   11.23
   2   7  -7  162.01   12.74
  -2  -7   8    8.83    5.34
   2   7  -8    5.30    2.50
  -2  -7   8   16.48    5.45
   2   7  -8    6.04    5.75
  -2  -7   9   10.87    6.85
   2   7  -9   13.23    4.56
  -2  -7   9   14.80    6.16
   2   7  -9   13.96    5.83
  -2  -7  10   42.11   11.54
  -2  -7  10   35.13    9.98
  -2  -7  11   14.66    5.13
  -2  -7  11    8.78    4.92
   2   7 -11   13.40    5.04
  -2  -7  12    6.76    5.28
  -2  -7  13   34.38    9.70
  -2  -7  13   38.77   10.26
  -2  -7  14   46.72   12.41
  -2  -7  14   40.26   10.78
  -2  -7  15   42.29   11.37
  -2  -7  15   26.85    9.11
  -2  -7  16    9.40    6.42
  -2  -7  16    6.44    5.25
  -2  -7  17    7.83    4.32
  -2  -7  17    2.35    4.96
  -2  -7  18   12.16    7.54
  -2  -7  18    4.92    5.36
  -2  -7  19    5.29    5.08
  -2  -7  19   12.03    7.03
  -2  -7  20   16.83    8.16
  -2  -7  20   10.38    5.43
  -2  -7  21   15.24   10.06
  -2  -7  21   17.70   10.02
  -2  -7  22   21.76   10.40
  -2  -7  22   10.13    4.77
  -2  -7  23    5.28    4.74
  -2  -7  23    8.59    4.47
  -2  -7  24   -0.41    4.43
  -2  -7  24    3.03    3.88
  -2  -7  25    7.89    7.32
  -2  -7  25    6.13    4.04
  -2  -7  26    3.86    5.61
  -2  -7  26    6.39    5.29
   2   8  24   12.86    9.30
   2   8  24    8.60    4.42
   2   8  23    4.79    8.31
   2   8  23    0.25    3.40
   2   8  22   14.70    9.24
   2   8  22    9.68    6.03
   2   8  21    6.99    7.33
   2   8  20   74.50   16.04
   2   8  19   10.78    8.52
   2   8  18  220.50   22.41
   2   8  17   23.55   12.21
   2   8  16   14.57    9.41
   2   8  15   -5.53    7.07
  -2  -8 -15    8.78    9.17
   2   8  14   46.53   13.13
  -2  -8 -14   68.77   20.19
   2   8  13   11.62    7.53
  -2  -8 -13   19.18   11.13
   2   8  12    2.15    6.93
  -2  -8 -12   13.74    6.12
   2   8  11  199.70   22.14
  -2  -8 -11  171.57   41.64
   2   8  10    3.02    7.13
  -2  -8 -10    6.81    3.90
   2   8   9   86.73   13.41
  -2  -8  -9   95.77   24.24
   2   8   8  162.26   14.28
  -2  -8  -8  181.77   36.22
  -2  -8  -7   10.51    6.42
   2   8   6   56.33   10.07
  -2  -8  -6   63.73   15.71
   2   8   6   58.77    8.78
   2   8   5    4.17    5.62
  -2  -8  -5    3.12    2.86
  -2  -8  -5    5.37    4.44
   2   8   5    0.35    2.38
   2   8   4  261.17   16.47
  -2  -8  -4  239.31   14.75
  -2  -8  -4  265.66   17.28
   2   8   4  239.62   14.75
   2   8   3   30.74    7.73
  -2  -8  -3   35.97    8.03
  -2  -8  -3   20.05    6.06
   2   8   3   29.31    6.21
   2   8   2  298.27   11.21
  -2  -8  -2  349.18   15.58
  -2  -8  -2  308.72   14.25
   2   8   2  324.99   13.30
   2   8   1   17.57    5.16
  -2  -8  -1   17.07    4.70
  -2  -8  -1   22.56    5.68
   2   8   1    9.85    2.64
   2   8   0   44.07    8.45
  -2  -8   0   46.34    8.72
   2   8   0   56.83    5.33
   2   8  -1    3.41    2.70
   2   8  -1    4.60    4.61
  -2  -8   1    0.75    4.18
   2   8  -2    9.41    4.41
   2   8  -2   30.42    6.94
  -2  -8   2   23.36    5.40
   2   8  -2   27.14    9.11
   2   8  -3    7.66    2.33
   2   8  -3    9.96    5.32
  -2  -8   3    9.57    2.77
   2   8  -3    4.93    3.44
   2   8  -4   12.19    3.65
   2   8  -4    6.81    3.82
  -2  -8   4    8.11    3.74
   2   8  -4    6.97    5.73
   2   8  -5    9.98    4.90
   2   8  -5    6.57    5.88
  -2  -8   5    4.31    3.59
   2   8  -5    9.26    3.20
  -2  -8   6  236.09   31.93
   2   8  -6  223.78   14.31
  -2  -8   6  220.19   13.74
   2   8  -6  257.77   15.93
  -2  -8   7   89.53   21.65
   2   8  -7   71.43   10.25
  -2  -8   7  112.71   11.00
   2   8  -7   86.20   13.09
  -2  -8   8  112.73   19.67
   2   8  -8   82.76   11.53
  -2  -8   8  103.82   10.41
   2   8  -8   91.90   12.88
  -2  -8   9    8.59    4.84
  -2  -8   9    7.17    4.04
   2   8  -9    2.10    5.00
  -2  -8  10  524.40   20.70
  -2  -8  10  491.04   24.82
  -2  -8  11   17.09    6.41
  -2  -8  11   22.67    7.85
  -2  -8  12   17.78    8.36
  -2  -8  12   13.93    5.42
  -2  -8  13   10.11    5.08
  -2  -8  14    5.93    4.86
  -2  -8  14    7.98    4.53
  -2  -8  15    8.31    4.64
  -2  -8  15   10.40    6.06
  -2  -8  16  102.17   10.05
  -2  -8  16   84.65    9.77
  -2  -8  17    3.66    3.75
  -2  -8  17   15.21    7.39
  -2  -8  18  108.57   13.86
  -2  -8  18   69.23   15.37
  -2  -8  19   23.40    7.18
  -2  -8  19   33.77    9.55
  -2  -8  20  105.00   14.26
  -2  -8  20  112.54   13.09
  -2  -8  21   -1.13    4.47
  -2  -8  21   -1.45    4.39
  -2  -8  22    8.82    6.11
  -2  -8  22    9.53    5.85
  -2  -8  23   16.39    8.46
  -2  -8  23    5.40    5.75
  -2  -8  24    5.51    4.17
  -2  -8  24    3.26    4.87
  -2  -8  25    6.04    4.18
  -2  -8  25    8.11    5.05
  -2  -8  26   39.23   12.61
   2   9  23   18.19   13.74
   2   9  23    1.92    3.78
   2   9  22   21.14   11.17
   2   9  21    6.02    7.04
   2   9  20    4.89    7.43
   2   9  19   89.25   16.54
   2   9  18   21.83   11.25
   2   9  17  261.81   24.02
   2   9  16   15.55    9.50
  -2  -9 -16   12.36   11.14
   2   9  15  302.23   27.18
  -2  -9 -15  622.53  109.62
   2   9  14   -1.92    5.95
  -2  -9 -14    1.29    5.01
   2   9  13    6.61    8.82
  -2  -9 -13    6.66    5.12
   2   9  12   17.45   10.30
  -2  -9 -12   22.09   11.35
   2   9  11   23.91    9.47
  -2  -9 -11   68.96   22.55
   2   9  10   42.16   11.37
  -2  -9 -10   53.49   17.13
   2   9   9  217.38   20.48
  -2  -9  -9  258.20   45.57
   2   9   8  109.81   15.86
  -2  -9  -8   99.28   22.30
   2   9   7  161.14   17.07
  -2  -9  -7  161.40   27.30
   2   9   6  124.91   12.75
  -2  -9  -6  192.12   17.43
   2   9   5  498.19   17.64
  -2  -9  -5  528.21   18.80
   2   9   4    8.45    5.34
  -2  -9  -4   10.86    4.95
   2   9   3    4.27    4.66
  -2  -9  -3   11.66    6.17
   2   9   2   15.81    6.00
  -2  -9  -2    3.69    3.35
  -2  -9  -2    2.33    5.17
   2   9   1   15.11    5.46
  -2  -9  -1    7.13    2.98
  -2  -9  -1    9.35    4.64
   2   9   1    9.94    3.00
   2   9   0  114.38   11.97
  -2  -9   0  118.00   13.26
   2   9   0   91.67   11.28
   2   9  -1  751.75   28.60
   2   9  -1  936.78   34.68
  -2  -9   1  973.47   35.48
   2   9  -1  864.47   31.42
   2   9  -2    7.00    3.42
   2   9  -2   11.29    5.53
  -2  -9   2    4.57    4.03
   2   9  -2   15.81    5.98
   2   9  -3  447.04   28.89
   2   9  -3  498.97   21.74
  -2  -9   3  515.61   21.43
   2   9  -3  455.22   18.81
   2   9  -4   24.58    5.97
   2   9  -4   27.22    6.83
  -2  -9   4   42.51   10.79
   2   9  -4   12.84    3.72
   2   9  -5   26.06    5.98
   2   9  -5   11.80    6.22
  -2  -9   5   15.88    4.90
   2   9  -6    6.33    2.45
   2   9  -6    1.32    5.43
  -2  -9   6    5.81    4.28
  -2  -9   7  358.96   31.61
  -2  -9   7  338.88   13.11
  -2  -9   8  163.08   27.91
  -2  -9   8  179.64   15.28
  -2  -9   9    6.85    4.50
  -2  -9   9    3.53    4.25
  -2  -9  10  132.62   32.38
  -2  -9  10  167.50   16.48
  -2  -9  11   38.05   12.12
  -2  -9  11   43.29   13.18
  -2  -9  12   13.98    7.15
  -2  -9  12    5.34    4.45
  -2  -9  13  159.12   15.56
  -2  -9  14   19.87    7.39
  -2  -9  14   19.44    8.06
  -2  -9  15    8.81    4.60
  -2  -9  15    8.47    6.23
  -2  -9  16    5.17    4.05
  -2  -9  16    2.61    4.35
  -2  -9  17  308.99   25.40
  -2  -9  17  288.47   23.02
  -2  -9  18   10.91    7.21
  -2  -9  18    5.83    6.95
  -2  -9  19  270.27   23.06
  -2  -9  19  280.38   22.33
  -2  -9  20   -0.92    4.56
  -2  -9  20    2.68    4.39
  -2  -9  21   15.75    5.63
  -2  -9  21   14.05    6.50
  -2  -9  22   11.95    5.79
  -2  -9  22   10.42    6.09
  -2  -9  23   15.25    6.39
  -2  -9  23   10.53    4.66
  -2  -9  24    6.67    5.89
  -2  -9  24   11.92    5.81
  -2  -9  25    1.62    3.50
  -2  -9  25    6.24    5.14
   2  10  22   35.69   17.75
   2  10  21   19.02   13.35
   2  10  20   12.38    7.97
   2  10  19    8.06    7.06
   2  10  18   27.17   12.90
   2  10  17   -0.92    7.46
  -2 -10 -17   19.20   16.27
   2  10  16   21.43   11.91
  -2 -10 -16   22.17   15.89
   2  10  15    9.69    7.18
  -2 -10 -15   13.13    7.74
   2  10  14   33.34   13.49
  -2 -10 -14    4.84    7.49
   2  10  13    7.76    5.92
  -2 -10 -13    6.05    6.99
   2  10  12    5.58    5.61
  -2 -10 -12    3.48    4.68
   2  10  11   14.88    6.38
  -2 -10 -11   14.97    8.87
   2  10  10   16.17    6.90
  -2 -10 -10    8.64    5.78
   2  10   9   98.74   14.41
  -2 -10  -9  131.18   34.39
   2  10   8    5.36    6.18
  -2 -10  -8    4.80    4.39
   2  10   7    5.26    9.18
  -2 -10  -7    2.21    4.61
   2  10   6  254.45   14.52
  -2 -10  -6  255.22   16.64
   2  10   5    5.49    7.72
  -2 -10  -5    3.67    5.42
   2  10   4  315.31   16.02
  -2 -10  -4  312.91   16.66
   2  10   3   11.75    7.24
  -2 -10  -3    4.51    5.33
   2  10   2   36.40    9.56
  -2 -10  -2   48.09   10.63
   2  10   1  194.61   16.57
  -2 -10  -1  175.20   10.91
   2  10   0  193.04   17.10
  -2 -10   0  174.36   14.71
   2  10  -1   15.89    7.48
  -2 -10   1    7.99    7.86
   2  10  -2   89.96   12.63
  -2 -10   2  110.63   13.61
   2  10  -3   89.38   12.57
  -2 -10   3   94.46   10.39
   2  10  -4  272.39   21.36
  -2 -10   4  323.26   18.21
   2  10  -5   48.02    9.20
  -2 -10   5   53.99    9.52
   2  10  -6  452.83   17.88
  -2 -10   6  447.25   16.27
   2  10  -7   44.51   10.25
  -2 -10   7   49.81   10.43
  -2 -10   8  284.71   44.89
  -2 -10   8  410.55   17.52
  -2 -10   9  145.66   33.54
  -2 -10   9  183.41   17.99
  -2 -10  10    1.60    7.84
  -2 -10  10   10.12    6.00
  -2 -10  11  397.37   40.35
  -2 -10  11  401.73   30.76
  -2 -10  12   12.69    7.03
  -2 -10  12    1.88    5.13
  -2 -10  13   13.85    6.85
  -2 -10  13   10.72    6.92
  -2 -10  14   11.00    4.99
  -2 -10  15   48.52   10.36
  -2 -10  15   39.77   10.52
  -2 -10  16    4.78    4.27
  -2 -10  16   -0.37    4.33
  -2 -10  17   51.97   13.55
  -2 -10  18    8.10    6.46
  -2 -10  18    3.27    4.54
  -2 -10  19    6.17    5.00
  -2 -10  19   27.92    8.33
  -2 -10  20   12.02    5.58
  -2 -10  20   15.95    6.52
  -2 -10  21    7.01    5.03
  -2 -10  21    5.18    4.06
  -2 -10  22    8.35    4.95
  -2 -10  22    8.70    5.84
  -2 -10  23    9.64    5.91
  -2 -10  23   10.09    6.99
  -2 -10  24   14.66    7.55
  -2 -10  24   14.19    7.88
   2  11  21   14.80   13.19
   2  11  20   16.05   11.74
   2  11  19    1.29    7.00
   2  11  18   17.45   11.26
   2  11  17    6.59    7.36
  -2 -11 -17   45.66   21.06
   2  11  16    5.59    7.33
  -2 -11 -16    3.78    3.46
   2  11  15   21.80   10.01
  -2 -11 -15    4.98    6.43
   2  11  14    9.05    6.60
  -2 -11 -14    5.92    5.88
   2  11  13    7.95    6.10
  -2 -11 -13    9.98    5.71
   2  11  12   22.61   11.22
  -2 -11 -12    7.47    5.72
   2  11  11   28.58    8.17
  -2 -11 -11   26.27   13.55
   2  11  10    7.56    7.72
  -2 -11 -10    5.76    3.98
   2  11   9   67.16   12.46
  -2 -11  -9   71.55   21.62
   2  11   8    6.74    5.74
  -2 -11  -8    6.93    5.86
   2  11   7    9.63    6.31
  -2 -11  -7    9.12    5.83
   2  11   6   75.95   16.70
  -2 -11  -6  110.66   15.02
   2  11   5   81.20   10.41
  -2 -11  -5   85.60   11.64
   2  11   4   43.67   12.01
  -2 -11  -4   66.70   16.01
   2  11   3  157.14   15.43
  -2 -11  -3  158.47   15.85
   2  11   2   11.95    4.98
  -2 -11  -2   15.54    5.70
   2  11   1    5.22    5.45
  -2 -11  -1    3.39    6.04
   2  11   0  222.82   21.09
  -2 -11   0  214.30   19.21
   2  11  -1  190.13   17.88
  -2 -11   1  172.06   16.54
   2  11  -2   24.98    8.77
  -2 -11   2   45.62   12.16
   2  11  -3  535.82   22.14
  -2 -11   3  492.59   20.85
   2  11  -4  163.57   15.62
  -2 -11   4  221.51   20.36
   2  11  -5  319.85   16.27
  -2 -11   5  325.23   16.19
   2  11  -6   94.03   11.76
  -2 -11   6   85.38   11.28
   2  11  -7   25.15   10.13
  -2 -11   7   21.57    9.39
   2  11  -8  187.08   18.60
  -2 -11   8  186.37   17.18
  -2 -11   9    2.09    5.01
  -2 -11  10   27.32   11.56
  -2 -11  10   16.71    7.81
  -2 -11  11    0.99    4.30
  -2 -11  11   11.22    8.20
  -2 -11  12   36.60   14.48
  -2 -11  12   39.04   12.99
  -2 -11  13   25.20    9.27
  -2 -11  14   82.51   22.69
  -2 -11  15   19.63    9.71
  -2 -11  15   17.01    9.06
  -2 -11  16   32.94   13.54
  -2 -11  16   33.84   13.51
  -2 -11  17   48.54   13.56
  -2 -11  17   41.60   11.66
  -2 -11  18   10.96    7.39
  -2 -11  18    7.18    4.93
  -2 -11  19   11.60    8.23
  -2 -11  19    3.04    4.22
  -2 -11  20    1.27    4.35
  -2 -11  20    4.37    4.20
  -2 -11  21    7.60    4.46
  -2 -11  21   10.44    4.62
  -2 -11  22    3.30    5.83
  -2 -11  22    9.89    4.94
  -2 -11  23   27.07   11.92
  -2 -11  23   14.64    8.85
  -2 -11  24    8.69    5.97
  -2 -11  24   12.56    7.76
   2  12  20   11.26    8.85
   2  12  19    8.74    7.07
   2  12  18    6.74    6.49
  -2 -12 -18   10.09    9.46
   2  12  17    7.95    6.60
  -2 -12 -17    3.67   11.50
   2  12  16   17.23    7.28
  -2 -12 -16   14.36   10.08
   2  12  15   16.28   12.47
  -2 -12 -15   46.40   12.86
   2  12  14  143.72   16.91
   2  12  13   23.44   12.03
  -2 -12 -13    8.10    5.96
   2  12  12   76.51   12.62
  -2 -12 -12   59.32   19.40
   2  12  11   31.95   11.85
  -2 -12 -11   72.41   24.24
   2  12  10    9.47    7.96
  -2 -12 -10    6.05    5.65
   2  12   9    1.39    4.60
  -2 -12  -9   17.36    8.59
   2  12   8    4.62    4.67
  -2 -12  -8   17.97    8.73
   2  12   7   70.04   13.77
  -2 -12  -7   77.84   14.84
   2  12   6   29.30    9.50
  -2 -12  -6   26.09    7.66
  -2 -12  -5   41.98   11.62
  -2 -12  -4   19.79    8.86
  -2 -12  -3    4.02    5.38
   2  12   2   52.84   12.61
  -2 -12  -2   47.42   12.16
   2  12   1   44.73   11.04
  -2 -12  -1   53.83   12.55
   2  12   0  311.36   21.92
  -2 -12   0  274.59   20.86
   2  12  -1   10.15    5.63
  -2 -12   1   13.06    7.34
   2  12  -2  203.90   19.61
  -2 -12   2  214.89   20.23
   2  12  -3   54.33   13.64
  -2 -12   3   60.40   13.48
   2  12  -4  330.04   22.64
  -2 -12   4  331.31   22.60
   2  12  -5  235.03   21.66
  -2 -12   5  241.63   17.61
   2  12  -6    7.46    4.70
  -2 -12   6    6.24    6.39
  -2 -12   7   11.96    6.33
  -2 -12   8   -1.01    4.28
  -2 -12   9   63.35   11.82
  -2 -12  10  231.47   20.45
  -2 -12  11   83.24   14.53
  -2 -12  12   77.92   23.49
  -2 -12  12   93.27   18.64
  -2 -12  13    2.93    6.29
  -2 -12  13    1.13    4.50
  -2 -12  14  281.37   46.83
  -2 -12  15   30.49   13.37
  -2 -12  16   50.23   16.57
  -2 -12  16   51.68   12.71
  -2 -12  17    6.89    4.75
  -2 -12  17    9.71    4.79
  -2 -12  18    7.18    6.58
  -2 -12  18    0.25    4.33
  -2 -12  19    7.98    4.26
  -2 -12  19    2.87    4.52
  -2 -12  20    4.26    4.68
  -2 -12  20    5.56    4.86
  -2 -12  21   12.21    6.66
  -2 -12  21    3.81    4.57
  -2 -12  22   46.80   19.47
  -2 -12  22   26.15    9.41
  -2 -12  23   16.58    8.32
  -2 -12  23   27.19   12.73
   2  13  19    6.20    6.74
   2  13  18    6.52    6.13
  -2 -13 -18    7.02    7.87
   2  13  17   -1.43    6.22
  -2 -13 -17    7.13    6.45
   2  13  16   11.46    6.40
  -2 -13 -16    6.59    5.08
   2  13  15   18.64    8.69
  -2 -13 -15   11.57    8.75
   2  13  14    4.67    6.19
  -2 -13 -14   16.01    9.54
   2  13  13   83.43   14.27
   2  13  12   10.42    9.49
  -2 -13 -12   -0.62    4.84
   2  13  11  332.52   27.18
  -2 -13 -11  230.65   60.08
   2  13  10   18.53   11.18
  -2 -13 -10    4.58    3.38
   2  13   9  108.12   13.38
  -2 -13  -9   81.40   28.40
   2  13   8    5.91    5.16
  -2 -13  -8    8.31    4.62
   2  13   7   18.25    8.89
  -2 -13  -7   19.83    8.61
   2  13   6   55.44   12.18
  -2 -13  -6   43.36    9.87
   2  13   5  158.00   12.51
  -2 -13  -5  167.22   13.74
   2  13   4   15.75    9.43
  -2 -13  -4    8.03    6.41
   2  13   3   71.57   13.34
  -2 -13  -3   94.22   15.98
   2  13   2    3.21    6.11
  -2 -13  -2   10.85    7.68
   2  13   1  208.41   18.81
  -2 -13  -1  219.86   20.84
   2  13   0   15.83    6.14
  -2 -13   0    9.12    5.20
   2  13  -1  168.32   17.05
  -2 -13   1  165.71   16.75
   2  13  -2    8.89    5.79
  -2 -13   2   13.33    8.40
   2  13  -3   19.16    7.42
  -2 -13   3   26.07    8.95
  -2 -13   4    6.44    4.72
  -2 -13   5    8.10    4.82
  -2 -13   6    1.44    4.02
   2  13  -7  144.85   14.81
  -2 -13   7  146.89   15.11
   2  13  -8    6.32    5.10
  -2 -13   8    9.67    5.09
   2  13  -9    9.90    4.59
  -2 -13   9   14.83    7.13
   2  13 -10    6.81    5.14
  -2 -13  10   13.84    6.90
   2  13 -11    6.61    6.18
  -2 -13  11    3.70    4.23
   2  13 -12    6.73    4.90
  -2 -13  12    2.56    4.21
  -2 -13  13    3.87    3.92
  -2 -13  13   21.48   10.72
  -2 -13  14   41.34   13.67
  -2 -13  14   43.24   14.08
  -2 -13  15    6.49    4.55
  -2 -13  15    6.33    6.04
  -2 -13  16   13.25    7.93
  -2 -13  17    7.33    4.91
  -2 -13  17   11.36    6.73
  -2 -13  18    6.18    5.58
  -2 -13  18    8.93    4.59
  -2 -13  19   11.38    7.31
  -2 -13  19    8.67    6.18
  -2 -13  20    7.52    5.37
  -2 -13  20    0.92    4.21
  -2 -13  21    2.18    2.61
  -2 -13  21    3.34    4.16
  -2 -13  22    3.34    7.70
  -2 -13  22    1.76    4.07
   2  14  18   20.01   10.54
  -2 -14 -18    8.60    9.65
   2  14  17    3.80    6.52
  -2 -14 -17    9.23    6.64
   2  14  16   11.44    6.60
  -2 -14 -16   -3.48    5.29
   2  14  15   12.97    8.78
  -2 -14 -15    2.75    7.47
   2  14  14    1.76    5.76
  -2 -14 -14    2.90    5.26
   2  14  13    3.95    5.88
  -2 -14 -13    4.89    3.48
   2  14  12   15.07    6.54
  -2 -14 -12   20.93   13.01
   2  14  11   12.90    8.52
  -2 -14 -11    2.84    3.95
   2  14  10    5.81    8.59
  -2 -14 -10    3.05    5.20
   2  14   9   26.39   10.17
  -2 -14  -9   14.76    8.70
   2  14   8    4.39    5.49
  -2 -14  -8    8.69    4.41
   2  14   7   10.53    5.41
  -2 -14  -7   34.69   10.04
   2  14   6   20.77    9.58
  -2 -14  -6   13.66    6.63
   2  14   5   13.21    5.20
  -2 -14  -5   14.46    6.87
   2  14   4   33.83   12.44
  -2 -14  -4   55.08   14.74
   2  14   3   12.94    6.56
  -2 -14  -3   14.29    8.25
   2  14   2  247.28   16.31
  -2 -14  -2  256.56   16.60
   2  14   1    7.94    5.41
  -2 -14  -1    6.35    6.83
   2  14   0  116.10   11.94
  -2 -14   0  117.43   11.74
  -2 -14   1    8.53    6.76
  -2 -14   2   16.47    8.55
  -2 -14   3   29.36    7.64
   2  14  -4   22.40   11.34
  -2 -14   4   17.21    8.09
   2  14  -5   16.71    8.70
  -2 -14   5    0.34    4.13
   2  14  -6    7.77    4.78
  -2 -14   6    0.64    3.98
   2  14  -7   43.80   13.89
  -2 -14   7   35.73   11.89
   2  14  -8   80.05   16.44
  -2 -14   8   64.01   14.56
   2  14  -9   20.34   10.50
  -2 -14   9    7.16    4.44
   2  14 -10  100.35   13.57
  -2 -14  10  122.35   30.60
  -2 -14  11    6.74    4.39
   2  14 -12   23.89    9.17
  -2 -14  12   30.70   12.72
   2  14 -13    5.82    4.95
  -2 -14  13   17.91    7.37
   2  14 -14   26.86    8.31
  -2 -14  14    2.73    4.56
  -2 -14  15   10.47    6.43
  -2 -14  16    2.00    3.27
  -2 -14  17    6.26    6.63
  -2 -14  17    2.81    4.03
  -2 -14  18   12.83    6.91
  -2 -14  18   13.23    6.61
  -2 -14  19    4.70    4.73
  -2 -14  19   12.05    6.80
  -2 -14  20    3.76    3.65
  -2 -14  20    7.29    3.83
  -2 -14  21    6.48    5.37
  -2 -14  21   -0.16    3.81
   2  15  16   13.13    7.05
  -2 -15 -16    5.60    5.25
   2  15  15    6.77    8.50
  -2 -15 -15    4.73    3.73
   2  15  14    5.00    5.90
  -2 -15 -14    9.24    5.25
   2  15  13    8.15    6.54
  -2 -15 -13    8.38    5.63
   2  15  12   -0.32    5.49
  -2 -15 -12    8.31    6.07
   2  15  11    7.35    5.79
  -2 -15 -11    8.35    6.57
   2  15  10   15.72    8.73
  -2 -15 -10   27.99   13.73
   2  15   9    8.23    5.47
  -2 -15  -9    7.27    5.62
   2  15   8   14.40    8.26
  -2 -15  -8   20.09   12.75
   2  15   7    5.86    7.22
  -2 -15  -7    6.83    5.32
   2  15   6    3.60    5.07
  -2 -15  -6    5.54    7.06
   2  15   5   31.64    8.67
  -2 -15  -5   47.94   13.94
   2  15   4    5.60    4.84
  -2 -15  -4    5.88    7.42
  -2 -15  -3  143.99   16.74
  -2 -15  -2   31.44    9.50
  -2 -15  -1    4.56    5.37
  -2 -15   0   13.53    8.48
   2  15  -1    7.31    4.82
  -2 -15   1    5.74    5.63
   2  15  -2   12.33    7.09
  -2 -15   2   23.38   11.48
   2  15  -3    8.87    4.65
  -2 -15   3   17.91    8.83
   2  15  -4   45.30    9.09
  -2 -15   4   30.64   11.35
   2  15  -5    9.98    4.24
  -2 -15   5    6.00    6.80
   2  15  -6   10.05    4.87
  -2 -15   6   10.00    5.29
  -2 -15   7  266.42   59.18
  -2 -15   8   26.41   10.73
  -2 -15   9  102.97   12.43
   2  15 -10   15.64    7.98
  -2 -15  10    8.15    5.47
   2  15 -11   17.19    7.34
  -2 -15  11   28.75   11.77
   2  15 -12    3.81    4.52
  -2 -15  12    8.48    7.04
   2  15 -13   25.71    9.94
  -2 -15  13   35.01   12.21
   2  15 -14   10.64    5.83
  -2 -15  14   15.47    6.53
   2  15 -15   12.30    6.67
  -2 -15  15    9.14    5.78
   2  15 -16    7.98    4.74
  -2 -15  16   18.22    8.21
  -2 -15  17   17.13    8.07
  -2 -15  18   15.82    9.81
  -2 -15  18    4.90    4.36
  -2 -15  19   10.65    9.24
  -2 -15  19    7.80    5.96
  -2 -15  20   16.59   10.56
  -2 -15  20   29.92   12.28
   2  16  15    5.21    6.37
  -2 -16 -15    5.05    8.76
   2  16  14    5.67    6.30
  -2 -16 -14    0.01    4.40
   2  16  13    2.30    6.03
  -2 -16 -13    4.27    3.51
   2  16  12   16.87    8.10
  -2 -16 -12   24.66   15.17
   2  16  11   -2.20    5.85
  -2 -16 -11   19.26   12.15
   2  16  10   22.80   11.00
  -2 -16 -10   16.52   10.37
   2  16   9    9.88    8.33
  -2 -16  -9    9.64    7.34
   2  16   8   10.64    5.53
  -2 -16  -8   50.47   15.07
   2  16   7   10.03    4.89
  -2 -16  -7   13.50    6.38
   2  16   6   15.91    9.67
  -2 -16  -6   18.13    9.69
  -2 -16  -5   15.56    8.83
  -2 -16  -4   18.74    7.79
   2  16   3    3.95    4.97
  -2 -16  -3   11.85    7.65
   2  16   2   89.60   12.11
  -2 -16  -2   54.43   14.13
   2  16   1   -0.02    5.17
  -2 -16  -1   11.92    7.54
   2  16   0  124.56   14.62
  -2 -16   0  116.99   14.21
   2  16  -1    1.32    4.93
  -2 -16   1    9.62    7.21
   2  16  -2   15.06    6.25
  -2 -16   2   17.69    7.84
   2  16  -3    8.45    6.75
  -2 -16   3   13.82    7.54
  -2 -16   4    7.38    4.82
  -2 -16   5    6.42    4.79
   2  16  -6   19.46    7.66
  -2 -16   6   12.62    5.29
   2  16  -7    3.33    4.09
  -2 -16   7   11.72    6.36
   2  16  -8   51.42   10.48
  -2 -16   8   42.92   15.63
   2  16  -9   10.11    4.79
  -2 -16   9   33.62   11.40
   2  16 -10   28.30    6.87
  -2 -16  10   16.38    8.87
   2  16 -11   18.15    5.50
  -2 -16  11   22.51    8.64
   2  16 -12    8.12    4.71
  -2 -16  12    2.40    4.25
   2  16 -13    9.85    6.74
  -2 -16  13    7.17    6.56
   2  16 -14   10.70    6.25
  -2 -16  14    2.37    4.76
   2  16 -15    5.15    4.28
  -2 -16  15    3.15    5.84
   2  16 -16   45.35   17.91
  -2 -16  16   62.32   23.76
   2  16 -17    4.02    6.27
   2  16 -18  113.59   29.73
  -2 -16  18  153.60   40.16
   2  17  13    7.24    6.38
  -2 -17 -13   15.18    7.59
   2  17  12    4.87    8.58
  -2 -17 -12    3.97    5.32
   2  17  11    7.28    8.23
  -2 -17 -11   10.19    7.35
   2  17  10    6.21    5.85
  -2 -17 -10   11.00    7.99
  -2 -17  -9   12.25    5.03
  -2 -17  -8    5.13    6.51
  -2 -17  -7   55.16   12.37
  -2 -17  -6   22.50   11.59
   2  17   5   74.86   13.15
  -2 -17  -5  136.15   22.97
   2  17   4    3.68    4.45
  -2 -17  -4    2.07    5.07
   2  17   3    6.53    4.42
  -2 -17  -3    7.21    5.12
   2  17   2   14.11    5.75
  -2 -17  -2   11.73    7.10
   2  17   1    4.85    4.43
  -2 -17  -1    7.07    5.02
   2  17   0   10.14    7.00
  -2 -17   0   15.44    8.89
   2  17  -1   31.40   11.85
  -2 -17   1   46.19    9.59
   2  17  -2    2.00    4.84
  -2 -17   2    2.71    4.84
   2  17  -3   41.30   14.76
  -2 -17   3   42.89   13.85
   2  17  -4    4.18    4.56
  -2 -17   4    7.77    7.18
   2  17  -5  131.78   16.38
  -2 -17   5  144.41   16.76
   2  17  -6   18.63    6.71
  -2 -17   6   12.96    6.90
   2  17  -7   64.67   11.61
  -2 -17   7   72.74   14.83
   2  17  -8    3.93    4.11
  -2 -17   8    7.05    4.55
   2  17  -9    6.03    4.24
  -2 -17   9   13.51    6.63
   2  17 -10   11.09    5.07
  -2 -17  10    2.42    4.48
   2  17 -11   51.66    9.72
  -2 -17  11   41.24   13.30
   2  17 -12   31.23    9.89
  -2 -17  12   33.92   11.12
   2  17 -13    7.85    4.20
  -2 -17  13   10.46    6.63
   2  17 -14    3.14    3.96
  -2 -17  14   15.57    8.05
   2  17 -15    0.09    4.11
  -2 -17  15    8.91    5.08
   2  17 -16    8.02    6.24
  -2 -17  16    2.22    3.02
   2  17 -17    3.58    4.74
  -2 -17  17    7.61    7.45
  -2 -18 -11    3.66    3.99
   2  18  10    1.18    5.60
  -2 -18 -10    8.63    5.94
   2  18   9    7.62    5.77
  -2 -18  -9    9.93    6.18
   2  18   8    3.75    5.25
  -2 -18  -8    5.79    6.01
   2  18   7   14.75    8.27
  -2 -18  -7    8.66    7.92
   2  18   6    7.29    4.87
  -2 -18  -6   13.74    9.69
   2  18   5   12.56    6.95
  -2 -18  -5   10.66    7.60
   2  18   4    5.15    4.58
  -2 -18  -4    8.48    4.89
   2  18   3    9.98    6.38
  -2 -18  -3    3.84    4.67
   2  18   2   27.20    8.71
  -2 -18  -2   19.36    8.92
   2  18   1   22.70    9.19
  -2 -18  -1   20.78    8.73
   2  18   0   20.34    8.11
  -2 -18   0   16.13    8.88
   2  18  -1   52.95    9.92
  -2 -18   1   44.33   13.30
   2  18  -2   84.89   14.35
  -2 -18   2   32.57   10.90
   2  18  -3   12.79    8.29
  -2 -18   3    1.85    4.67
   2  18  -4   34.30   12.48
  -2 -18   4   65.42   10.26
   2  18  -5   47.55   13.64
  -2 -18   5   53.06   11.21
   2  18  -6    6.94    4.95
  -2 -18   6   13.80    9.48
   2  18  -7   42.14   13.21
  -2 -18   7   55.06   12.37
   2  18  -8   10.25    6.27
  -2 -18   8   11.98    5.01
   2  18  -9    5.25    5.70
  -2 -18   9    5.86    4.15
   2  18 -10    3.82    3.97
  -2 -18  10    2.81    4.21
   2  18 -11   14.11    7.63
  -2 -18  11   15.87    8.27
   2  18 -12   22.48    6.51
  -2 -18  12    4.53    4.58
   2  18 -13    6.36    6.20
  -2 -18  13    4.59    4.39
   2  18 -14   15.27    7.81
  -2 -18  14   15.57    7.28
   2  19   8    5.15    7.33
  -2 -19  -8    4.62    4.86
   2  19   7   12.04    5.51
  -2 -19  -7   14.01    8.04
   2  19   6    8.05    6.67
  -2 -19  -6   21.47    9.79
   2  19   5    9.04    4.94
  -2 -19  -5    4.92    5.44
   2  19   4   13.34    7.82
  -2 -19  -4   17.44    7.82
   2  19   3    5.38    4.68
  -2 -19  -3    5.76    6.51
   2  19   2    5.75    4.64
  -2 -19  -2    8.74    5.77
   2  19   1    9.17    6.80
  -2 -19  -1   10.84    5.61
   2  19   0   14.80    8.35
  -2 -19   0    9.49    6.48
   2  19  -1   55.89   14.50
  -2 -19   1   74.07   18.34
   2  19  -2    6.38    5.47
  -2 -19   2   13.37    8.24
   2  19  -3   14.73    8.67
  -2 -19   3   15.63    8.72
   2  19  -4    1.49    4.39
  -2 -19   4   17.10    9.82
   2  19  -5   11.95    6.63
  -2 -19   5    9.62    5.66
   2  19  -6   22.40    6.45
  -2 -19   6   24.41    7.62
   2  19  -7    9.91    6.34
  -2 -19   7    3.35    4.39
   2  19  -8    7.49    5.77
  -2 -19   8    3.49    4.83
   2  19  -9    0.09    3.78
  -2 -19   9    6.03    4.37
   2  19 -10   10.31    6.01
  -2 -19  10    7.15    6.21
   2  19 -11   27.99   10.23
  -2 -19  11   28.72   10.49
   2  19 -12    4.59    4.22
  -2 -19  12   11.38    6.77
   2  20   3   11.90    5.47
  -2 -20  -3    8.99    7.79
   2  20   2   11.27    5.32
  -2 -20  -2   11.26    7.57
   2  20   1    7.63    6.72
  -2 -20  -1    9.76    5.49
   2  20   0   13.79    6.92
  -2 -20   0   13.64    8.33
   2  20  -1    9.32    6.74
  -2 -20   1    7.50    7.70
   2  20  -2    3.77    4.75
  -2 -20   2    4.68    7.98
   2  20  -3    3.16    4.54
  -2 -20   3    9.27    5.68
   2  20  -4   24.46    8.86
  -2 -20   4   48.47   16.56
   2  20  -5    4.28    4.53
  -2 -20   5   10.06    8.31
   2  20  -6   64.78   17.79
  -2 -20   6   94.40   27.18
   2  20  -7    9.84    7.16
  -2 -20   7    4.49    5.34
   3 -20   3    0.40    3.51
   3 -20   2    6.81    4.18
   3 -20   1   -0.51    2.55
   3 -19  10   10.77    5.36
   3 -19   9   49.67   16.41
   3 -19   8   -1.32    4.28
   3 -19   7   31.51   13.13
   3 -19   6    3.03    4.01
   3 -19   5    8.87    6.03
  -3  19  -4    4.03    3.09
   3 -19   4    4.42    4.27
  -3  19  -3    4.76    3.73
   3 -19   3    8.98    6.77
  -3  19  -2   10.78    3.76
   3 -19   2   -0.03    3.02
  -3  19  -1    7.19    3.55
   3 -19   1    8.33    6.81
  -3  19   0    5.11    2.91
   3 -19   0    3.69    3.29
  -3  19   1    9.81    4.75
   3 -19  -1   11.98    5.79
  -3  19   2    7.82    5.02
   3 -19  -2   12.48    5.48
  -3  19   3    9.48    6.59
   3 -19  -3    8.55    6.12
  -3  19   4   36.84   11.48
   3 -19  -4   13.10    5.97
  -3  19   5    5.73    4.82
   3 -19  -5   15.02    8.14
  -3  19   6    9.94    4.02
   3 -19  -6    9.62    6.07
   3 -18  13   11.03    9.29
   3 -18  12   12.21    7.91
   3 -18  11   14.41    9.13
   3 -18  10    2.09    5.68
   3 -18   9  103.00   38.53
   3 -18   8   36.73   14.02
   3 -18   7   46.34   12.16
  -3  18  -6   78.81   16.95
   3 -18   6   71.58   17.77
  -3  18  -5    5.94    3.32
   3 -18   5   12.73    7.22
  -3  18  -4   31.78    7.97
   3 -18   4   17.73    7.09
  -3  18  -3    3.27    2.91
   3 -18   3    5.09    4.21
  -3  18  -2   16.36    6.72
   3 -18   2   19.11    7.45
  -3  18  -1    2.18    2.24
   3 -18   1    3.31    3.40
  -3  18   0    5.22    3.65
   3 -18   0    5.01    3.86
  -3  18   1   32.26    9.02
   3 -18  -1   25.59   10.75
  -3  18   2    6.63    5.47
   3 -18  -2    8.89    5.41
  -3  18   3   77.22   17.68
   3 -18  -3   73.48   17.31
  -3  18   4    3.01    3.39
   3 -18  -4    3.97    5.20
  -3  18   5   27.44   11.59
   3 -18  -5    7.47    3.75
  -3  18   6   13.06    7.16
   3 -18  -6    7.20    3.52
  -3  18   7    3.00    4.59
   3 -18  -7    7.50    4.83
  -3  18   8    6.30    4.49
   3 -18  -8    6.30    3.44
  -3  18   9    4.17    4.18
   3 -18  -9    5.11    4.26
   3 -17  15   12.18    9.86
   3 -17  14    3.07    6.94
   3 -17  13   23.59    9.29
   3 -17  12    6.57    8.75
   3 -17  11    2.45    6.37
   3 -17  10   19.57    9.23
  -3  17  -9   59.59    6.73
   3 -17   9   57.53   15.37
  -3  17  -8   19.80    6.27
   3 -17   8   17.93    7.73
  -3  17  -7   17.58    6.58
   3 -17   7    9.29    5.20
  -3  17  -6    3.29    1.74
   3 -17   6    4.51    5.48
  -3  17  -5    5.36    2.80
   3 -17   5    8.72    5.10
  -3  17  -4   75.85   10.44
   3 -17   4   67.10   24.93
  -3  17  -3    5.91    2.99
   3 -17   3    4.77    4.56
  -3  17  -2    4.44    3.11
   3 -17   2    7.75    4.19
  -3  17  -1    3.41    3.62
   3 -17   1   11.83    6.13
  -3  17   0    5.39    5.48
   3 -17   0    7.04    5.11
  -3  17   1  123.86   17.19
   3 -17  -1   94.02   22.05
  -3  17   2    6.07    6.24
   3 -17  -2    3.74    3.25
  -3  17   3   75.28   11.59
   3 -17  -3   71.42   12.16
  -3  17   4    5.42    3.65
   3 -17  -4    2.10    3.63
  -3  17   5   47.12   12.43
   3 -17  -5   65.22    9.81
  -3  17   6   20.88    8.65
   3 -17  -6   21.67    8.90
  -3  17   7   10.32    8.30
   3 -17  -7    6.57    4.78
  -3  17   8    5.35    4.86
   3 -17  -8    9.83    4.49
  -3  17   9   20.06    7.37
   3 -17  -9    6.49    3.19
  -3  17  10   16.13    9.17
   3 -17 -10    1.17    2.65
  -3  17  11    0.88    5.14
   3 -17 -11    8.09    4.54
  -3  17  12    6.11    5.88
   3 -16  17   17.05   12.76
   3 -16  16   26.00   11.92
   3 -16  15   11.47    8.15
   3 -16  14   16.42    9.26
   3 -16  13   12.41    7.63
  -3  16 -12   16.59    6.20
   3 -16  12   19.28    9.00
  -3  16 -11    4.83    2.47
   3 -16  11    2.71    6.67
  -3  16 -10   67.90    9.19
   3 -16  10   68.05   14.72
  -3  16  -9    3.77    1.81
   3 -16   9    6.06    6.14
  -3  16  -8    4.63    2.49
   3 -16   8   22.81   11.43
  -3  16  -7    3.44    2.60
   3 -16   7   15.67    8.46
  -3  16  -6    4.63    2.65
   3 -16   6   11.52    7.70
  -3  16  -5    6.81    2.88
   3 -16   5   15.21   10.18
  -3  16  -4    1.94    1.74
   3 -16   4    7.39    6.68
  -3  16  -3    1.58    1.74
   3 -16   3    5.44    4.15
  -3  16  -2    3.06    2.00
   3 -16   2    8.51    7.18
  -3  16  -1    3.58    3.58
   3 -16   1    6.55    3.92
  -3  16   0    4.93    4.10
   3 -16   0    5.07    5.28
  -3  16   1    6.59    5.36
   3 -16  -1    3.04    3.19
  -3  16   2   12.31    5.57
   3 -16  -2   23.07    6.14
  -3  16   3    6.80    5.17
   3 -16  -3    3.77    3.29
  -3  16   4   18.98    9.81
   3 -16  -4    3.76    3.59
  -3  16   5    3.76    3.93
   3 -16  -5    1.38    3.26
  -3  16   6    3.70    4.08
   3 -16  -6    4.95    3.36
  -3  16   7    5.74    4.66
   3 -16  -7    6.68    3.30
  -3  16   8    6.44    4.67
   3 -16  -8   13.31    6.76
  -3  16   9   11.20    7.78
   3 -16  -9    1.83    2.82
  -3  16  10    9.01    8.09
   3 -16 -10    0.75    2.56
  -3  16  11   11.16    7.97
   3 -16 -11    2.17    2.67
  -3  16  12    4.34    5.87
   3 -16 -12   11.99    5.61
  -3  16  13    6.84    5.56
  -3  16  14   11.28    7.94
   3 -15  19    5.43    8.67
   3 -15  18   21.99   11.94
   3 -15  17   17.19    8.74
   3 -15  16   50.64   15.78
  -3  15 -15   28.34    7.82
   3 -15  15   20.86   13.66
  -3  15 -14   22.06    7.32
   3 -15  14   40.74   16.93
  -3  15 -13  114.53   14.21
   3 -15  13   80.98   14.68
  -3  15 -12    9.19    2.44
   3 -15  12    8.40    8.32
  -3  15 -11   32.92    9.58
   3 -15  11   31.89   13.06
  -3  15 -10   10.38    3.25
   3 -15  10    7.86    6.70
  -3  15  -9    6.20    2.76
   3 -15   9    8.32    6.50
  -3  15  -8    6.32    2.91
   3 -15   8   14.33    7.03
  -3  15  -7   13.58    3.69
   3 -15   7   13.71    9.26
  -3  15  -6    0.89    1.26
   3 -15   6    3.78    5.74
  -3  15  -5   63.27   13.20
  -3  15  -5   84.17    8.01
   3 -15   5   89.09   13.11
  -3  15  -4   13.44    5.13
  -3  15  -4   14.18    5.31
   3 -15   4   10.22    6.74
  -3  15  -3    4.51    3.00
  -3  15  -3    1.85    2.61
   3 -15   3    3.52    4.43
  -3  15  -2    2.11    2.14
  -3  15  -2    2.23    2.86
   3 -15   2   10.76    6.29
  -3  15  -1    1.23    2.38
  -3  15  -1    3.57    2.50
   3 -15   1    6.09    5.96
  -3  15   0    6.39    5.14
   3 -15   0    8.48    5.98
  -3  15   1    5.02    2.75
   3 -15  -1    3.57    3.66
  -3  15   2   22.64   10.64
   3 -15  -2   17.75    9.09
  -3  15   3    2.20    3.71
   3 -15  -3   14.44    7.17
  -3  15   4    4.00    4.30
   3 -15  -4    3.78    3.68
  -3  15   5  122.87   13.28
   3 -15  -5  151.83   14.47
  -3  15   6    5.27    4.51
   3 -15  -6    4.00    4.13
   3 -15  -7    6.24    4.88
   3 -15  -8    5.46    4.08
  -3  15   9    0.24    5.23
   3 -15  -9    6.26    3.63
  -3  15  10    3.08    7.26
   3 -15 -10    6.37    3.77
  -3  15  11   38.96   12.26
   3 -15 -11   22.86   13.26
  -3  15  12    2.35    6.02
   3 -15 -12    4.27    3.07
  -3  15  13   11.59    5.87
  -3  15  14   11.33    5.75
  -3  15  15    7.57    6.19
  -3  15  16    3.54    5.68
   3 -14  20    6.85    7.65
   3 -14  19    9.70   10.49
   3 -14  18   19.00   16.32
   3 -14  17   13.56    9.07
  -3  14 -16   11.39    3.11
   3 -14  16   24.69   13.17
  -3  14 -15    3.00    2.88
   3 -14  15    4.76    6.89
  -3  14 -14   36.04   10.83
   3 -14  14   37.42   15.26
  -3  14 -13   18.50    8.03
   3 -14  13    5.93    8.62
  -3  14 -12  167.43   14.96
   3 -14  12  191.74   22.83
  -3  14 -11   14.32    4.10
   3 -14  11   18.10   12.26
  -3  14 -10  104.06    8.25
   3 -14  10  132.57   16.33
  -3  14  -9   74.59    4.72
  -3  14  -9   93.05    8.42
   3 -14   9  107.39   19.09
  -3  14  -8   -0.45    1.28
  -3  14  -8    3.30    1.57
   3 -14   8   18.84   12.52
  -3  14  -7    8.41    2.29
  -3  14  -7   10.43    2.58
   3 -14   7    6.75    6.42
  -3  14  -6    2.39    2.06
  -3  14  -6    3.08    2.31
   3 -14   6    2.22    5.70
  -3  14  -5   69.57   12.78
  -3  14  -5   57.26   10.64
   3 -14   5   65.26   13.80
  -3  14  -4    9.09    2.65
  -3  14  -4    5.86    2.69
   3 -14   4    6.83    5.52
  -3  14  -3    4.51    2.72
  -3  14  -3    6.20    3.42
   3 -14   3   15.17    7.19
  -3  14  -2  114.38   27.28
  -3  14  -2  163.69   13.04
   3 -14   2  184.12   16.40
  -3  14  -1    6.43    4.83
  -3  14  -1   13.68    6.11
   3 -14   1   24.41   11.79
  -3  14   0  201.11   15.47
   3 -14   0  202.83   17.04
  -3  14   1   30.14    9.73
   3 -14  -1   15.25    5.84
   3 -14  -1   18.59    7.75
  -3  14   2    4.77    3.06
   3 -14  -2    4.75    2.83
   3 -14  -2   17.00    7.90
  -3  14   3   40.26   13.14
   3 -14  -3   36.17   12.64
  -3  14   4   18.74    9.56
   3 -14  -4   23.76    6.44
  -3  14   5   22.20   10.98
   3 -14  -5   15.67    6.72
  -3  14   6    8.85    6.22
   3 -14  -6    7.46    4.27
  -3  14   7   33.64   12.39
   3 -14  -7   39.62   10.81
  -3  14   8   41.43   12.01
   3 -14  -8   45.73   11.56
  -3  14   9   45.93    9.00
   3 -14  -9   46.61    7.99
  -3  14  10   17.92   10.93
  -3  14  11    6.57    7.92
   3 -14 -11    4.21    4.93
  -3  14  12   13.24    5.80
   3 -14 -12    9.50    4.40
  -3  14  13    2.89    5.18
   3 -14 -13    2.79    2.84
  -3  14  14   13.21    7.38
  -3  14  15    8.83    6.49
  -3  14  16    6.63    6.50
  -3  14  17    3.03    5.94
   3 -13  21   11.37    8.54
   3 -13  20   15.04   14.14
   3 -13  19    7.84    3.63
   3 -13  19   31.59   13.62
   3 -13  18    6.02    8.57
  -3  13 -17   10.75    4.36
   3 -13  17   -2.01    8.63
  -3  13 -16   20.66    7.23
   3 -13  16    8.73   12.46
  -3  13 -15    3.52    2.92
   3 -13  15   17.58   14.33
  -3  13 -14    3.61    2.52
   3 -13  14   -3.71    8.88
  -3  13 -13   37.24    4.18
   3 -13  13   31.49   15.14
  -3  13 -12    3.71    2.66
  -3  13 -12    6.84    2.92
   3 -13  12   17.80   11.65
  -3  13 -11    8.53    2.48
  -3  13 -11   11.00    2.96
   3 -13  11   11.53    9.11
  -3  13 -10   27.45    8.12
  -3  13 -10   36.39   10.73
   3 -13  10   22.78   12.05
  -3  13  -9  111.68    8.80
  -3  13  -9  113.96    8.86
   3 -13   9  126.63   16.78
  -3  13  -8    2.04    1.75
  -3  13  -8    1.91    1.34
   3 -13   8    5.72    7.32
  -3  13  -7    2.50    1.86
  -3  13  -7    2.00    1.77
   3 -13   7   15.19   10.19
  -3  13  -6    4.74    2.83
  -3  13  -6    3.05    2.30
   3 -13   6    2.30    7.52
  -3  13  -5   35.99    6.71
  -3  13  -5   31.60    5.65
   3 -13   5   40.20   11.63
  -3  13  -4   45.46   10.36
  -3  13  -4   41.11    9.48
   3 -13   4   51.47   15.39
  -3  13  -3    4.09    2.68
  -3  13  -3    3.45    2.16
   3 -13   3    7.06    5.88
  -3  13  -2    3.51    2.75
  -3  13  -2    5.57    3.20
   3 -13   2   10.97    5.18
  -3  13  -1    0.48    2.06
  -3  13  -1    0.67    2.33
   3 -13   1    5.39    3.60
  -3  13   0   81.82   12.81
   3 -13   0   66.42   10.78
   3 -13   0   92.96   15.37
  -3  13   1   22.30    5.62
   3 -13  -1   21.48    5.74
   3 -13  -1   29.92    8.75
  -3  13   2   14.39    5.39
   3 -13  -2    6.13    2.38
   3 -13  -2   26.03    8.99
  -3  13   3   10.20    3.93
   3 -13  -3    6.39    2.61
   3 -13  -3    9.96    4.57
  -3  13   4    5.10    4.20
   3 -13  -4    7.90    5.15
  -3  13   5   97.01   10.58
   3 -13  -5  105.38    9.38
  -3  13   6    6.02    4.42
   3 -13  -6   13.45    6.23
  -3  13   7  102.56   11.37
   3 -13  -7  124.13   11.76
  -3  13   7   93.83   17.76
  -3  13   8   10.95    7.11
   3 -13  -8    6.99    4.05
  -3  13   8    7.13    6.00
  -3  13   9  116.67   15.28
   3 -13  -9  116.71   11.48
  -3  13  10    4.56    5.83
   3 -13 -10    4.57    3.90
  -3  13  11    4.91    5.78
   3 -13 -11    4.53    3.73
  -3  13  12   15.97   10.72
   3 -13 -12   12.73    8.16
  -3  13  13    0.89    6.02
   3 -13 -13    1.68    1.88
  -3  13  14    9.10    6.05
   3 -13 -14    2.79    2.39
  -3  13  15    6.59    6.66
  -3  13  16    6.08    6.17
  -3  13  17    0.10    5.23
  -3  13  18    6.43    7.60
   3 -12  22   12.83    9.16
   3 -12  21    5.55    3.59
   3 -12  21   16.24   14.40
   3 -12  20   15.14    8.07
   3 -12  20   29.35   11.23
   3 -12  19    8.75    4.68
   3 -12  19   12.56    9.75
   3 -12  18   32.57   14.40
   3 -12  18   38.85   17.34
   3 -12  17   -0.09    0.89
   3 -12  17    2.80    8.59
   3 -12  16   46.28   13.59
   3 -12  16   64.03   15.50
  -3  12 -15    1.55    2.59
   3 -12  15   -0.03   10.01
  -3  12 -14    8.15    3.01
   3 -12  14   13.18   13.07
  -3  12 -13    2.96    2.93
  -3  12 -13    6.07    2.98
   3 -12  13    7.82   10.30
  -3  12 -12   40.49   11.66
  -3  12 -12   33.49    9.94
   3 -12  12   11.99   10.62
  -3  12 -11   10.10    2.57
  -3  12 -11    8.95    2.78
   3 -12  11   19.85   16.31
  -3  12 -10  186.53    7.48
   3 -12  10  174.81   15.58
  -3  12  -9    5.16    1.68
  -3  12  -9    4.93    1.82
   3 -12   9   -1.70    8.60
  -3  12  -8   92.54   13.47
  -3  12  -8   93.48   13.63
   3 -12   8  150.91   23.29
  -3  12  -7    5.81    2.23
  -3  12  -7    3.21    1.65
   3 -12   7   13.08    9.20
  -3  12  -6   41.26    9.22
  -3  12  -6   39.40    8.71
   3 -12   6   28.61   10.06
  -3  12  -5    6.61    2.94
  -3  12  -5    3.63    2.35
   3 -12   5    5.07    7.94
  -3  12  -4    2.89    1.66
  -3  12  -4    3.47    2.32
   3 -12   4    8.60    7.29
  -3  12  -3   26.30    7.35
  -3  12  -3   33.62    7.64
   3 -12   3   28.40   10.15
  -3  12  -2    2.46    2.92
  -3  12  -2    3.69    2.67
   3 -12   2    4.08    7.17
  -3  12  -1    8.96    3.37
   3 -12   1    4.02    2.01
   3 -12   1   15.21    5.84
  -3  12   0   14.05    4.04
   3 -12   0   14.02    3.96
   3 -12   0   13.59    6.02
  -3  12   1   49.87    6.45
   3 -12  -1   50.34   10.28
   3 -12  -1   56.47   11.61
  -3  12   2    1.33    3.60
   3 -12  -2    7.44    3.89
   3 -12  -2    5.83    3.48
  -3  12   3   33.48    9.81
   3 -12  -3   23.28    7.09
   3 -12  -3   23.15    7.57
  -3  12   3   24.55    8.06
  -3  12   4   13.83    5.87
   3 -12  -4    3.11    2.51
   3 -12  -4   11.07    4.29
  -3  12   4    5.82    4.27
  -3  12   5   35.41   11.44
   3 -12  -5   40.26   10.64
  -3  12   5   20.75    6.22
  -3  12   6   32.39    8.28
   3 -12  -6   23.90    6.47
  -3  12   6   20.15    5.95
  -3  12   7   10.73    6.47
   3 -12  -7    5.52    3.62
  -3  12   7   13.13    6.82
  -3  12   8   43.08   10.66
   3 -12  -8   55.26   10.43
  -3  12   8   43.54    8.50
  -3  12   9    7.03    5.75
   3 -12  -9    1.94    2.20
  -3  12   9   10.16    4.73
  -3  12  10   15.00    7.59
   3 -12 -10    8.73    3.25
  -3  12  10   13.59    5.45
  -3  12  11    2.18    5.38
   3 -12 -11    5.17    3.07
  -3  12  11    3.00    2.02
  -3  12  12    8.04    5.87
   3 -12 -12   15.84    7.56
  -3  12  13    7.84    6.05
   3 -12 -13    0.96    1.59
  -3  12  14   11.66    8.99
   3 -12 -14    2.75    2.88
  -3  12  15   15.44    7.06
  -3  12  16    5.07    6.48
  -3  12  17   15.19    7.68
  -3  12  18    4.56    5.69
  -3  12  19    9.36    7.78
  -3  12  20    2.12    5.54
   3 -11  23   15.84    6.63
   3 -11  23   15.89   14.69
   3 -11  22    3.22    2.33
   3 -11  22    9.72   14.13
   3 -11  21    5.08    3.28
   3 -11  21    1.51    9.16
   3 -11  20    4.70    2.32
   3 -11  20   23.38   16.36
   3 -11  19    3.32    2.06
   3 -11  19    4.28    8.37
   3 -11  18    2.95    1.75
   3 -11  18    3.72    8.65
   3 -11  17   24.73    8.07
   3 -11  17   35.33   15.13
   3 -11  16    5.93    3.42
   3 -11  16   27.82   18.14
   3 -11  15   11.64    4.13
  -3  11 -15   18.95    8.25
   3 -11  15    5.81   16.02
   3 -11  14    3.35    2.59
  -3  11 -14    0.34    1.80
   3 -11  14    8.12   11.71
  -3  11 -13    2.91    1.88
  -3  11 -13    7.91    3.47
   3 -11  13    3.75   10.87
  -3  11 -12    4.40    1.75
  -3  11 -12    7.88    2.34
   3 -11  12   14.01   15.22
  -3  11 -11   84.42    4.50
  -3  11 -11  101.82    6.16
   3 -11  11   91.23   15.31
  -3  11 -10  268.47   19.59
  -3  11 -10  264.93   19.46
   3 -11  10  318.58   34.35
  -3  11  -9    3.10    2.00
  -3  11  -9    2.53    1.61
   3 -11   9   -0.42   12.36
  -3  11  -8  315.03   22.49
  -3  11  -8  321.98   22.94
   3 -11   8  375.86   33.93
  -3  11  -7   11.94    2.11
  -3  11  -7   11.81    2.34
   3 -11   7   32.93   16.15
  -3  11  -6   60.26   11.42
  -3  11  -6   57.88   10.97
   3 -11   6   52.81   19.39
  -3  11  -5   95.61    9.27
  -3  11  -5   89.06    8.32
   3 -11   5   64.62   15.88
  -3  11  -4   90.18    8.72
  -3  11  -4   77.02    4.32
   3 -11   4  109.76   18.78
  -3  11  -3    6.09    2.03
  -3  11  -3    4.43    1.90
   3 -11   3    6.91    9.71
  -3  11  -2    2.22    2.20
  -3  11  -2    1.24    1.83
   3 -11   2    2.81    5.71
  -3  11  -1  474.89   27.05
   3 -11   1  473.59   27.48
   3 -11   1  447.36   27.55
  -3  11   0   23.44    7.13
   3 -11   0   24.35    6.79
   3 -11   0   20.26    8.04
  -3  11   0   32.14    9.15
  -3  11   1   40.59    9.93
   3 -11  -1   45.60    9.91
   3 -11  -1   44.32   12.80
  -3  11   1   24.59    7.18
  -3  11   2  383.98   23.92
   3 -11  -2  374.28   22.39
   3 -11  -2  410.37   25.04
  -3  11   2  348.08   22.52
  -3  11   3   30.79    8.16
   3 -11  -3   30.73    7.25
   3 -11  -3   51.20   11.11
  -3  11   3   29.12    7.89
  -3  11   4  184.92   16.11
   3 -11  -4  175.49   14.56
  -3  11   4  163.52   14.30
  -3  11   5    1.95    4.98
   3 -11  -5    7.94    3.87
  -3  11   5    6.19    4.57
  -3  11   6    9.19    6.44
   3 -11  -6    6.56    2.10
   3 -11  -6   20.49    7.03
  -3  11   6   10.03    3.62
  -3  11   7    0.48    4.26
   3 -11  -7    6.27    4.15
  -3  11   7    7.51    5.22
  -3  11   8  155.18   17.02
   3 -11  -8  131.80   11.98
  -3  11   8  130.08   12.18
  -3  11   9   66.84   16.19
   3 -11  -9   61.15   10.39
  -3  11   9   56.20    9.32
  -3  11  10   14.12    7.07
   3 -11 -10   21.51    7.75
  -3  11  10    9.15    3.64
  -3  11  11  222.14   18.75
   3 -11 -11  214.77   25.10
  -3  11  11  180.10   13.37
  -3  11  12    3.52    6.36
   3 -11 -12    8.21    3.18
  -3  11  12    9.66    3.49
  -3  11  13    2.59    6.24
  -3  11  13    3.30    3.20
   3 -11 -14    3.58    3.15
  -3  11  15    5.12    7.06
  -3  11  16   -1.92    5.91
  -3  11  17   14.23    9.28
  -3  11  18    1.04    5.34
  -3  11  19   11.52    7.94
  -3  11  20   12.12    6.04
  -3  11  21   17.02   10.12
   3 -10  24   12.55    4.69
   3 -10  24   31.59   17.20
   3 -10  23    4.70    3.56
   3 -10  23   29.10   18.44
   3 -10  22   25.67    9.89
   3 -10  22   47.67   20.58
   3 -10  21   14.46    6.14
   3 -10  21   34.13   16.88
   3 -10  20    9.23    3.26
   3 -10  20    2.86   10.34
   3 -10  19    6.73    3.06
   3 -10  19   18.94   10.61
   3 -10  18    7.72    2.43
   3 -10  18   29.05   16.53
   3 -10  17    3.00    2.52
   3 -10  17    7.21   12.02
   3 -10  16   28.76    6.38
  -3  10 -16   26.27    5.90
   3 -10  16   33.12   17.17
   3 -10  15    3.49    2.97
  -3  10 -15    3.68    3.36
   3 -10  15    7.01   15.69
   3 -10  14   11.35    4.73
  -3  10 -14   12.01    3.99
   3 -10  14   -1.44   11.13
   3 -10  13   27.44    7.10
  -3  10 -13   26.10    8.05
   3 -10  13    9.95   11.11
  -3  10 -12   25.52    5.69
   3 -10  12   27.47   12.68
  -3  10 -11   53.27   11.78
  -3  10 -11   39.65    9.22
   3 -10  11   40.46   15.53
  -3  10 -10   44.49    9.55
  -3  10 -10   49.16   10.23
   3 -10  10   49.88   14.08
  -3  10  -9   17.64    5.02
  -3  10  -9   19.44    5.42
   3 -10   9   33.33   17.94
  -3  10  -8   92.50   12.56
  -3  10  -8  100.68    9.13
   3 -10   8   85.89   15.84
  -3  10  -7    2.82    1.69
  -3  10  -7    2.61    1.48
   3 -10   7   -1.01   11.47
  -3  10  -6   72.23    7.75
  -3  10  -6   66.63    7.27
   3 -10   6   36.30   12.12
  -3  10  -5  147.68   11.37
  -3  10  -5  136.29   10.55
   3 -10   5  172.99   20.38
  -3  10  -4    7.53    2.42
  -3  10  -4    6.46    2.24
   3 -10   4   14.80   12.05
  -3  10  -3  118.93   14.21
  -3  10  -3  127.79   10.29
   3 -10   3  121.20   16.12
  -3  10  -2   19.99    7.47
  -3  10  -2   22.90    7.09
   3 -10   2   37.62   13.05
  -3  10  -2    7.64    5.34
  -3  10  -1    7.22    2.88
   3 -10   1    5.35    2.55
   3 -10   1    1.02    6.50
  -3  10  -1   17.99    9.23
  -3  10   0   99.18   11.20
   3 -10   0  105.20   11.52
   3 -10   0  109.51   14.20
  -3  10   0   97.70   12.34
  -3  10   1   11.01    5.23
   3 -10  -1   16.51    5.60
   3 -10  -1   23.69    9.54
  -3  10   1    5.69    5.66
  -3  10   2  763.44   23.77
   3 -10  -2  821.93   24.72
   3 -10  -2  826.22   29.04
  -3  10   2  759.75   24.94
  -3  10   3   13.55    5.13
   3 -10  -3   15.35    4.14
   3 -10  -3   22.64    7.09
  -3  10   3   16.46    8.20
  -3  10   4  143.74   13.73
   3 -10  -4  141.17   12.34
   3 -10  -4  144.60   13.80
  -3  10   4  134.09   12.26
  -3  10   5   21.67    7.75
   3 -10  -5   18.51    5.73
   3 -10  -5   15.98    5.18
  -3  10   5   13.44    4.29
  -3  10   6    6.41    5.42
   3 -10  -6   13.33    4.39
   3 -10  -6   13.07    3.91
  -3  10   6    8.87    5.77
  -3  10   7  147.79   11.25
   3 -10  -7  139.88   15.73
  -3  10   7  143.85   16.81
  -3  10   8   23.92    9.77
   3 -10  -8   25.04    7.33
  -3  10   8   12.90    3.15
  -3  10   9   12.29    6.00
   3 -10  -9    7.64    3.27
  -3  10   9   11.74    5.17
  -3  10  10    6.05    5.68
   3 -10 -10    7.36    3.10
  -3  10  11   66.20   13.64
  -3  10  11   44.85    7.83
  -3  10  12  314.44   25.43
   3 -10 -12  202.59   22.26
  -3  10  12  223.00   15.58
  -3  10  13   32.93   13.46
   3 -10 -13   24.46   11.13
  -3  10  13   13.77    5.16
  -3  10  14  104.33   13.08
  -3  10  14   99.33    8.36
  -3  10  15   10.16    7.29
  -3  10  16   13.26    9.01
  -3  10  16    8.52    2.09
  -3  10  17   12.34    7.57
  -3  10  17    6.14    1.73
  -3  10  18    3.62    5.93
  -3  10  19    7.24    5.81
  -3  10  20    9.99    6.08
  -3  10  21    3.89    5.81
  -3  10  22   22.47   11.03
   3  -9  24    2.35    2.75
   3  -9  24    6.76   15.43
   3  -9  23    8.85    3.67
   3  -9  23    5.55   10.96
   3  -9  22    6.51    4.30
   3  -9  22    5.77   10.72
   3  -9  21   15.59    6.55
   3  -9  21   19.36   12.63
   3  -9  20   32.43   10.54
   3  -9  20   27.60   14.23
   3  -9  19   34.32   10.70
   3  -9  19   28.27   12.59
   3  -9  18   15.47    4.78
   3  -9  18   11.41   12.58
   3  -9  17   36.51    8.32
  -3   9 -17   38.10    8.17
   3  -9  17   39.58   16.50
   3  -9  16    4.18    2.17
  -3   9 -16    2.44    2.11
   3  -9  16    4.57   11.36
   3  -9  15  107.71    7.33
  -3   9 -15   91.98    5.77
   3  -9  15   98.04   17.71
   3  -9  14    4.29    2.01
  -3   9 -14    7.54    2.08
   3  -9  14   21.49   17.62
   3  -9  13   68.06   11.48
  -3   9 -13   65.06    9.97
   3  -9  13   80.11   23.14
   3  -9  12   31.48   11.00
  -3   9 -12   38.27    8.62
   3  -9  12   42.04   20.19
   3  -9  11   53.75   14.88
  -3   9 -11   58.14   10.89
   3  -9  11   60.19   16.10
  -3   9 -10   23.62    6.24
  -3   9 -10   31.26    6.97
   3  -9  10   26.90   14.51
  -3   9  -9  336.42   19.08
  -3   9  -9  324.13   18.55
   3  -9   9  331.59   32.54
  -3   9  -8   -0.48    1.49
  -3   9  -8    2.11    1.68
   3  -9   8   12.97   12.20
  -3   9  -7   20.52    5.75
  -3   9  -7   20.85    5.78
   3  -9   7   24.54   13.17
  -3   9  -6    4.06    1.05
  -3   9  -6    6.99    1.82
   3  -9   6   26.66   15.38
  -3   9  -5    4.67    0.95
  -3   9  -5    5.00    1.36
   3  -9   5    9.66   13.01
  -3   9  -4    2.79    1.11
  -3   9  -4    5.44    1.93
   3  -9   4   10.95    9.95
  -3   9  -4    3.01    4.73
  -3   9  -3  113.67   11.93
  -3   9  -3  114.02    7.38
   3  -9   3  121.03   12.68
  -3   9  -3  105.68   10.71
  -3   9  -2    3.05    1.48
  -3   9  -2    4.76    3.20
   3  -9   2    6.86    7.79
  -3   9  -2    2.59    5.17
  -3   9  -1  233.38   16.31
   3  -9   1  233.41   16.17
   3  -9   1  253.79   21.70
  -3   9  -1  230.48   17.94
  -3   9   0  329.83    9.97
   3  -9   0  328.40    9.93
   3  -9   0  313.38   23.85
  -3   9   0  288.95   21.41
  -3   9   1   15.31    3.81
   3  -9  -1   16.29    3.06
   3  -9  -1   24.11    8.30
  -3   9   1   17.94    5.41
  -3   9   2    5.57    4.95
   3  -9  -2    2.73    3.02
   3  -9  -2   12.44    6.02
  -3   9   2   21.25    8.70
  -3   9   3    5.14    5.58
   3  -9  -3    5.66    2.23
   3  -9  -3    8.73    5.43
  -3   9   3    5.36    7.25
  -3   9   4    5.83    5.65
   3  -9  -4    6.05    3.33
   3  -9  -4    3.17    2.71
  -3   9   4    1.77    4.32
  -3   9   5   13.49    6.84
   3  -9  -5    4.60    2.78
   3  -9  -5    5.19    2.73
  -3   9   5    1.79    4.19
  -3   9   6   11.23    4.89
   3  -9  -6   11.15    4.16
   3  -9  -6   10.96    4.09
  -3   9   6    6.91    5.63
  -3   9   7    2.88    5.11
   3  -9  -7    4.65    3.69
   3  -9  -7    5.09    2.23
  -3   9   7    5.44    3.48
  -3   9   8    6.52    5.12
   3  -9  -8    8.94    3.40
  -3   9   8    7.68    5.41
  -3   9   9   53.33   13.69
   3  -9  -9   44.26   10.40
  -3   9   9   36.48    8.42
  -3   9  10   37.53   11.62
   3  -9 -10   21.36    7.54
  -3   9  10   24.69    7.21
  -3   9  11   50.36   14.43
   3  -9 -11   27.53    8.17
  -3   9  11   33.14    7.10
  -3   9  12   10.31    7.84
   3  -9 -12    3.75    2.31
  -3   9  12    4.67    2.44
  -3   9  13    2.31    5.71
  -3   9  13    4.28    2.16
  -3   9  14    8.28    6.12
  -3   9  14    5.11    2.78
  -3   9  15   59.34   15.61
  -3   9  15   31.00    6.13
  -3   9  15   36.11    7.03
  -3   9  16   26.89   11.81
  -3   9  16   14.59    3.36
  -3   9  17    5.60    5.51
  -3   9  17    3.94    1.69
  -3   9  18   19.67    9.96
  -3   9  20    5.53    7.97
  -3   9  21    8.88    6.54
  -3   9  22    8.54    8.79
   3  -8  25    8.93    4.93
   3  -8  25   22.11   18.33
   3  -8  24    3.49    4.37
   3  -8  23    5.63    3.45
   3  -8  23    3.56    9.73
   3  -8  22   10.31    5.55
   3  -8  22    9.46   11.24
   3  -8  21    1.48    2.92
   3  -8  21   16.77   11.68
   3  -8  20   23.13    5.77
   3  -8  20   19.70   13.90
   3  -8  19    7.09    4.30
   3  -8  19   -2.06   10.95
   3  -8  18    9.96    3.33
   3  -8  18   27.00   17.47
   3  -8  17  149.73   13.20
  -3   8 -17  116.56    9.89
   3  -8  17  162.18   24.39
   3  -8  16   62.92   11.14
  -3   8 -16   56.22    9.45
   3  -8  16   39.30   10.61
   3  -8  15   65.58   11.07
  -3   8 -15   59.67    9.78
   3  -8  15   30.84   13.02
   3  -8  14  246.21   19.10
  -3   8 -14  254.04   19.04
   3  -8  14  254.95   29.23
   3  -8  13    7.11    2.85
  -3   8 -13    2.03    2.30
   3  -8  13   -2.13   12.24
   3  -8  12   50.22   10.03
  -3   8 -12   53.82   10.63
   3  -8  12   48.76   16.09
   3  -8  11   19.19    5.45
  -3   8 -11   24.16    6.21
   3  -8  11    0.43   13.97
   3  -8  10    3.17    1.80
  -3   8 -10    7.00    3.08
   3  -8  10   14.87   19.86
  -3   8  -9    4.74    1.89
   3  -8   9    9.06   13.27
  -3   8  -8  446.75    9.70
  -3   8  -8  452.76   10.43
   3  -8   8  483.01   29.73
  -3   8  -7    7.33    1.47
   3  -8   7   16.73   15.10
  -3   8  -6  161.58    9.09
  -3   8  -6  158.71    8.98
   3  -8   6  168.98   20.61
  -3   8  -6  128.62   11.03
  -3   8  -5   10.63    1.72
  -3   8  -5   18.51    3.33
   3  -8   5   16.89   13.29
  -3   8  -5   14.76    4.57
  -3   8  -4  343.50   11.67
  -3   8  -4  315.81   10.72
   3  -8   4  328.18   18.47
  -3   8  -4  342.57   16.87
  -3   8  -3   59.22    6.91
  -3   8  -3   55.05    6.49
   3  -8   3   42.61   11.22
  -3   8  -3   46.92    9.34
  -3   8  -2  160.27   11.13
  -3   8  -2  163.32   10.97
   3  -8   2  163.17   16.62
  -3   8  -2  155.08   13.04
  -3   8  -1   12.61    2.71
   3  -8   1   15.90    3.64
   3  -8   1   19.72    7.61
  -3   8  -1   21.34    6.35
  -3   8   0    1.72    2.21
   3  -8   0    6.59    5.64
  -3   8   0    4.54    4.30
  -3   8   1    5.09    2.98
   3  -8  -1    4.33    2.78
   3  -8  -1    0.64    4.47
  -3   8   1   -0.28    4.68
  -3   8   2  396.01   16.77
   3  -8  -2  377.83   14.50
   3  -8  -2  386.10   15.99
  -3   8   2  392.91   16.27
  -3   8   3   72.70   11.12
   3  -8  -3   63.09    8.16
   3  -8  -3   68.53   15.94
  -3   8   3   76.17   10.20
  -3   8   4  141.73   13.41
   3  -8  -4  131.58   10.00
   3  -8  -4  137.27   10.48
  -3   8   4  139.82   11.07
  -3   8   5    4.26    4.41
   3  -8  -5    5.15    3.87
   3  -8  -5    0.87    1.97
  -3   8   5    3.82    4.69
  -3   8   6  315.36   12.90
   3  -8  -6  291.93   20.70
   3  -8  -6  276.63   18.96
  -3   8   6  283.54   19.84
  -3   8   7   17.33    6.88
   3  -8  -7   27.78    8.60
   3  -8  -7   29.62    8.57
  -3   8   7   30.01    8.84
  -3   8   8   19.25    9.48
   3  -8  -8    6.62    3.01
   3  -8  -8   12.83    3.76
  -3   8   8   13.53    4.33
  -3   8   9   19.02    9.36
   3  -8  -9   19.20    7.10
  -3   8   9   17.33    5.57
  -3   8  10  124.84   17.17
   3  -8 -10   96.09   16.17
  -3   8  10  106.99    9.92
  -3   8  11   23.97    9.47
   3  -8 -11   11.03    2.61
  -3   8  11   31.18    6.98
  -3   8  12   11.31    9.32
  -3   8  12   13.93    2.61
  -3   8  13    4.09    2.18
  -3   8  14    2.97    1.35
  -3   8  14    4.56    1.56
  -3   8  15    4.70    2.49
  -3   8  15    1.64    1.12
  -3   8  16   25.70    6.98
  -3   8  16   30.81    6.18
  -3   8  17   38.96   12.28
  -3   8  17   21.67    3.83
  -3   8  18    9.45    5.72
  -3   8  19   20.62    9.87
  -3   8  20   21.62   10.00
  -3   8  21    8.65    6.54
  -3   8  22   16.21   10.14
  -3   8  23    5.94    5.40
   3  -7  25    6.12    5.69
   3  -7  25   14.62   15.22
   3  -7  24    5.94    4.66
   3  -7  24    6.19   13.00
   3  -7  23    8.82    4.79
   3  -7  22   30.90    9.36
   3  -7  22   13.56   10.93
   3  -7  21    8.71    4.38
   3  -7  21   26.41   11.28
   3  -7  20    2.45    3.03
   3  -7  20    7.07   10.68
   3  -7  19   95.93   10.62
   3  -7  19   86.17   18.98
   3  -7  18   10.76    5.31
   3  -7  18    1.00    9.49
   3  -7  17    0.85    3.34
  -3   7 -17    6.99    3.40
   3  -7  17    7.68   11.46
   3  -7  16  206.69   11.29
  -3   7 -16  163.80    7.95
   3  -7  16  182.57   21.46
   3  -7  15   28.86    7.08
  -3   7 -15   23.34    5.61
   3  -7  15   18.61   12.73
   3  -7  14    5.80    3.76
  -3   7 -14    5.22    3.49
   3  -7  14   -1.26   11.79
   3  -7  13  112.23   11.29
  -3   7 -13  105.44   10.01
   3  -7  13  108.59   21.75
   3  -7  12  207.55   16.74
  -3   7 -12  211.39   16.62
   3  -7  12  181.01   26.14
   3  -7  11   73.65    8.52
  -3   7 -11   73.99    9.68
   3  -7  11   90.04   21.51
   3  -7  10    4.91    2.05
  -3   7 -10    5.59    3.49
   3  -7  10   12.66   12.69
   3  -7   9   96.74   11.01
  -3   7  -9   87.87   10.26
   3  -7   9   85.67   18.05
   3  -7   8    1.67    1.13
  -3   7  -8   -0.30    1.40
   3  -7   8   14.50   10.31
  -3   7  -7  238.11   14.79
  -3   7  -7  259.46   16.23
   3  -7   7  251.91   21.93
  -3   7  -7  225.16   17.12
  -3   7  -6   73.09    7.99
   3  -7   6   96.49   17.20
  -3   7  -6   89.71   11.52
   3  -7   5  439.85   20.27
  -3   7  -5  395.21   15.82
  -3   7  -4  827.74   20.73
   3  -7   4  822.17   28.67
  -3   7  -4  827.85   26.46
  -3   7  -3  258.49   12.40
   3  -7   3  269.15   20.18
  -3   7  -3  281.47   10.79
  -3   7  -2  155.21   18.26
  -3   7  -2  132.29   15.62
   3  -7   2  165.46   16.65
  -3   7  -2  134.97   17.25
  -3   7  -1  498.35   14.11
   3  -7   1  530.48   15.07
   3  -7   1  533.53   20.70
  -3   7  -1  502.63   17.74
  -3   7   0    0.17    1.94
   3  -7   0    6.43    2.77
   3  -7   0   14.25    8.53
  -3   7   0   11.35    4.48
  -3   7   1   25.02    5.09
   3  -7  -1   25.21    4.90
   3  -7  -1   23.81    8.68
  -3   7   1   27.17    6.45
  -3   7   2    1.15    3.43
   3  -7  -2    3.49    2.19
   3  -7  -2    4.97    3.83
  -3   7   2    8.22    6.46
  -3   7   3  153.92   19.42
   3  -7  -3  163.20    9.63
   3  -7  -3  150.60   20.02
  -3   7   3  150.93   18.82
  -3   7   4   18.81    5.03
   3  -7  -4   19.77    4.30
   3  -7  -4   18.52    5.13
  -3   7   4   15.66    3.44
  -3   7   5  349.33   16.09
   3  -7  -5  367.74   15.02
   3  -7  -5  341.56   12.92
  -3   7   5  350.60   13.87
  -3   7   6 1225.35   42.22
   3  -7  -6 1275.79   42.83
   3  -7  -6 1228.92   39.78
  -3   7   6 1222.61   39.64
  -3   7   7   95.79   11.66
   3  -7  -7   99.29    8.63
   3  -7  -7   96.10    6.99
  -3   7   7   91.57    5.43
  -3   7   8  320.69   14.59
   3  -7  -8  353.87   13.16
   3  -7  -8  332.46    9.23
  -3   7   8  322.18    8.81
  -3   7   9  109.14   16.52
   3  -7  -9   96.74   11.56
   3  -7  -9   94.02   13.76
  -3   7   9  101.18   10.67
   3  -7 -10   71.11   11.55
  -3   7  10  137.58   10.73
  -3   7  11    5.86    2.33
  -3   7  12    3.09    2.39
  -3   7  13   16.32    4.14
  -3   7  13   19.18    4.63
  -3   7  14   31.67   10.05
  -3   7  14   18.79    4.43
  -3   7  14   22.41    4.33
  -3   7  15   26.02   10.90
  -3   7  15   15.14    5.11
  -3   7  15   18.15    5.29
  -3   7  16   19.08   10.63
  -3   7  16   11.05    3.02
  -3   7  16   11.61    2.12
  -3   7  17    3.31    7.41
  -3   7  17    2.21    1.15
  -3   7  18   18.16    8.69
  -3   7  19    6.67    7.86
  -3   7  19    6.18    1.32
  -3   7  20    8.57    6.60
  -3   7  21   20.03    8.79
  -3   7  22    8.21    6.18
  -3   7  23    5.57    8.24
  -3   7  24   10.83    7.79
   3  -6  26    3.30    4.99
   3  -6  26    5.48    9.98
   3  -6  25    0.89    3.30
   3  -6  25    2.31    9.15
   3  -6  24    4.08    3.66
   3  -6  24    3.99    8.66
   3  -6  23    4.52    5.07
   3  -6  22    8.29   12.63
   3  -6  21    5.83    5.47
   3  -6  21   -1.64   10.30
   3  -6  20   32.39   10.55
   3  -6  20   18.08   10.93
   3  -6  19   41.21   10.09
   3  -6  19   36.01   13.61
   3  -6  18   54.29   11.20
   3  -6  18   29.13   16.45
   3  -6  17   12.60    5.98
  -3   6 -17   18.28    6.34
   3  -6  17   14.85   11.08
   3  -6  16   11.73    5.64
  -3   6 -16    5.30    3.03
   3  -6  16   -1.27   10.68
   3  -6  15    8.35    3.09
  -3   6 -15   11.40    3.03
   3  -6  15   18.79   12.48
   3  -6  14    9.00    3.96
  -3   6 -14    7.78    3.40
   3  -6  14   11.37   16.54
   3  -6  13   16.40    5.21
  -3   6 -13   21.57    6.03
   3  -6  13   21.69   13.88
   3  -6  12   50.55    9.60
  -3   6 -12   49.42    9.20
   3  -6  12   64.94   17.22
   3  -6  11    6.65    3.63
  -3   6 -11    5.25    2.39
   3  -6  11   10.10   11.94
   3  -6  10  139.51    9.01
  -3   6 -10  148.57    9.07
   3  -6  10  183.41   25.23
   3  -6   9   99.93   11.40
  -3   6  -9   92.83   10.43
   3  -6   9   77.37   13.99
   3  -6   8   12.13    2.32
  -3   6  -8   10.29    1.97
   3  -6   8   15.83   10.23
  -3   6  -8    7.56    3.22
   3  -6   7    5.65    1.78
  -3   6  -7    9.23    1.41
   3  -6   7   10.12    9.82
  -3   6  -7   16.56    4.90
   3  -6   6   91.52   17.89
  -3   6  -6   72.60   10.59
   3  -6   5  250.15   18.22
  -3   6  -5  235.70   14.47
   3  -6   4 1038.80   40.29
  -3   6  -4 1113.74   41.13
   3  -6   3    8.34    8.23
  -3   6  -3    7.31    5.77
  -3   6  -2  655.20   22.61
   3  -6   2  638.04   26.76
  -3   6  -2  618.58   24.45
  -3   6  -1   37.44    3.78
   3  -6   1   43.98    7.93
  -3   6  -1   40.07    5.81
  -3   6   0   12.22    3.22
   3  -6   0    6.48    1.54
   3  -6   0   17.00    8.18
  -3   6   0    7.71    5.29
  -3   6   1   87.18    8.06
   3  -6  -1   80.59    7.08
   3  -6  -1   87.99    7.95
  -3   6   1   85.61    8.84
  -3   6   2   68.91    7.11
   3  -6  -2   81.15    7.83
   3  -6  -2   71.13    8.52
  -3   6   2   73.26    7.35
  -3   6   3   70.24    7.93
   3  -6  -3   78.54    8.10
   3  -6  -3   65.66    6.74
  -3   6   3   72.62    7.46
  -3   6   4   43.32    7.75
   3  -6  -4   85.02   11.42
   3  -6  -4   58.48    8.66
  -3   6   4   55.87    8.86
  -3   6   5  136.96   18.40
   3  -6  -5  154.32   18.85
   3  -6  -5  171.02   10.35
  -3   6   5  147.27   17.69
  -3   6   6 1604.49   44.83
   3  -6  -6 1661.87   45.49
   3  -6  -6 1571.77   40.77
  -3   6   6 1537.76   39.98
  -3   6   7   36.41    8.97
   3  -6  -7   43.16    8.47
   3  -6  -7   42.20    7.50
  -3   6   7   28.95    5.65
   3  -6  -8  381.13   16.29
   3  -6  -8  386.61   13.35
  -3   6   8  374.52   12.91
   3  -6  -9   23.58    7.19
  -3   6   9   18.70    2.26
  -3   6  10   72.29    7.40
  -3   6  11   18.26    7.76
  -3   6  11   14.29    2.90
  -3   6  12   23.78    8.92
  -3   6  13   52.96   13.49
  -3   6  13   40.93    8.06
  -3   6  14    7.61    9.71
  -3   6  14    3.29    0.98
  -3   6  15   20.84    9.01
  -3   6  15   14.95    5.28
  -3   6  16    3.92    5.32
  -3   6  16    3.67    0.90
  -3   6  16    4.70    1.18
  -3   6  17    3.83    5.33
  -3   6  17    4.54    1.26
  -3   6  18  146.58   17.65
  -3   6  18   99.33    7.32
  -3   6  18   95.71    7.28
  -3   6  19    4.59    5.46
  -3   6  19    5.23    1.56
  -3   6  20    5.67    6.13
  -3   6  21    2.04    5.65
  -3   6  22    7.69    5.83
  -3   6  23   14.13    8.49
  -3   6  24    9.80    5.67
   3  -5  26    4.05    8.81
   3  -5  25    8.47    6.45
   3  -5  25   22.74    9.92
   3  -5  24    6.06    4.35
   3  -5  24    5.66   12.13
   3  -5  23   35.91   11.28
   3  -5  23   36.98   17.68
   3  -5  22    5.54    4.03
   3  -5  21   75.98   10.93
   3  -5  21   21.43    9.49
   3  -5  20    9.19    4.16
   3  -5  20   27.11   15.78
   3  -5  19   51.37   11.88
   3  -5  19   67.05   19.47
   3  -5  18    4.32    3.55
   3  -5  18   13.81   10.31
   3  -5  17   46.08    9.35
  -3   5 -17   45.16    8.02
   3  -5  17   51.36   15.33
   3  -5  16   26.42    7.46
  -3   5 -16   23.42    5.41
   3  -5  16   28.86   11.09
   3  -5  15  106.36   13.33
  -3   5 -15   98.54   11.87
   3  -5  15  110.32   20.51
   3  -5  14   17.63    6.38
  -3   5 -14   29.88    6.81
   3  -5  14   25.70   17.81
   3  -5  13  232.29   18.87
  -3   5 -13  205.42   16.03
   3  -5  13  215.54   24.21
   3  -5  12   71.93    9.15
  -3   5 -12   80.00    8.80
   3  -5  12   62.52   13.24
   3  -5  11  507.27   13.33
  -3   5 -11  473.32   11.48
   3  -5  11  494.07   22.01
   3  -5  10    5.05    3.01
  -3   5 -10   10.21    2.57
   3  -5  10    0.77    9.18
   3  -5   9  300.96   11.51
  -3   5  -9  290.47    6.12
   3  -5   9  323.34   19.77
  -3   5  -9  269.56   19.48
   3  -5   8    2.76    2.15
  -3   5  -8    5.76    1.59
   3  -5   8    0.71    8.51
  -3   5  -8    6.51    4.40
   3  -5   7  164.16    8.58
  -3   5  -7  164.42    8.28
   3  -5   7  181.37   19.78
  -3   5  -7  171.58   11.72
   3  -5   6  109.91   11.55
  -3   5  -6  117.17    7.49
   3  -5   5  524.42   24.29
  -3   5  -5  543.83   22.44
   3  -5   4   10.05   10.66
  -3   5  -4    7.33    4.80
   3  -5   3   16.05   10.19
  -3   5  -3    5.79    2.76
   3  -5   2    5.63    6.34
  -3   5  -2   11.78    5.38
  -3   5  -1  110.45   12.04
   3  -5   1  119.05   12.98
   3  -5   1  117.78   15.84
  -3   5  -1  116.60   13.73
  -3   5   0    3.38    2.30
   3  -5   0    3.17    1.44
   3  -5   0    3.94    7.26
  -3   5   0    2.70    3.55
  -3   5   1    1.97    2.49
   3  -5  -1    2.60    2.59
   3  -5  -1   -1.59    4.73
  -3   5   1    1.08    2.27
  -3   5   2    4.65    3.58
   3  -5  -2    5.82    2.43
   3  -5  -2    5.07    6.23
  -3   5   2    5.17    3.56
  -3   5   3   70.53    7.46
   3  -5  -3   68.78    7.16
   3  -5  -3   62.59   10.29
  -3   5   3   66.53    6.63
  -3   5   4   14.13    5.69
   3  -5  -4    6.93    3.06
   3  -5  -4    6.95    2.20
  -3   5   4    4.14    3.45
  -3   5   5  296.62   14.29
   3  -5  -5  269.70   12.71
   3  -5  -5  276.64   11.14
  -3   5   5  259.33   10.81
  -3   5   6    1.29    4.43
   3  -5  -6    6.30    5.36
   3  -5  -6    3.97    1.46
  -3   5   6    0.91    1.33
  -3   5   7   17.99    5.70
   3  -5  -7   11.48    3.06
   3  -5  -7   14.80    3.01
   3  -5  -8   52.14    8.41
  -3   5   9   45.45    9.94
   3  -5  -9   46.90    9.32
  -3   5  10   27.38   10.90
  -3   5  11    7.37    7.59
  -3   5  12   20.09    7.46
  -3   5  13   14.18    8.99
  -3   5  14   17.85   10.32
  -3   5  15  115.08   19.59
  -3   5  16   12.82    6.26
  -3   5  16   13.70    4.33
  -3   5  16    9.07    1.25
  -3   5  17    7.24    6.76
  -3   5  17    4.23    1.27
  -3   5  17    9.92    2.06
  -3   5  18   13.63    6.33
  -3   5  18    9.68    1.40
  -3   5  18    8.05    1.91
  -3   5  19   36.39   12.82
  -3   5  19   11.81    3.27
  -3   5  19   14.42    3.58
  -3   5  20    6.09    5.66
  -3   5  20    1.47    1.22
  -3   5  21   13.06    8.14
  -3   5  22    4.66    5.05
  -3   5  23    6.50    5.42
  -3   5  24    3.27    6.86
  -3   5  25    9.02    5.42
   3  -4  26    8.72    4.96
   3  -4  26    9.35    9.55
   3  -4  25    5.72    3.88
   3  -4  25   17.82   12.71
   3  -4  24   10.84    4.31
   3  -4  24   16.86   10.13
   3  -4  23   48.98    9.68
   3  -4  23   37.29   13.16
   3  -4  22    5.48    6.84
   3  -4  22    8.27    8.42
   3  -4  21   15.49    7.96
   3  -4  21   14.54   12.74
   3  -4  20   80.01   10.95
   3  -4  20   81.42   17.86
   3  -4  19   33.22   11.19
   3  -4  19   31.11   12.52
   3  -4  18   70.32   13.51
   3  -4  18   60.05   14.47
   3  -4  17    8.80    5.56
   3  -4  17   23.12   13.91
   3  -4  16  105.79   14.20
  -3   4 -16   84.23   10.14
   3  -4  16  102.53   19.03
   3  -4  15   61.20   12.73
  -3   4 -15   52.88   10.06
   3  -4  15   56.46   20.14
   3  -4  14    7.18    5.99
  -3   4 -14   23.44    6.68
   3  -4  14   11.57   11.79
   3  -4  13  550.21   18.58
  -3   4 -13  491.30   15.89
   3  -4  13  526.90   25.66
   3  -4  12   12.70    5.26
  -3   4 -12   19.73    3.20
   3  -4  12   23.94   11.59
   3  -4  11  683.80   16.24
  -3   4 -11  704.29   15.78
   3  -4  11  662.54   23.26
   3  -4  10  325.84   13.09
  -3   4 -10  387.48   14.21
   3  -4  10  340.47   19.52
   3  -4   9  413.92   13.84
  -3   4  -9  435.48   12.97
   3  -4   9  380.21   19.96
   3  -4   8  397.99   12.05
  -3   4  -8  402.69   11.80
   3  -4   8  406.64   18.23
  -3   4  -8  386.93   15.43
   3  -4   7   34.01    5.99
  -3   4  -7   37.19    3.59
   3  -4   7   36.48   10.90
  -3   4  -7   28.89    6.82
   3  -4   6  132.90    3.26
  -3   4  -6  130.62    2.96
   3  -4   6  119.54   11.45
  -3   4  -6  126.21    7.80
   3  -4   5   13.72    9.58
  -3   4  -5   12.23    4.50
   3  -4   4  253.53   13.95
  -3   4  -4  246.94   12.15
   3  -4   3   72.16   11.01
  -3   4  -3   63.42    9.03
   3  -4   2  270.78   14.79
  -3   4  -2  279.60   12.53
   3  -4   1   21.50    4.83
   3  -4   1   33.59    9.44
  -3   4  -1   15.08    4.65
  -3   4   0  659.73    8.78
   3  -4   0  688.21    8.90
   3  -4   0  664.87   15.30
  -3   4   0  636.20   11.15
  -3   4   1  620.40   20.44
   3  -4  -1  643.08    9.50
   3  -4  -1  635.47   12.17
  -3   4   1  612.30   20.97
  -3   4   2    9.16    4.04
   3  -4  -2    6.51    3.65
   3  -4  -2    0.46    3.44
  -3   4   2    2.87    2.86
  -3   4   3   91.08   10.94
   3  -4  -3   77.29    9.50
   3  -4  -3   85.75   10.18
  -3   4   3  100.76   11.51
  -3   4   4    6.32    2.49
   3  -4  -4   13.27    6.81
   3  -4  -4    9.80    3.07
  -3   4   4   13.80    3.55
  -3   4   5  221.76   11.41
   3  -4  -5  225.03   10.92
   3  -4  -5  219.47    3.42
  -3   4   6  263.40   14.09
   3  -4  -6  235.27   11.79
  -3   4   7   11.32    4.00
   3  -4  -7   19.23    6.87
  -3   4   8   17.32    6.02
   3  -4  -8   11.50    3.21
  -3   4   9  190.18   15.32
   3  -4  -9  165.18   14.24
  -3   4  10  318.20   16.31
   3  -4 -10  316.11   14.89
  -3   4  11   -2.51    5.62
  -3   4  12   85.70   19.27
  -3   4  13   71.04   16.01
  -3   4  14  131.58   16.56
  -3   4  15    1.66    0.77
  -3   4  15    5.30    1.28
  -3   4  16  221.92   20.88
  -3   4  16  184.75   13.11
  -3   4  16  177.51   12.84
  -3   4  17   11.95    8.59
  -3   4  17    0.93    0.66
  -3   4  17    1.25    1.50
  -3   4  18   11.86    5.25
  -3   4  18   10.50    1.47
  -3   4  18   14.49    5.00
  -3   4  19   22.94   11.37
  -3   4  19   20.53    8.49
  -3   4  19   30.17    6.21
  -3   4  20    2.79    5.76
  -3   4  20    4.65    2.76
  -3   4  21    7.74    6.45
  -3   4  21    1.56    2.08
  -3   4  22    8.14    7.20
  -3   4  23    9.53    5.51
  -3   4  24   13.73    6.94
  -3   4  25   18.32    9.19
   3  -3  26    7.09    4.32
   3  -3  26    7.50   12.91
   3  -3  25   97.72   11.73
   3  -3  25   50.99   17.04
   3  -3  24    5.51    4.17
   3  -3  24    5.90    9.01
   3  -3  23    1.43    3.58
   3  -3  23   10.66   11.26
   3  -3  22   11.27    5.84
   3  -3  22   21.58   11.51
   3  -3  21    6.60    6.25
   3  -3  20    9.68    6.33
   3  -3  20   19.31   14.36
   3  -3  19   48.31   11.65
   3  -3  19   23.32   11.95
   3  -3  18    8.50    6.26
   3  -3  18    9.66    8.13
   3  -3  17   13.74    4.62
   3  -3  17   19.32   10.49
   3  -3  16   65.39   14.57
  -3   3 -16   57.17   10.86
   3  -3  15   88.94   11.35
  -3   3 -15   91.75    9.38
   3  -3  15   87.33   14.97
   3  -3  14   61.00    9.49
  -3   3 -14   66.50    8.30
   3  -3  14   47.94   13.44
   3  -3  13   12.15    7.72
  -3   3 -13    3.60    2.63
   3  -3  13    4.70    8.54
   3  -3  12  187.47   14.85
  -3   3 -12  212.59   15.23
   3  -3  12  211.60   19.52
   3  -3  11   10.41    5.11
  -3   3 -11    1.85    1.87
   3  -3  11    4.22    6.57
   3  -3  10    3.03    5.08
  -3   3 -10    1.47    1.64
   3  -3  10    3.58    6.74
   3  -3   9  393.66   13.32
  -3   3  -9  386.15   12.14
   3  -3   9  417.18   18.16
   3  -3   8    6.66    3.67
  -3   3  -8    9.39    2.32
   3  -3   8    1.92    6.40
   3  -3   7  532.81   19.48
  -3   3  -7  533.60   19.17
   3  -3   7  511.71   22.33
   3  -3   6  234.75    9.46
  -3   3  -6  233.06    9.05
   3  -3   5    9.17    2.83
  -3   3  -5   13.70    3.28
   3  -3   5    8.26    9.02
   3  -3   4   30.33    7.79
   3  -3   4   23.66    7.78
   3  -3   3    3.86    0.72
   3  -3   3    6.32    0.98
   3  -3   3    7.95    6.54
   3  -3   2  159.71    6.02
   3  -3   2  162.25   10.05
  -3   3  -1  642.91    7.99
   3  -3   1  620.30   19.63
   3  -3   1  663.84   13.46
  -3   3   0  157.56    6.72
   3  -3   0  163.19    7.06
   3  -3   0  178.04    9.47
  -3   3   1  138.04   15.45
   3  -3  -1  143.34    5.18
   3  -3  -1  136.12   15.89
  -3   3   2    5.84    2.19
   3  -3  -2    6.01    1.74
   3  -3  -2    9.21    5.13
  -3   3   3 2146.64   24.52
   3  -3  -3 2256.59   25.10
   3  -3  -3 2104.19   20.48
  -3   3   4   14.23    4.76
   3  -3  -4    8.71    4.22
   3  -3  -4    8.72    2.18
  -3   3   5   67.36    9.33
   3  -3  -5   69.58    9.81
  -3   3   6  454.56   11.34
   3  -3  -6  442.82   19.18
  -3   3   7   74.91   10.13
   3  -3  -7   74.78    9.46
  -3   3   8  296.30   12.83
   3  -3  -8  307.53   14.00
  -3   3   9  459.90   18.47
   3  -3  -9  478.60   17.86
  -3   3  10   48.63   10.04
   3  -3 -10   71.08   10.19
  -3   3  11   10.88    5.31
  -3   3  12  505.42   17.45
  -3   3  13  539.38   21.51
  -3   3  14   48.58   12.53
  -3   3  14   60.18   11.14
  -3   3  15  190.63   13.56
  -3   3  15  201.11   14.40
  -3   3  16   33.30   10.15
  -3   3  16   37.31    8.01
  -3   3  16   38.71    8.53
  -3   3  17    3.48    4.91
  -3   3  17    0.48    0.85
  -3   3  17    1.93    2.05
  -3   3  18    4.64    5.12
  -3   3  18    7.86    1.77
  -3   3  18   13.19    2.70
  -3   3  19    9.18    5.57
  -3   3  19    3.48    1.80
  -3   3  19    3.14    1.81
  -3   3  20    5.75    5.93
  -3   3  20    1.23    1.18
  -3   3  21    5.65    7.96
  -3   3  21    2.75    1.82
  -3   3  22   72.02   13.06
  -3   3  22   52.47   11.90
  -3   3  23    5.74    5.03
  -3   3  24   10.93    7.00
  -3   3  25    3.34    4.56
  -3   3  26   10.54    5.52
   3  -2  26   22.01    6.30
   3  -2  26   11.18    8.53
   3  -2  25    7.22    4.82
   3  -2  25   15.40   12.37
   3  -2  24   16.34    7.80
   3  -2  24   15.43    9.49
   3  -2  23    7.83    5.12
   3  -2  23   19.27   12.83
   3  -2  22   14.89    9.40
   3  -2  22   18.00   13.10
   3  -2  21    2.59    4.52
   3  -2  21    7.82    8.10
   3  -2  20   14.17    5.78
   3  -2  19   12.07    5.51
   3  -2  19   20.09   10.83
   3  -2  18   13.57    6.33
   3  -2  18   27.97   10.60
   3  -2  17    8.16    5.70
   3  -2  17   27.10   12.77
   3  -2  16   76.40   15.38
   3  -2  16   81.20   14.52
   3  -2  15   19.80    7.28
  -3   2 -15    6.76    2.69
   3  -2  15   15.88   13.18
   3  -2  14    3.75    4.99
  -3   2 -14    3.56    2.45
   3  -2  14   10.67    7.46
   3  -2  13   11.13    5.14
  -3   2 -13    4.35    1.86
   3  -2  13    7.77    9.39
   3  -2  12   70.70   10.86
  -3   2 -12   89.98   10.78
   3  -2  12   77.58   12.95
   3  -2  11    6.52    5.90
  -3   2 -11   12.72    2.71
   3  -2  11   18.23    7.00
   3  -2  10   57.75    5.95
  -3   2 -10   70.59    9.07
   3  -2  10   69.47   12.38
   3  -2   9  140.72   17.41
  -3   2  -9  141.39   17.05
   3  -2   9  141.10   19.21
   3  -2   8   45.60    6.31
  -3   2  -8   53.55    5.28
   3  -2   8   61.58    8.92
   3  -2   7    5.75    2.07
  -3   2  -7   10.87    2.76
   3  -2   7   33.90    9.53
   3  -2   6    7.35    3.37
  -3   2  -6    3.47    2.23
   3  -2   5  179.66    7.57
  -3   2  -5  180.12    7.78
   3  -2   5  176.36   11.19
   3  -2   4   27.86    6.49
  -3   2  -4   33.03    7.44
   3  -2   4   28.38    8.27
   3  -2   3   61.52    7.91
   3  -2   3   67.84    7.78
   3  -2   3   63.36    9.59
   3  -2   2  112.34    3.43
   3  -2   2  103.13    3.64
   3  -2   2   95.90    6.11
  -3   2  -1  493.50   16.52
   3  -2   1  466.09   15.25
   3  -2   1  431.76   19.34
  -3   2   0 1496.80   17.01
   3  -2   0 1499.42   18.88
  -3   2   1   93.39    5.22
   3  -2  -1   95.48    4.83
   3  -2  -1   99.92    5.38
  -3   2   2  133.40    6.34
   3  -2  -2  117.38   10.75
   3  -2  -2  136.30    6.59
   3  -2  -2  123.37    4.87
  -3   2   3  113.86   13.33
   3  -2  -3  122.97   14.43
   3  -2  -3  105.16   11.80
   3  -2  -3  110.08   12.49
  -3   2   4  329.92   14.12
   3  -2  -4  355.22    9.18
   3  -2  -4  352.98    5.25
   3  -2  -4  311.18   11.45
  -3   2   5  373.06   14.97
   3  -2  -5  365.52   14.68
   3  -2  -5  397.18   12.32
  -3   2   6    5.80    3.55
   3  -2  -6    1.44    5.49
  -3   2   7   98.05    6.70
   3  -2  -7   94.01    6.92
  -3   2   8   74.43    8.88
   3  -2  -8   75.78    8.57
  -3   2   9  226.10   15.72
   3  -2  -9  228.97   14.08
  -3   2  10  241.40   18.56
   3  -2 -10  240.49   18.13
  -3   2  11   51.66   10.14
   3  -2 -11   40.03    8.92
  -3   2  12  676.36   20.98
  -3   2  13   -6.28    5.75
  -3   2  13    2.90    0.96
  -3   2  13    3.69    1.49
  -3   2  14   20.71   10.12
  -3   2  14    3.87    1.26
  -3   2  14    6.59    2.07
  -3   2  15   45.73   11.67
  -3   2  15   48.08    9.59
  -3   2  15   60.05   12.13
  -3   2  16   10.53    6.14
  -3   2  16    4.36    2.26
  -3   2  16    8.29    2.55
  -3   2  17   69.07   14.14
  -3   2  17   42.06   12.97
  -3   2  17   61.61   12.43
  -3   2  18    9.24    5.12
  -3   2  18    6.03    1.91
  -3   2  18    9.44    2.88
  -3   2  19    6.44    6.94
  -3   2  19    1.67    1.39
  -3   2  19    4.26    3.21
  -3   2  20   13.81    7.28
  -3   2  20    3.53    1.57
  -3   2  20    2.37    2.23
  -3   2  21   10.81    6.09
  -3   2  21   11.14    3.80
  -3   2  22   39.13   15.02
  -3   2  22   20.11    8.51
  -3   2  23    0.97    4.51
  -3   2  23    3.62    2.50
  -3   2  24    1.65    4.53
  -3   2  25   11.89    7.93
  -3   2  26    8.48    6.01
   3  -1  26   22.19    7.22
   3  -1  26   12.78    8.91
   3  -1  25   36.64   11.00
   3  -1  25   11.95    7.92
   3  -1  24   14.52    8.38
   3  -1  24   14.23   12.47
   3  -1  23   21.74   12.75
   3  -1  22    9.97    7.13
   3  -1  22    2.80    7.45
   3  -1  21    7.37    5.26
   3  -1  21   10.30    8.14
   3  -1  20   19.60   11.76
   3  -1  19   50.91   11.74
   3  -1  18    9.68    6.07
   3  -1  18   13.73    7.99
   3  -1  17   25.39    8.16
   3  -1  17   29.00   12.62
   3  -1  16  134.62   19.58
   3  -1  16  126.52   18.49
   3  -1  15   62.23   15.05
  -3   1 -15   54.26   10.93
   3  -1  15   76.71   11.84
   3  -1  14    8.25    6.29
  -3   1 -14    0.79    2.36
   3  -1  14    1.51    6.21
   3  -1  13   14.04    4.53
  -3   1 -13   20.07    3.19
   3  -1  13   16.88    7.58
  -3   1 -12   16.46    3.62
   3  -1  12   12.48    5.63
   3  -1  11   49.66   10.02
  -3   1 -11   57.29    7.68
   3  -1  11   88.44   24.84
   3  -1  11   53.27    9.88
   3  -1  10  136.94   17.89
  -3   1 -10  153.69   18.59
   3  -1  10  168.92   13.80
   3  -1   9  532.90   21.18
  -3   1  -9  511.75   19.61
   3  -1   9  535.33   24.23
   3  -1   8    3.45    4.99
  -3   1  -8    6.66    3.17
   3  -1   8  -12.48   10.07
   3  -1   8    5.75    3.89
  -3   1  -7 1154.00   15.72
   3  -1   7 1132.93   21.44
   3  -1   6  196.32    8.78
  -3   1  -6  198.11    8.80
   3  -1   5  520.60   17.52
  -3   1  -5  532.95   18.22
   3  -1   5  522.97   21.07
   3  -1   4   84.85    9.78
  -3   1  -4   85.80   10.33
   3  -1   4  172.34   43.39
   3  -1   3   44.95    6.63
   3  -1   3   89.15   27.76
   3  -1   2   96.55    5.75
   3  -1   2  109.07    4.38
   3  -1   2  119.43   20.70
   3  -1   1    3.53    1.65
   3  -1   1    8.32    2.77
   3  -1   1    7.99    4.04
  -3   1   0   22.00    6.17
   3  -1   0   17.66    3.90
   3  -1   0   15.02    5.02
  -3   1   1  306.11   11.94
   3  -1  -1  304.42   11.49
   3  -1  -1  305.21   11.73
  -3   1   2   15.35    3.53
   3  -1  -2   11.87    3.19
   3  -1  -2   18.46    4.75
  -3   1   3 1329.38   18.70
   3  -1  -3 1336.21   17.96
   3  -1  -3 1338.63   15.44
  -3   1   4   24.64    6.98
   3  -1  -4   16.67    5.28
  -3   1   4   10.78    6.09
   3  -1  -4   16.44    3.96
  -3   1   5    1.40    1.07
  -3   1   6    0.77    3.70
   3  -1  -6    8.53    5.25
   3  -1  -6    0.99    1.07
  -3   1   7    5.44    4.31
   3  -1  -7    7.87    4.21
  -3   1   7    1.55    0.88
   3  -1  -7    2.45    1.06
  -3   1   8  493.23   21.50
   3  -1  -8  485.55   20.06
  -3   1   9   17.04    8.42
   3  -1  -9   13.89    5.97
  -3   1  10   43.12    7.74
   3  -1 -10   47.85    8.64
  -3   1  10   61.89    2.73
  -3   1  11    5.71    7.61
   3  -1 -11    1.91    4.40
  -3   1  11    2.08    1.07
  -3   1  12   97.80    9.74
  -3   1  12  122.49    7.30
  -3   1  14   10.56    9.00
  -3   1  14    2.66    2.24
  -3   1  14   20.89    6.10
  -3   1  15   10.79    6.31
  -3   1  15    6.01    3.12
  -3   1  15    7.22    2.66
  -3   1  16   13.82    5.68
  -3   1  16    0.43    1.31
  -3   1  16    3.13    1.70
  -3   1  17    5.74    6.62
  -3   1  17    0.94    0.88
  -3   1  17    5.53    2.31
  -3   1  18   45.95   11.19
  -3   1  18    1.73    1.93
  -3   1  18   43.33   10.67
  -3   1  19   23.66   11.14
  -3   1  19    5.02    2.27
  -3   1  19   10.51    2.91
  -3   1  20   12.89    7.23
  -3   1  20    4.93    2.09
  -3   1  20    9.32    3.28
  -3   1  21   10.42    5.91
  -3   1  21   20.87    5.83
  -3   1  22   14.21    9.54
  -3   1  22   16.05    7.26
  -3   1  23   13.45    7.54
  -3   1  23    6.71    2.91
  -3   1  24    2.85    4.28
  -3   1  25    3.11    5.06
  -3   1  26    3.36    5.78
   3   0  26   11.81    7.06
   3   0  26    9.97   10.16
   3   0  25   20.32   11.55
   3   0  25   16.30    8.97
   3   0  24    4.34    5.17
   3   0  24    7.01    7.81
   3   0  23    6.44    5.21
   3   0  23    9.41    7.61
   3   0  22   37.19   13.03
   3   0  22   47.78   11.98
   3   0  21    8.27   11.12
   3   0  21    8.44    6.89
   3   0  20   10.61    7.03
   3   0  20    7.46    6.24
   3   0  19   36.14   14.36
   3   0  18   27.04   11.52
   3   0  18   26.92    7.80
   3   0  17   24.36    9.74
   3   0  17   16.39    6.35
   3   0  16   32.20    9.82
   3   0  16   42.12   12.72
   3   0  15   86.95   12.16
   3   0  15   95.88   12.60
   3   0  14   42.15   11.34
  -3   0 -14   39.12    7.99
   3   0  14   28.49   10.21
   3   0  13   52.94   11.91
  -3   0 -13   43.08    9.98
   3   0  13   21.94    7.50
   3   0  12   32.71   10.48
  -3   0 -12   30.89    7.31
   3   0  12   55.33   11.91
   3   0  11   12.36    5.34
  -3   0 -11   26.68    5.38
   3   0  11   26.16    7.10
   3   0  11   27.75    9.22
   3   0  10   19.58    6.63
  -3   0 -10   22.77    4.73
   3   0  10   15.42    6.00
   3   0  10   16.26    5.31
   3   0   9  137.22    8.44
  -3   0  -9  111.40    5.51
   3   0   9  100.59   22.75
   3   0   8    7.92    3.20
  -3   0  -8    5.57    2.31
   3   0   8   -0.48    4.47
   3   0   7  916.08   13.98
  -3   0  -7  917.37   14.22
   3   0   7 1021.51   21.46
   3   0   6  151.36    7.93
  -3   0  -6  148.12    7.46
   3   0   6  157.06   21.36
   3   0   5  370.29   13.52
  -3   0  -5  377.70   14.05
   3   0   5  449.38   19.43
   3   0   4  679.69   11.16
  -3   0  -4  696.46   12.15
   3   0   4  724.78   20.36
  -3   0  -3  925.47   14.19
   3   0   2  117.00    8.13
   3   0   2  116.87    5.28
   3   0   2  124.89    6.59
   3   0   1    4.01    1.57
   3   0   1    5.70    2.37
  -3   0  -1   13.57    7.85
   3   0   1    4.79    2.43
  -3   0   0    2.33    2.23
   3   0   0    3.72    3.26
  -3   0   0   -0.16    2.81
   3   0   0    0.05    2.51
  -3   0   1    9.59    4.32
   3   0  -1    6.44    3.61
  -3   0   1    9.07    3.88
   3   0  -1    5.00    3.58
  -3   0   2  118.51    7.04
   3   0  -2  113.99    6.07
  -3   0   2  134.03    6.35
   3   0  -2  109.43    4.68
  -3   0   3  898.02   16.72
   3   0  -3  894.53   14.83
  -3   0   3  895.70   12.76
   3   0  -3  886.88   12.20
  -3   0   4  650.42   13.55
   3   0  -4  670.03   13.30
  -3   0   4  678.00   10.81
   3   0  -4  677.56    9.53
  -3   0   5  376.54   16.11
   3   0  -5  358.76    9.61
  -3   0   5  380.12   13.26
   3   0  -5  390.52   13.09
  -3   0   6  168.55   10.08
   3   0  -6  155.12    9.46
  -3   0   6  162.35    6.98
   3   0  -6  154.86    6.46
  -3   0   7  938.95   19.39
   3   0  -7  917.26   16.78
  -3   0   7  927.70   11.16
   3   0  -7  932.98   11.01
  -3   0   8   14.99    8.39
   3   0  -8    6.65    3.80
  -3   0   8    5.95    1.36
   3   0  -8    8.05    3.52
  -3   0   9  111.14    8.31
   3   0  -9  103.75    7.23
  -3   0   9  119.51    3.53
   3   0  -9  116.63    4.43
  -3   0  10   20.12    5.85
   3   0 -10   19.33    5.30
  -3   0  10   23.11    3.74
   3   0 -10   18.47    3.48
  -3   0  11   12.20    4.65
   3   0 -11   34.49    8.50
  -3   0  11   25.22    6.62
   3   0 -11   19.70    3.98
  -3   0  12   35.94   10.34
  -3   0  12   36.01    9.99
   3   0 -12   30.03    6.77
  -3   0  13   62.62   11.88
  -3   0  13   47.98    6.25
  -3   0  14   27.98    9.97
  -3   0  14   44.35    7.92
  -3   0  15  110.39   14.08
  -3   0  15   98.17    9.26
  -3   0  16   43.58   11.90
  -3   0  16   32.44    7.50
  -3   0  17   18.78    7.25
  -3   0  17   23.64    6.08
  -3   0  18   22.84   10.13
  -3   0  18   11.47    6.74
  -3   0  18   17.38    6.63
  -3   0  19   16.86    8.15
  -3   0  19    6.20    3.92
  -3   0  19   32.69   11.00
  -3   0  20   27.14   10.35
  -3   0  20    6.95    2.60
  -3   0  20   25.47    6.18
  -3   0  21    8.09    5.87
  -3   0  21    4.95    3.37
  -3   0  22   69.21   12.15
  -3   0  22   61.07   14.14
  -3   0  23    2.27    4.87
  -3   0  23    4.81    2.78
  -3   0  24   17.21    9.24
  -3   0  24    1.39    1.77
  -3   0  25   14.55    7.46
  -3   0  26   10.16    6.31
   3   1  26    9.30    6.29
   3   1  26    7.95    7.31
   3   1  25    7.24    6.12
   3   1  25    6.70    7.19
   3   1  24   14.56   11.03
   3   1  24   13.69    7.99
   3   1  23   12.72    8.21
   3   1  23   17.90   12.03
   3   1  22   10.01    6.47
   3   1  22   16.88   10.93
   3   1  21   10.83    9.46
   3   1  21   16.53    7.57
   3   1  20   11.00    7.26
   3   1  20   13.73   11.28
   3   1  19   12.40   11.32
   3   1  19   15.50    9.03
   3   1  18   73.45   17.81
   3   1  17    5.58    8.10
   3   1  17   14.87    9.42
   3   1  16    8.01    7.81
   3   1  16    4.09    5.88
   3   1  15    6.16    7.52
   3   1  15   16.54    8.74
   3   1  14   27.18   12.39
   3   1  14   35.26   10.12
   3   1  13  376.48   17.25
  -3  -1 -13  348.52   13.81
   3   1  13  420.75   19.83
   3   1  12   98.79   10.40
  -3  -1 -12  108.43    8.53
   3   1  12  114.46   11.39
   3   1  11    1.35    5.83
  -3  -1 -11    4.35    1.85
   3   1  11    1.77    4.06
   3   1  10   50.30    9.06
  -3  -1 -10   59.05    5.31
   3   1  10   56.12   15.25
   3   1   9    4.71    4.09
  -3  -1  -9    5.30    3.32
   3   1   9    3.67    3.47
   3   1   8  506.85   20.40
  -3  -1  -8  498.75   19.79
   3   1   8  533.53   33.58
   3   1   7    4.76    3.14
  -3  -1  -7    6.78    3.86
   3   1   7    1.12    3.05
   3   1   6    3.99    3.43
  -3  -1  -6   11.96    5.33
   3   1   6    5.31    2.88
   3   1   5   99.67   11.95
  -3  -1  -5   99.07   11.85
   3   1   5   92.23   22.68
   3   1   4   11.35    4.09
  -3  -1  -4   21.00    6.10
  -3  -1  -4   41.46   14.98
   3   1   4   15.99    7.13
   3   1   3 1391.53   18.80
  -3  -1  -3 1379.72   19.55
   3   1   3 1351.67   21.36
   3   1   2   15.94    4.20
  -3  -1  -2   11.79    5.50
   3   1   2   19.83    7.12
   3   1   1  323.92   12.91
   3   1   1  310.12   12.59
  -3  -1  -1  355.01   15.96
   3   1   1  307.82   13.58
   3   1   0   15.10    4.63
  -3  -1   0   18.10    7.31
   3   1   0   14.58    4.17
  -3  -1   1    5.71    2.69
   3   1  -1    7.46    4.08
  -3  -1   1    3.29    1.86
   3   1  -1    5.53    2.80
  -3  -1   2  104.81    7.02
   3   1  -2  113.94    5.85
  -3  -1   2   97.68   10.19
   3   1  -2   97.83    4.74
  -3  -1   3   39.97    7.66
   3   1  -3   41.53    7.54
  -3  -1   3   55.61   13.43
   3   1  -3   39.26    6.12
  -3  -1   4  105.43   13.76
   3   1  -4   83.58   11.09
  -3  -1   4  101.30   11.88
   3   1  -4  104.26   11.88
  -3  -1   5  546.46   21.22
   3   1  -5  542.68   20.49
  -3  -1   5  561.23   19.26
   3   1  -5  533.56   17.73
  -3  -1   6  231.28   13.93
   3   1  -6  208.89   12.06
  -3  -1   6  197.43    8.56
   3   1  -6  195.12    8.43
  -3  -1   7 1199.92   22.01
   3   1  -7 1161.88   19.61
  -3  -1   7 1166.18   14.31
   3   1  -7 1200.76   14.66
  -3  -1   8    7.94    5.96
   3   1  -8    4.07    3.75
  -3  -1   8    0.34    1.27
   3   1  -8   14.46    6.41
  -3  -1   9  562.77   24.23
   3   1  -9  554.31   23.73
  -3  -1   9  515.15   18.79
   3   1  -9  541.01   20.46
  -3  -1  10  147.79   19.39
   3   1 -10  153.68   19.51
  -3  -1  10  151.39   18.06
   3   1 -10  151.40   18.66
  -3  -1  11   45.00    9.87
   3   1 -11   53.31    9.41
  -3  -1  11   54.69    7.97
   3   1 -11   55.07    7.51
  -3  -1  12   17.20    7.34
  -3  -1  12   13.05    3.49
   3   1 -12    8.96    2.38
  -3  -1  13   22.19    7.84
  -3  -1  13   26.38    6.62
   3   1 -13   26.70    6.52
  -3  -1  14    5.36    6.02
  -3  -1  14   -0.17    1.82
   3   1 -14    3.19    2.50
  -3  -1  15   61.38   13.76
  -3  -1  15   63.33   12.36
   3   1 -15   54.25   10.70
  -3  -1  16  116.30   15.94
  -3  -1  16  119.62   13.79
  -3  -1  17   45.57   13.91
  -3  -1  17   26.89    6.72
  -3  -1  18    4.53    5.30
  -3  -1  18    7.25    3.83
  -3  -1  19   87.34   18.50
  -3  -1  19   76.58   14.16
  -3  -1  20   24.52   10.08
  -3  -1  20   25.80    6.62
  -3  -1  21    7.43    5.40
  -3  -1  21    4.35    3.09
  -3  -1  22   -1.78    4.97
  -3  -1  22    2.15    2.88
  -3  -1  23   11.36    5.17
  -3  -1  23   29.46    9.30
  -3  -1  24    5.55    5.20
  -3  -1  24    3.34    2.89
  -3  -1  25   35.73   11.91
  -3  -1  25   38.00    8.84
  -3  -1  26    5.61    5.82
   3   2  26    4.90    6.02
   3   2  26    6.51    5.98
   3   2  25    3.27    6.20
   3   2  25    7.58    7.38
   3   2  24    8.35    6.72
   3   2  24   10.21    5.84
   3   2  23    5.08    6.65
   3   2  23    2.99    5.97
   3   2  22   24.71   10.64
   3   2  22   30.34   12.26
   3   2  21   19.66   10.97
   3   2  21    6.02    6.24
   3   2  20    8.06    7.33
   3   2  20    3.33    5.10
   3   2  19    6.89    7.24
   3   2  19    5.49    5.36
   3   2  18   41.75   15.49
   3   2  17   58.38   16.69
   3   2  16   29.62   13.24
   3   2  16   17.76    9.43
   3   2  15   75.33   18.59
   3   2  15   72.86   16.05
   3   2  14    8.51    7.88
   3   2  13    5.44    6.78
   3   2  12  700.17   21.40
  -3  -2 -12  707.34   19.89
   3   2  11   46.55   10.34
  -3  -2 -11   54.42    7.68
   3   2  10  237.70   17.87
  -3  -2 -10  237.11   16.53
   3   2   9  216.58   14.32
  -3  -2  -9  231.41   13.63
   3   2   9  202.79   30.47
   3   2   8   93.51    8.04
  -3  -2  -8   88.12    5.54
   3   2   8   90.31   12.54
   3   2   7  116.80    7.49
  -3  -2  -7  107.09    6.01
   3   2   7   86.53   23.29
   3   2   6    6.94    4.75
  -3  -2  -6    5.12    2.94
  -3  -2  -6    6.98    8.04
   3   2   6    5.74    4.06
   3   2   5  378.36   15.18
  -3  -2  -5  367.61   14.75
  -3  -2  -5  460.06   20.48
   3   2   5  415.76   17.40
   3   2   4  343.69   14.79
  -3  -2  -4  346.98   14.95
  -3  -2  -4  402.79   19.59
   3   2   4  384.90   16.57
   3   2   3   67.99    9.28
  -3  -2  -3  110.57   13.88
  -3  -2  -3  138.46   31.46
   3   2   3  111.22   18.60
   3   2   2  127.79    7.64
  -3  -2  -2  137.12    7.32
  -3  -2  -2  126.82   23.05
   3   2   2  135.39    7.27
   3   2   1  101.80   14.43
   3   2   1  104.68    7.22
  -3  -2  -1   97.08   12.40
   3   2   1  110.17    6.52
   3   2   0 1507.11   27.02
   3   2   0 1528.94   21.72
  -3  -2   0 1601.74   23.32
   3   2   0 1552.97   21.49
  -3  -2   1  485.79   19.56
   3   2  -1  491.31   18.53
  -3  -2   1  470.81   17.62
   3   2  -1  489.28   17.59
  -3  -2   2  137.95   28.55
   3   2  -2  129.13    7.67
  -3  -2   2  109.31    5.94
   3   2  -2  130.59    5.91
  -3  -2   3   76.03   11.00
   3   2  -3   64.91    9.40
  -3  -2   3   62.27    8.04
   3   2  -3   63.51    7.98
  -3  -2   4   26.21    9.52
   3   2  -4   30.52    7.70
  -3  -2   4   33.27    8.09
   3   2  -4   33.35    7.73
  -3  -2   5  200.46   12.13
   3   2  -5  187.80   10.74
  -3  -2   5  178.53    8.49
   3   2  -5  177.63    8.02
  -3  -2   6    9.26    5.40
   3   2  -6    8.84    3.86
  -3  -2   6    9.64    4.07
   3   2  -6    7.80    3.41
  -3  -2   7   10.28    5.60
   3   2  -7   13.69    5.50
  -3  -2   7    6.53    2.58
   3   2  -7    4.50    1.85
  -3  -2   8   48.98    7.99
   3   2  -8   57.35    7.64
  -3  -2   8   45.58    4.91
   3   2  -8   66.27    7.93
  -3  -2   9  133.57   18.19
   3   2  -9  156.48    8.86
  -3  -2   9  146.13   17.51
   3   2  -9  151.16   19.02
  -3  -2  10   68.39   11.75
   3   2 -10   62.19    6.32
  -3  -2  10   67.67    9.71
   3   2 -10   73.43   11.19
  -3  -2  11   15.89    4.63
  -3  -2  11   23.56    6.51
   3   2 -11   10.06    3.80
  -3  -2  12   93.02    9.90
  -3  -2  12   91.41    5.94
   3   2 -12   76.99   10.19
  -3  -2  13    6.23    7.83
  -3  -2  13   10.02    3.22
   3   2 -13    7.02    4.15
  -3  -2  14    5.39    5.61
  -3  -2  14    4.14    3.69
   3   2 -14    2.88    3.35
  -3  -2  15    9.38    5.79
  -3  -2  15    7.00    3.40
   3   2 -15   11.95    3.00
  -3  -2  16   62.38   13.81
  -3  -2  16   79.76   14.53
   3   2 -16   82.14   10.15
  -3  -2  17    3.47    4.74
  -3  -2  17    7.76    2.84
   3   2 -17    6.61    2.90
  -3  -2  18   24.83   11.10
  -3  -2  18   21.08    6.89
  -3  -2  19   20.16   10.90
  -3  -2  19   24.06    9.21
  -3  -2  20   25.99    8.55
  -3  -2  20   26.45    6.78
  -3  -2  21    8.79    5.93
  -3  -2  21   10.53    4.94
  -3  -2  22   21.63    8.33
  -3  -2  22    9.51    3.40
  -3  -2  23    6.57    4.85
  -3  -2  23    9.38    4.77
  -3  -2  24   18.28    9.09
  -3  -2  24   22.63    7.66
  -3  -2  25    7.78    6.12
  -3  -2  25   15.45    6.10
  -3  -2  26   13.56    7.69
   3   3  26    8.73    8.28
   3   3  26    7.05    5.89
   3   3  25   13.62    9.37
   3   3  25    5.53    6.62
   3   3  24   10.01    7.02
   3   3  24   11.37    7.28
   3   3  23    2.09    7.07
   3   3  23    5.49    5.64
   3   3  22   87.71   17.01
   3   3  22   77.88   13.57
   3   3  21    9.28   11.98
   3   3  21   14.17    9.90
   3   3  20   14.37    8.32
   3   3  19    1.91    7.39
   3   3  19    4.82    5.42
   3   3  18    8.23    7.76
   3   3  18   15.66    8.64
   3   3  17   12.72   12.21
   3   3  16   18.32    8.67
   3   3  15  211.49   21.41
   3   3  14   82.42   13.11
   3   3  13  523.26   22.69
   3   3  12  508.60   18.16
   3   3  11   27.53    9.87
  -3  -3 -11   10.47    3.07
   3   3  10   86.67   13.28
  -3  -3 -10   70.81    9.33
   3   3  10   59.49   17.52
   3   3   9  511.29   18.68
  -3  -3  -9  460.95   16.18
   3   3   9  427.99   36.82
   3   3   8  318.16   13.90
  -3  -3  -8  323.85   12.82
   3   3   8  292.24   25.41
   3   3   7   72.81    8.35
  -3  -3  -7   85.75    8.70
  -3  -3  -7   87.29   22.92
   3   3   7   66.43   16.13
   3   3   6  477.62   20.13
  -3  -3  -6  464.10   11.68
  -3  -3  -6  497.70   23.45
   3   3   6  446.47   20.52
   3   3   5   81.71   10.93
  -3  -3  -5   82.76   11.05
  -3  -3  -5   82.61   24.09
   3   3   5   67.18   17.94
   3   3   4   12.39    5.08
  -3  -3  -4   10.28    4.38
  -3  -3  -4    8.22    6.88
   3   3   4    9.03    3.21
   3   3   3 2276.60   28.96
  -3  -3  -3 2290.78   29.49
  -3  -3  -3 2144.07   30.38
   3   3   3 2183.25   29.11
   3   3   2    7.50    4.28
  -3  -3  -2    5.49    4.19
  -3  -3  -2   11.48    6.84
   3   3   2   13.66    6.02
   3   3   1  174.07   10.14
   3   3   1  150.28   10.45
  -3  -3  -1  157.95   10.35
   3   3   1  152.99    9.11
   3   3   0  200.00   11.71
   3   3   0  165.99   10.28
  -3  -3   0  165.40    9.68
   3   3   0  175.99    9.35
   3   3  -1  686.13   14.74
   3   3  -1  639.43   13.72
  -3  -3   1  656.03   13.68
   3   3  -1  675.59   12.80
  -3  -3   2  180.08   23.07
   3   3  -2  174.65   10.62
  -3  -3   2  177.37    9.88
   3   3  -2  162.05    8.40
  -3  -3   3   11.77    5.33
   3   3  -3   11.80    4.59
  -3  -3   3    4.80    4.55
   3   3  -3    7.90    2.46
  -3  -3   4   17.51    5.99
   3   3  -4   28.30    7.49
  -3  -3   4   24.54    6.40
   3   3  -4   29.36    7.20
  -3  -3   5    9.86    5.89
   3   3  -5   15.10    6.03
  -3  -3   5   14.46    4.88
   3   3  -5   17.89    5.07
  -3  -3   6  252.48   14.36
   3   3  -6  253.01   13.05
  -3  -3   6  244.49   10.98
   3   3  -6  244.63   10.79
  -3  -3   7  535.78   23.30
   3   3  -7  582.53   24.11
  -3  -3   7  534.58   20.53
   3   3  -7  566.21   21.50
  -3  -3   8   22.76    9.35
   3   3  -8   11.17    5.74
  -3  -3   8    6.07    3.06
   3   3  -8    0.91    4.05
  -3  -3   9  378.81   16.24
   3   3  -9  372.39   14.75
  -3  -3   9  403.87   14.71
   3   3  -9  381.13   13.99
  -3  -3  10    1.43    5.73
   3   3 -10    8.78    4.71
  -3  -3  10    1.19    2.44
   3   3 -10    7.48    6.58
  -3  -3  11    6.30    5.22
  -3  -3  11    2.72    3.07
   3   3 -11    7.75    4.60
  -3  -3  12  204.70   18.00
  -3  -3  12  208.29   15.25
   3   3 -12  207.99   16.31
  -3  -3  13    6.40    5.95
  -3  -3  13    6.97    3.03
   3   3 -13    7.66    5.25
  -3  -3  14   64.62   11.24
  -3  -3  14   70.59    8.99
   3   3 -14   56.96   11.23
  -3  -3  15   86.40   12.75
  -3  -3  15   89.08    9.76
   3   3 -15   80.44    6.28
  -3  -3  16   44.62   12.02
  -3  -3  16   57.75   11.56
   3   3 -16   45.52   10.30
  -3  -3  17   15.09    6.45
  -3  -3  17   20.42    6.13
   3   3 -17   21.14    6.50
  -3  -3  18    2.61    5.07
  -3  -3  18    2.21    2.40
   3   3 -18    6.13    3.98
  -3  -3  19   54.50   13.78
  -3  -3  19   33.30   10.42
   3   3 -19   20.51    8.20
  -3  -3  20    5.42    6.19
  -3  -3  20    2.22    2.46
  -3  -3  21   11.18    8.05
  -3  -3  21    1.59    2.32
  -3  -3  22   23.97    8.72
  -3  -3  22    7.51    4.07
  -3  -3  23    6.68    5.10
  -3  -3  23    5.67    4.89
  -3  -3  24   23.30   10.47
  -3  -3  24   18.76    6.65
  -3  -3  25   61.59   16.27
  -3  -3  25   70.12   15.65
  -3  -3  26   10.53    8.60
  -3  -3  26    3.30    3.20
   3   4  25   13.38    6.94
   3   4  25   14.58    8.89
   3   4  24   10.64    9.52
   3   4  24    9.62    5.76
   3   4  23   10.64    5.62
   3   4  23   20.20   10.57
   3   4  22    1.08    7.57
   3   4  22   13.92    7.44
   3   4  21    6.97    8.15
   3   4  21    6.51    5.21
   3   4  20   10.65    8.53
   3   4  20    8.18    5.23
   3   4  19   20.46   11.62
   3   4  19   33.69    9.51
   3   4  18   17.56   12.09
   3   4  18   23.39   10.41
   3   4  17    3.07    7.18
   3   4  16  208.53   22.18
   3   4  15    3.82    8.24
   3   4  14  139.38   16.42
   3   4  13   76.34   17.95
   3   4  12   59.35   12.58
   3   4  11    5.76    5.70
   3   4  10  365.85   17.48
  -3  -4 -10  302.39   13.81
   3   4   9  178.71   14.08
  -3  -4  -9  181.52   13.76
  -3  -4  -9  204.37   36.11
   3   4   9  142.08   22.35
   3   4   8   18.34    6.88
  -3  -4  -8   24.48    5.02
  -3  -4  -8   29.72   11.76
   3   4   8   22.08    6.79
   3   4   7   22.09    7.12
  -3  -4  -7   16.95    3.54
  -3  -4  -7   10.12    6.45
   3   4   7    6.98    2.94
   3   4   6  258.15   13.79
  -3  -4  -6  262.48   13.64
  -3  -4  -6  262.26   19.95
   3   4   6  267.22   14.62
   3   4   5  204.67    8.92
  -3  -4  -5  241.24   12.66
  -3  -4  -5  236.59   24.73
   3   4   5  243.31   13.40
   3   4   4   14.73    5.13
  -3  -4  -4    8.92    3.75
  -3  -4  -4   11.07    5.96
   3   4   4   16.86    6.08
   3   4   3   74.18   10.58
  -3  -4  -3  113.65   14.03
  -3  -4  -3  110.26   26.19
   3   4   3  100.61   13.09
   3   4   2    8.41    4.62
  -3  -4  -2    5.21    4.23
  -3  -4  -2    5.86    4.70
   3   4   2    5.13    5.01
   3   4   1  609.91   23.19
   3   4   1  670.45   15.26
  -3  -4  -1  654.66   19.61
   3   4   1  625.22   22.81
   3   4   0  705.39   16.96
   3   4   0  652.45   15.50
  -3  -4   0  696.23   15.21
   3   4   0  632.45   12.28
   3   4  -1   14.76    5.60
   3   4  -1   11.95    5.77
  -3  -4   1   12.54    4.70
   3   4  -1   37.61    9.50
   3   4  -2  292.66   14.07
  -3  -4   2  274.69   13.05
   3   4  -2  282.23   13.03
  -3  -4   3   72.38   15.18
   3   4  -3   63.74    9.24
  -3  -4   3   61.38    8.75
   3   4  -3   67.37    9.08
  -3  -4   4  223.75   13.67
   3   4  -4  261.12   13.28
  -3  -4   4  250.79   12.05
   3   4  -4  250.61   11.24
  -3  -4   5   12.30    5.63
   3   4  -5   14.53    4.97
  -3  -4   5   13.45    3.91
   3   4  -5   27.68    7.17
  -3  -4   6  135.47    9.88
   3   4  -6  137.23    8.55
  -3  -4   6  143.06    6.82
   3   4  -6  120.01    6.14
  -3  -4   7   39.49    8.84
   3   4  -7   45.49    7.47
  -3  -4   7   38.79    8.88
   3   4  -7   31.73    6.68
  -3  -4   8  394.87   16.97
   3   4  -8  431.39   16.67
  -3  -4   8  423.64   14.39
   3   4  -8  441.06   15.55
  -3  -4   9  400.22   17.56
   3   4  -9  360.15   14.93
  -3  -4   9  464.03   15.44
   3   4  -9  450.80   16.41
  -3  -4  10  375.95   19.25
  -3  -4  10  409.63   16.07
   3   4 -10  398.42   17.07
  -3  -4  11  702.59   22.53
  -3  -4  11  674.78   16.79
   3   4 -11  717.73   19.14
  -3  -4  12   27.98    9.57
  -3  -4  12   19.09    3.89
   3   4 -12   22.07    8.35
  -3  -4  13  575.25   23.80
  -3  -4  13  542.31   17.83
   3   4 -13  541.41   19.77
  -3  -4  14   35.10   11.93
  -3  -4  14   14.69    5.49
   3   4 -14    4.75    4.58
  -3  -4  15   60.64   14.51
  -3  -4  15   64.70   17.23
   3   4 -15   64.41   12.68
  -3  -4  16  103.60   14.87
  -3  -4  16   94.26   11.64
   3   4 -16   87.03   11.15
  -3  -4  17    7.01    7.81
  -3  -4  17    5.74    4.14
   3   4 -17    7.47    3.34
  -3  -4  18   56.91   14.16
  -3  -4  18   51.79    9.00
   3   4 -18   40.67    7.52
  -3  -4  19   47.26   12.53
  -3  -4  19   40.13   12.05
  -3  -4  20   91.67   15.53
  -3  -4  20   78.63    8.71
  -3  -4  21   27.83   10.39
  -3  -4  21   17.59    5.70
  -3  -4  22   14.79   11.46
  -3  -4  22    5.06    4.78
  -3  -4  23   47.63   10.42
  -3  -4  23   54.43    9.67
  -3  -4  24   11.38    7.74
  -3  -4  24   30.02    8.04
  -3  -4  25    8.26    5.91
  -3  -4  25    4.45    2.78
  -3  -4  26    2.54    6.09
  -3  -4  26    1.59    2.08
   3   5  25   11.21    7.42
   3   5  25    5.72    5.46
   3   5  24    8.60    7.10
   3   5  24    4.69    4.94
   3   5  23    8.79    9.62
   3   5  23    8.10    5.30
   3   5  22    5.34    7.05
   3   5  22    8.41    6.97
   3   5  21   10.37    7.09
   3   5  21    4.69    4.89
   3   5  20   10.49   11.47
   3   5  20   18.05   10.03
   3   5  19   20.22   11.74
   3   5  19   16.81    7.48
   3   5  18   13.26   11.78
   3   5  17    7.14    7.20
   3   5  16   19.30   11.85
   3   5  15  121.69   15.94
   3   5  14    5.59    8.03
   3   5  13    4.60    7.20
   3   5  12    4.51    6.86
  -3  -5 -12   21.35   17.87
   3   5  11    6.47    6.26
  -3  -5 -11   14.98    9.70
   3   5  10   11.83    4.46
  -3  -5 -10    5.18    5.98
   3   5   9   53.12    9.34
  -3  -5  -9   54.46    7.81
  -3  -5  -9   68.14   18.01
   3   5   8   62.79    9.60
  -3  -5  -8   55.10    8.04
  -3  -5  -8   79.20   19.99
   3   5   8   49.65    9.57
   3   5   7   19.94    6.22
  -3  -5  -7   17.34    4.83
  -3  -5  -7   22.26    9.22
   3   5   7   20.61    5.26
   3   5   6    7.00    7.38
  -3  -5  -6    4.99    2.72
  -3  -5  -6   10.25    8.10
   3   5   6    6.97    3.42
   3   5   5  288.34   16.14
  -3  -5  -5  270.92   13.78
  -3  -5  -5  282.07   15.59
   3   5   5  271.43   14.43
   3   5   4   11.40    4.56
  -3  -5  -4    7.24    2.88
  -3  -5  -4   11.24    4.46
   3   5   4    8.30    3.50
  -3  -5  -3   66.41    8.24
  -3  -5  -3   77.02   14.30
   3   5   3   68.77    7.61
  -3  -5  -2   16.38    6.28
  -3  -5  -2    2.44    4.43
  -3  -5  -1   14.43    7.18
   3   5   1   -0.09    2.90
   3   5   0    2.35    2.26
  -3  -5   0    5.18    5.98
   3   5   0    5.55    3.05
   3   5  -1  106.01   24.83
   3   5  -1  111.47   15.58
  -3  -5   1  131.02   16.15
   3   5  -1  112.79   13.53
   3   5  -2   16.14    7.56
   3   5  -2   13.41    6.63
  -3  -5   2   10.18    5.96
   3   5  -2    8.52    4.00
  -3  -5   3   12.85    5.85
   3   5  -3   24.96    6.80
  -3  -5   3    5.03    2.45
   3   5  -3    9.82    3.28
  -3  -5   4    5.46    7.16
   3   5  -4    3.51    3.72
  -3  -5   4    7.18    4.80
   3   5  -4    9.68    4.51
  -3  -5   5  525.54   23.74
   3   5  -5  529.78   22.32
  -3  -5   5  546.65   22.05
   3   5  -5  543.23   21.30
  -3  -5   6  102.91    9.23
   3   5  -6  118.24    7.90
  -3  -5   6  117.80    6.72
   3   5  -6  127.84    6.67
  -3  -5   7  163.07   13.08
   3   5  -7  160.62   11.50
  -3  -5   7  175.30   10.99
   3   5  -7  177.18   11.35
  -3  -5   8    1.77    5.53
   3   5  -8    3.82    3.40
  -3  -5   8    5.72    2.88
   3   5  -8   12.55    6.21
  -3  -5   9  328.93   16.90
   3   5  -9  291.35   10.83
  -3  -5   9  338.90   14.39
   3   5  -9  341.77   16.31
  -3  -5  10    9.80    5.17
  -3  -5  10    9.31    3.32
   3   5 -10   10.65    7.61
  -3  -5  11  534.79   20.57
  -3  -5  11  514.40   14.94
   3   5 -11  505.74   17.58
  -3  -5  12   85.36   14.93
  -3  -5  12   85.08   11.81
   3   5 -12   77.09   11.44
  -3  -5  13  235.70   22.27
  -3  -5  13  219.44   17.68
   3   5 -13  194.11   17.96
  -3  -5  14   46.50   12.22
  -3  -5  14   50.60   14.95
   3   5 -14   17.91    8.07
  -3  -5  15  112.91   18.19
  -3  -5  15  104.72   13.25
   3   5 -15  112.70   14.88
  -3  -5  16   29.37    8.86
  -3  -5  16   30.70   11.67
   3   5 -16   21.08    7.44
  -3  -5  17   58.23   13.80
  -3  -5  17   52.70   10.30
  -3  -5  18    8.13    6.24
  -3  -5  18    7.43    4.93
  -3  -5  19   61.14   16.14
  -3  -5  19   66.60   14.54
  -3  -5  20   -1.49    5.97
  -3  -5  20    9.70    4.97
  -3  -5  21   48.38   10.42
  -3  -5  21   52.48    7.71
  -3  -5  22    6.34    5.21
  -3  -5  22    3.79    3.06
  -3  -5  23   29.45   10.85
  -3  -5  23   35.62    9.84
  -3  -5  24    9.44    5.92
  -3  -5  24    2.15    2.81
  -3  -5  25    9.41    5.89
  -3  -5  25    3.81    4.23
  -3  -5  26    4.23    6.11
  -3  -5  26    3.44    4.17
   3   6  24   14.64    8.83
   3   6  24   14.41    8.08
   3   6  23    9.69    6.91
   3   6  23    2.25    4.63
   3   6  22    4.94    6.97
   3   6  22    9.35    6.48
   3   6  21   21.35   13.62
   3   6  21    9.74    4.86
   3   6  20    9.89   10.26
   3   6  19    5.53    8.43
   3   6  18  139.15   19.90
   3   6  17    7.74    7.73
   3   6  16    4.51    7.36
   3   6  15   42.12   14.81
   3   6  14   16.86   10.69
   3   6  13   35.76    9.94
  -3  -6 -13  123.79   36.23
   3   6  12   18.24    8.22
  -3  -6 -12   37.67   19.94
   3   6  11   20.25    9.00
  -3  -6 -11   17.89    8.28
   3   6  10   71.11   12.62
   3   6   9   29.83   10.00
  -3  -6  -9   23.72   13.62
   3   6   8  430.77   16.62
  -3  -6  -8  432.46   32.01
   3   6   7   46.63   11.14
  -3  -6  -7   35.78    7.43
  -3  -6  -7   59.23   13.74
   3   6   7   34.39    7.15
   3   6   6 1640.37   46.88
  -3  -6  -6 1487.82   43.04
  -3  -6  -6 1640.10   51.53
   3   6   6 1480.04   44.55
   3   6   5  148.80   19.23
  -3  -6  -5  157.09    8.58
  -3  -6  -5  179.04   39.77
   3   6   5  145.79   18.50
   3   6   4   62.57    6.98
  -3  -6  -4   65.65   10.13
  -3  -6  -4   61.64   15.02
   3   6   4   64.76    9.46
   3   6   3   95.59    8.57
  -3  -6  -3   71.12    8.33
  -3  -6  -3   63.67   20.14
   3   6   3   73.99    9.25
   3   6   2   64.54    8.64
  -3  -6  -2   73.54    8.29
  -3  -6  -2   80.74   11.37
   3   6   2   72.13    8.19
   3   6   1   97.47    9.41
  -3  -6  -1   84.59    9.66
   3   6   1   84.35    8.98
   3   6   0   13.22    4.44
   3   6   0   14.42    7.14
  -3  -6   0   12.29    4.69
   3   6   0   15.65    5.90
   3   6  -1   39.41   10.19
   3   6  -1   39.91    8.17
  -3  -6   1   34.79    6.56
   3   6  -1   24.37    7.04
   3   6  -2  610.04   25.66
   3   6  -2  675.16   28.06
  -3  -6   2  598.17   24.86
   3   6  -2  619.28   24.12
   3   6  -3    6.20    4.11
   3   6  -3    3.53    6.33
  -3  -6   3    4.55    5.87
   3   6  -3    6.46    2.57
  -3  -6   4 1075.21   42.99
   3   6  -4 1017.83   39.10
  -3  -6   4 1059.96   39.91
   3   6  -4 1159.71   42.24
  -3  -6   5  235.05   36.70
   3   6  -5  242.24   15.39
  -3  -6   5  228.62   14.61
   3   6  -5  235.67   13.95
  -3  -6   6  109.90   24.34
   3   6  -6   94.47   13.25
  -3  -6   6   83.03   11.69
   3   6  -6   76.78   10.74
  -3  -6   7   12.65    5.81
   3   6  -7   17.37    5.59
  -3  -6   7   14.54    4.46
   3   6  -7    9.45    5.85
  -3  -6   8    9.13    5.44
   3   6  -8    7.90    3.33
   3   6  -8    8.99    4.70
  -3  -6   9  112.65   11.35
   3   6  -9  104.50   10.29
  -3  -6  10  142.72   13.05
  -3  -6  10  139.37   10.46
   3   6 -10  134.41   13.08
  -3  -6  11    9.58    5.53
  -3  -6  11    3.66    3.34
   3   6 -11   11.43    8.23
  -3  -6  12   58.48    8.56
  -3  -6  12   62.71    8.30
   3   6 -12   46.39   10.93
  -3  -6  13   13.79    5.40
  -3  -6  13   18.37    6.07
   3   6 -13    5.03    5.45
  -3  -6  14    6.72    5.06
  -3  -6  14   12.75    3.81
  -3  -6  15   21.02    9.12
  -3  -6  15   21.73    7.81
  -3  -6  16    5.88    4.88
  -3  -6  16    2.52    2.92
  -3  -6  17   15.42    8.35
  -3  -6  17   18.64    6.95
  -3  -6  18   31.57   12.54
  -3  -6  18   46.20   13.64
  -3  -6  19   43.70   12.63
  -3  -6  19   48.73   14.64
  -3  -6  20   20.14    7.00
  -3  -6  20   38.24    9.73
  -3  -6  21    8.94    7.12
  -3  -6  21   10.28    4.92
  -3  -6  22    8.51    6.88
  -3  -6  22   15.09    4.81
  -3  -6  23    4.68    5.08
  -3  -6  23    5.12    3.62
  -3  -6  24    5.57    5.55
  -3  -6  24    5.72    3.72
  -3  -6  25    4.64    5.43
  -3  -6  25    0.88    2.58
  -3  -6  26    5.00    5.89
  -3  -6  26    4.95    3.27
   3   7  24    6.31   11.30
   3   7  24    3.63    6.84
   3   7  23    8.72   10.77
   3   7  23    5.04    5.05
   3   7  22    1.71    6.95
   3   7  22    4.75    4.97
   3   7  21   18.79    9.20
   3   7  20   12.77    6.96
   3   7  19    5.20    7.14
   3   7  18   20.13    8.79
   3   7  17    5.41    8.06
   3   7  16   12.49    7.84
   3   7  15   19.97    9.37
   3   7  14   11.20    6.78
   3   7  13   28.01   11.26
  -3  -7 -13   31.53   13.67
   3   7  12   11.31    9.66
  -3  -7 -12    3.24    4.43
   3   7  11    8.02   10.13
  -3  -7 -11    1.54    6.50
   3   7  10  154.38   15.89
  -3  -7 -10  188.15   23.70
   3   7   9  117.83   15.70
  -3  -7  -9  108.92   29.34
   3   7   8  361.40   16.30
  -3  -7  -8  341.08   20.87
   3   7   7  100.89   10.77
  -3  -7  -7   96.91   19.41
   3   7   6 1225.93   43.87
  -3  -7  -6 1371.91   52.08
   3   7   5  382.00   18.36
  -3  -7  -5  298.36   14.99
  -3  -7  -5  364.55   18.79
   3   7   4   18.17    8.73
  -3  -7  -4   13.08    3.37
  -3  -7  -4   19.78    9.21
   3   7   4   12.11    3.78
   3   7   3  177.27   13.30
  -3  -7  -3  163.53   12.56
  -3  -7  -3  181.00   14.88
   3   7   3  136.17   17.14
   3   7   2   14.56    7.73
  -3  -7  -2    9.62    4.47
  -3  -7  -2    0.00    3.83
   3   7   2    3.82    2.42
   3   7   1   33.18    7.92
  -3  -7  -1   25.53    6.53
   3   7   1   17.13    3.16
   3   7   0    0.59    3.73
   3   7   0   11.21    6.96
  -3  -7   0    5.87    4.35
   3   7   0    8.32    4.51
   3   7  -1  494.42   18.73
   3   7  -1  499.59   20.41
  -3  -7   1  537.84   19.80
   3   7  -1  543.80   18.56
   3   7  -2  121.23   30.00
   3   7  -2  149.45   20.08
  -3  -7   2  166.36   11.91
   3   7  -2  158.86   10.78
   3   7  -3  256.67   16.38
   3   7  -3  242.26   16.24
  -3  -7   3  275.01   11.12
   3   7  -3  251.83   15.33
   3   7  -4  812.29   27.32
   3   7  -4  822.16   28.81
  -3  -7   4  822.11   26.35
   3   7  -4  819.53   25.06
  -3  -7   5  447.03   30.74
  -3  -7   5  413.11   16.07
   3   7  -5  438.37   16.02
  -3  -7   6  106.95   19.66
   3   7  -6  110.30   10.75
  -3  -7   6   90.99   12.92
   3   7  -6   96.15   13.22
  -3  -7   7  281.44   43.04
  -3  -7   7  252.78   18.37
   3   7  -7  260.10   18.93
  -3  -7   8   -1.42    4.76
  -3  -7   8    4.75    3.87
   3   7  -8   11.18    6.63
  -3  -7   9  104.89   11.30
   3   7  -9   90.53    8.36
  -3  -7  10   10.98    7.87
  -3  -7  10    8.64    5.72
   3   7 -10   17.70    8.52
  -3  -7  11   83.83   13.76
  -3  -7  11   70.79    9.58
   3   7 -11   61.19   10.12
  -3  -7  12  211.85   19.68
  -3  -7  12  213.97   18.36
  -3  -7  13  101.96   13.58
  -3  -7  13  108.75   12.21
  -3  -7  14   12.14    6.96
  -3  -7  14    8.84    6.32
  -3  -7  15   35.39    9.05
  -3  -7  16  212.08   15.82
  -3  -7  16  182.63   11.29
  -3  -7  17    3.05    4.97
  -3  -7  17   13.70    5.77
  -3  -7  18   11.03    7.03
  -3  -7  18   11.16    4.67
  -3  -7  19   95.81   12.53
  -3  -7  19   97.23   10.41
  -3  -7  20    5.85    5.33
  -3  -7  21    9.68    5.58
  -3  -7  21   16.62    8.09
  -3  -7  22   16.79    8.02
  -3  -7  22   25.16    6.36
  -3  -7  23    8.30    5.89
  -3  -7  23    7.09    4.64
  -3  -7  24    5.68    4.57
  -3  -7  24    7.41    4.66
  -3  -7  25    7.73    5.00
  -3  -7  25    1.88    2.56
   3   8  23   21.02   13.31
   3   8  23    6.11    5.05
   3   8  22   25.11   10.94
   3   8  22   11.39    5.81
   3   8  21    6.45    7.43
   3   8  20   15.98   11.44
   3   8  19   24.87   12.26
   3   8  18    2.32    6.97
   3   8  17   35.59   15.70
   3   8  16   32.94   13.36
   3   8  15   10.49    7.32
  -3  -8 -15   29.51   15.47
   3   8  14    5.47    7.10
  -3  -8 -14   12.47   12.34
   3   8  13   16.32    9.69
  -3  -8 -13    6.63    6.27
   3   8  12    7.38    6.52
  -3  -8 -12   12.94    6.87
   3   8  11   58.99   16.95
  -3  -8 -11   56.01   18.49
   3   8  10  133.19   14.83
  -3  -8 -10  136.75   31.31
   3   8   9   11.55    5.04
  -3  -8  -9   16.25    7.74
   3   8   8    9.02    7.16
  -3  -8  -8   18.95   12.46
   3   8   7   17.75    7.66
  -3  -8  -7   36.08   12.14
   3   8   6  262.37   20.82
  -3  -8  -6  320.67   16.50
   3   8   5    4.78    5.34
  -3  -8  -5   -0.96    4.86
   3   8   4  133.09   14.10
  -3  -8  -4  149.67   14.06
   3   8   3   68.46   10.49
  -3  -8  -3   87.47   13.19
   3   8   2  394.24   18.74
  -3  -8  -2  388.81   19.14
   3   8   1    8.27    5.21
  -3  -8  -1    5.45    7.42
   3   8   1    3.39    2.55
   3   8   0    4.45    4.60
   3   8   0    5.69    5.22
  -3  -8   0   13.87    5.16
   3   8   0   10.88    3.83
   3   8  -1   14.22    5.13
   3   8  -1   20.16    7.27
  -3  -8   1   16.43    5.81
   3   8  -1   11.93    3.04
   3   8  -2  123.65   29.55
   3   8  -2  170.42   15.41
  -3  -8   2  173.13   15.09
   3   8  -2  173.95   13.46
   3   8  -3   45.18    8.87
   3   8  -3   61.98   10.23
  -3  -8   3   53.95    8.95
   3   8  -3   40.21    7.77
   3   8  -4  314.46   18.26
  -3  -8   4  302.24   15.01
   3   8  -4  299.53   13.60
   3   8  -5    6.00    6.00
  -3  -8   5   21.71    6.69
   3   8  -5   10.94    3.26
  -3  -8   6  159.62   30.39
  -3  -8   6  155.10   11.82
   3   8  -6  133.31   11.21
  -3  -8   7    8.05    5.59
  -3  -8   7    8.91    2.92
   3   8  -7    8.97    2.85
  -3  -8   8  551.53   40.85
  -3  -8   8  457.90   15.47
  -3  -8   9   10.06    6.78
  -3  -8   9    9.11    4.47
  -3  -8  10   10.48    7.02
  -3  -8  11   21.33    7.82
  -3  -8  11   31.59    7.96
  -3  -8  12   39.81   10.64
  -3  -8  12   40.28   10.07
  -3  -8  13    6.47    4.73
  -3  -8  13    3.05    2.46
  -3  -8  14  286.63   25.66
  -3  -8  14  309.87   24.75
  -3  -8  15   71.76   14.63
  -3  -8  15   71.23   19.46
  -3  -8  16   84.67   12.31
  -3  -8  16   74.78   13.94
  -3  -8  17  144.59   17.41
  -3  -8  17  139.52   13.72
  -3  -8  18   15.45    8.67
  -3  -8  18   18.37    9.11
  -3  -8  19    1.33    4.43
  -3  -8  19    0.42    3.73
  -3  -8  20   19.80    9.42
  -3  -8  20   23.09    6.44
  -3  -8  21    8.58    4.69
  -3  -8  21    2.26    3.25
  -3  -8  22    1.69    3.97
  -3  -8  22    7.18    3.58
  -3  -8  23    7.98    4.38
  -3  -8  23    6.61    4.04
  -3  -8  24    8.35    4.31
  -3  -8  24    6.02    4.78
  -3  -8  25    3.80    3.86
  -3  -8  25    8.46    4.49
   3   9  22    5.30    8.35
   3   9  21    8.71   10.95
   3   9  20    9.66    9.82
   3   9  19    4.86    7.07
   3   9  18   13.33    7.55
   3   9  17    8.49    8.22
   3   9  16    9.33   10.09
  -3  -9 -16   30.44   19.21
   3   9  15   37.07   11.45
   3   9  14    7.17    7.14
  -3  -9 -14   14.66    7.47
   3   9  13   10.44    9.38
  -3  -9 -13    9.72    6.60
   3   9  12    3.91    5.12
  -3  -9 -12    8.26    7.64
   3   9  11   36.36   10.99
  -3  -9 -11   40.04   14.73
   3   9  10   31.79   10.17
  -3  -9 -10   28.57   11.59
   3   9   9   51.51   11.90
  -3  -9  -9   56.31   16.48
   3   9   8    5.60    5.97
  -3  -9  -8    1.69    4.52
   3   9   7    5.45    6.22
  -3  -9  -7    3.01    4.41
   3   9   6   15.04    9.24
  -3  -9  -6   10.69    6.58
   3   9   5   16.37    9.66
  -3  -9  -5    6.76    5.51
   3   9   4    4.54    5.72
  -3  -9  -4    4.33    7.14
   3   9   3    5.58    5.40
  -3  -9  -3   10.68    7.54
   3   9   2    5.38    5.18
  -3  -9  -2   -1.40    5.22
   3   9   1   15.38    7.25
  -3  -9  -1   13.27    7.23
   3   9   0  332.93   15.85
  -3  -9   0  298.36   22.98
   3   9  -1  219.00   18.17
  -3  -9   1  218.71   17.93
   3   9  -2   10.52    7.73
  -3  -9   2    2.91    4.15
   3   9  -3  121.39   12.67
  -3  -9   3  113.77   10.81
   3   9  -4   10.74    6.23
  -3  -9   4    6.72    4.33
   3   9  -5    6.91    5.93
  -3  -9   5   10.80    5.58
   3   9  -6   12.38    6.23
  -3  -9   6   13.07    5.15
  -3  -9   7   15.39   10.41
  -3  -9   7   15.42    4.48
  -3  -9   8   17.38    8.89
  -3  -9   8    9.89    6.09
  -3  -9   9  364.81   57.84
  -3  -9   9  323.87   20.97
  -3  -9  10   34.60   11.91
  -3  -9  10   35.50   10.74
  -3  -9  11   71.00   20.93
  -3  -9  12   53.58   15.63
  -3  -9  12   34.96    9.59
  -3  -9  13  103.44   18.70
  -3  -9  13   91.97   15.94
  -3  -9  14   16.18    7.41
  -3  -9  14   17.13    6.81
  -3  -9  15  128.78   12.42
  -3  -9  15  101.89    8.47
  -3  -9  16    4.27    4.50
  -3  -9  16    4.05    3.78
  -3  -9  17   33.64   10.38
  -3  -9  17   26.51    8.10
  -3  -9  18   14.05    6.69
  -3  -9  18   28.16   10.94
  -3  -9  19   23.96    7.61
  -3  -9  19   40.45   13.23
  -3  -9  20   30.56   11.17
  -3  -9  20   40.03   11.31
  -3  -9  21   11.69    4.84
  -3  -9  21   29.87   10.29
  -3  -9  22    5.99    3.64
  -3  -9  22    6.61    4.77
  -3  -9  23    3.19    5.08
  -3  -9  23   14.19    6.41
  -3  -9  24   14.13    7.22
  -3  -9  24    3.30    3.00
   3  10  22    9.94    8.88
   3  10  21    8.91    8.68
   3  10  20   13.49   11.57
   3  10  19   -0.18    6.47
   3  10  18   14.41   10.69
   3  10  17   -1.15    6.46
  -3 -10 -17   15.02   13.96
   3  10  16   13.49   10.75
  -3 -10 -16   17.73   15.91
   3  10  15    5.84    6.03
  -3 -10 -15    7.44    4.10
   3  10  14  126.24   17.36
   3  10  13    7.93    6.18
  -3 -10 -13   10.21    8.48
   3  10  12  348.20   29.47
   3  10  11   45.76   11.79
  -3 -10 -11   81.04   21.12
   3  10  10   18.51    7.07
  -3 -10 -10   16.70    8.43
   3  10   9    3.99    5.51
  -3 -10  -9    7.69    4.33
   3  10   8   19.66    7.58
  -3 -10  -8   14.30    5.83
   3  10   7  128.41   16.66
  -3 -10  -7  136.59   37.39
  -3 -10  -6   12.89    6.22
   3  10   5   18.15    7.03
  -3 -10  -5   27.72    8.51
   3  10   4  152.60   16.10
  -3 -10  -4  140.11   15.20
   3  10   3   22.73   10.16
  -3 -10  -3   24.54    9.42
   3  10   2  788.04   28.68
  -3 -10  -2  850.27   32.31
   3  10   1   12.80    6.40
  -3 -10  -1   18.36    8.37
   3  10   0  109.91   15.68
  -3 -10   0   94.63   12.98
   3  10  -1    7.54    5.47
  -3 -10   1    4.84    5.14
   3  10  -2   23.99    8.50
  -3 -10   2   19.74    7.16
   3  10  -3  121.83   15.47
  -3 -10   3  129.01   13.95
   3  10  -4    7.80    3.73
  -3 -10   4   13.07    6.44
   3  10  -5  120.93   15.94
  -3 -10   5  141.66   14.01
   3  10  -6   75.53   12.06
  -3 -10   6   58.92   10.00
   3  10  -7   11.15    6.43
  -3 -10   7    6.90    3.96
  -3 -10   8   99.62   11.95
  -3 -10   9   16.36    8.86
  -3 -10   9   16.05    6.17
  -3 -10  10   57.12   19.37
  -3 -10  10   50.18    6.99
  -3 -10  11   32.15   11.05
  -3 -10  12   21.95    8.11
  -3 -10  12   29.68    7.85
  -3 -10  13   32.90   10.18
  -3 -10  13   28.27    7.02
  -3 -10  14    7.63    6.62
  -3 -10  14   10.10    3.28
  -3 -10  15   16.88    9.03
  -3 -10  15   12.10    5.25
  -3 -10  16   49.49   13.73
  -3 -10  16   46.44   15.80
  -3 -10  17    7.51    6.55
  -3 -10  17    7.03    5.00
  -3 -10  18   14.55    8.26
  -3 -10  18   19.13    9.65
  -3 -10  19   10.65    8.11
  -3 -10  19   14.79    5.37
  -3 -10  20    5.98    4.28
  -3 -10  20    8.42    4.68
  -3 -10  21   18.08    7.55
  -3 -10  21   29.10    9.39
  -3 -10  22   51.57   14.20
  -3 -10  22   28.16    6.51
  -3 -10  23    7.94    4.86
  -3 -10  23    8.26    4.89
  -3 -10  24   90.06   24.17
  -3 -10  24   29.96    9.70
   3  11  21    2.65    8.68
   3  11  20   12.24   11.41
   3  11  19    8.89    9.73
   3  11  18    1.28    6.71
   3  11  17   21.93   11.13
  -3 -11 -17   24.38   16.00
   3  11  16   14.10    6.65
  -3 -11 -16    4.92    7.21
   3  11  15    8.21    6.27
  -3 -11 -15   14.00   10.26
   3  11  14    3.99    5.95
  -3 -11 -14    4.02    5.09
   3  11  13    4.38    8.42
  -3 -11 -13   14.04    7.13
   3  11  12   13.16    7.93
  -3 -11 -12   12.53    6.84
   3  11  11  284.54   25.58
   3  11  10   13.54    6.36
  -3 -11 -10   17.30    8.04
   3  11   9   39.42    9.75
  -3 -11  -9   64.12   20.65
   3  11   8  112.09   19.02
  -3 -11  -8  128.02   22.33
   3  11   7   -0.02    5.24
  -3 -11  -7    3.33    3.85
   3  11   6   25.08   10.01
  -3 -11  -6   23.11    9.87
   3  11   5    8.57    7.97
  -3 -11  -5    9.87    7.28
   3  11   4  172.34   16.81
  -3 -11  -4  217.53   20.09
   3  11   3   48.98   12.51
  -3 -11  -3   45.29   11.30
   3  11   2  402.86   27.52
  -3 -11  -2  386.27   26.53
   3  11   1   21.28    7.86
  -3 -11  -1   50.99   13.03
   3  11   0   25.38    8.52
  -3 -11   0   22.71    8.05
   3  11  -1  503.68   32.46
  -3 -11   1  411.62   27.03
   3  11  -2    3.23    6.24
  -3 -11   2   13.57    7.51
   3  11  -3    8.09    5.72
  -3 -11   3    9.82    5.48
   3  11  -4   99.37   13.63
  -3 -11   4   89.19   12.58
   3  11  -5   97.06   13.96
  -3 -11   5   84.48   11.09
   3  11  -6   51.57   12.67
  -3 -11   6   51.04   11.90
   3  11  -7   11.82    6.24
  -3 -11   7   18.55    7.88
   3  11  -8  337.15   28.46
  -3 -11   8  309.70   25.38
   3  11  -9   16.74   10.01
  -3 -11   9   11.71    8.15
  -3 -11  10  284.96   52.58
  -3 -11  10  277.68   23.47
  -3 -11  11   99.61   19.46
  -3 -11  11   85.21    9.33
  -3 -11  12   12.56    7.02
  -3 -11  13    7.07    4.58
  -3 -11  13    1.78    3.53
  -3 -11  14    4.12    3.84
  -3 -11  14    3.73    3.53
  -3 -11  15   16.85   11.07
  -3 -11  16   16.84    8.61
  -3 -11  16   26.07    9.77
  -3 -11  17   31.78   13.84
  -3 -11  17   40.16   13.19
  -3 -11  18    3.85    4.40
  -3 -11  18   13.51    7.81
  -3 -11  19   10.54    6.33
  -3 -11  19    0.26    3.03
  -3 -11  20   11.11    4.50
  -3 -11  20   20.58    7.53
  -3 -11  21   15.69    7.78
  -3 -11  21    2.26    3.37
  -3 -11  22    5.33    4.45
  -3 -11  22    5.00    3.67
  -3 -11  23   54.15   16.37
  -3 -11  23   20.21    9.60
   3  12  20    7.79   11.62
   3  12  19    3.33    7.66
   3  12  18   14.05    8.60
  -3 -12 -18   27.02   18.16
   3  12  17    0.83    6.46
  -3 -12 -17   12.38    9.37
   3  12  16    7.14    6.20
  -3 -12 -16    6.16    6.02
   3  12  15   18.95   10.17
  -3 -12 -15   13.50    9.16
   3  12  14   10.68    8.26
  -3 -12 -14    9.34    5.93
   3  12  13    2.85    7.68
  -3 -12 -13    8.12    7.62
   3  12  12   11.29    8.82
  -3 -12 -12    2.21    4.22
   3  12  11    6.55    8.68
  -3 -12 -11   13.97    8.09
   3  12  10   24.27    8.85
  -3 -12 -10   20.43   10.92
   3  12   9    6.71    5.13
  -3 -12  -9    2.11    3.93
   3  12   8   58.74   12.07
  -3 -12  -8   60.52   19.79
   3  12   7    8.44    4.82
  -3 -12  -7    9.39    7.74
   3  12   6   23.20    8.24
  -3 -12  -6    8.86    4.16
   3  12   5   12.47    4.18
  -3 -12  -5   41.16   11.80
   3  12   4   24.52    7.87
  -3 -12  -4   17.04    8.19
   3  12   3   33.15   11.83
  -3 -12  -3   31.49    9.89
   3  12   2    8.76    5.75
  -3 -12  -2    3.20    4.74
   3  12   1   47.70   12.82
  -3 -12  -1   42.15   11.26
   3  12   0   20.08    9.16
  -3 -12   0   20.55    8.16
  -3 -12   1   15.24    7.02
  -3 -12   2    7.71    4.82
  -3 -12   3   36.19   10.26
   3  12  -4    7.83    8.27
  -3 -12   4   13.71    6.68
   3  12  -5   18.22   10.22
  -3 -12   5    1.29    4.49
   3  12  -6   32.84    8.43
  -3 -12   6   32.50    9.24
   3  12  -7    6.02    6.02
  -3 -12   7    0.96    4.19
   3  12  -8   98.87   17.94
  -3 -12   8   85.20   14.48
   3  12  -9    7.06    6.29
  -3 -12   9   10.98    5.25
   3  12 -10  191.35   14.42
  -3 -12  10  201.71   23.88
  -3 -12  11    6.82    4.13
  -3 -12  12   42.19   17.47
  -3 -12  13   12.62    8.50
  -3 -12  14    8.97    4.85
  -3 -12  14   10.06    6.39
  -3 -12  15    4.49    4.38
  -3 -12  15   -2.44    3.98
  -3 -12  16   71.09   20.01
  -3 -12  16   71.99   11.23
  -3 -12  17    5.59    2.84
  -3 -12  17   -0.43    4.54
  -3 -12  18   57.46   23.70
  -3 -12  18   54.67   11.11
  -3 -12  19   12.73    8.24
  -3 -12  19   20.21    7.93
  -3 -12  20   35.86    9.34
  -3 -12  21    5.06    4.57
  -3 -12  21    6.84    3.27
  -3 -12  22    7.24    3.12
  -3 -12  22   20.28    8.22
   3  13  18    8.58    8.24
  -3 -13 -18    6.16    9.76
   3  13  17   16.29   10.30
  -3 -13 -17   -1.09    9.42
   3  13  16   -1.90    6.04
  -3 -13 -16   -0.83    4.95
   3  13  15    5.87    5.36
  -3 -13 -15    3.98    4.95
   3  13  14    5.97    8.30
  -3 -13 -14   13.07    7.95
   3  13  13   14.45    7.77
  -3 -13 -13    8.16    6.04
   3  13  12   19.21   11.21
  -3 -13 -12   17.78   12.69
   3  13  11    7.41    6.03
  -3 -13 -11    6.69    7.88
   3  13  10    5.19    5.70
  -3 -13 -10    7.04    4.45
   3  13   9  124.88   16.73
  -3 -13  -9  121.97   38.04
   3  13   8    7.32    7.11
  -3 -13  -8   11.98    7.42
   3  13   7  123.61   14.82
  -3 -13  -7  111.56   27.95
   3  13   6    9.36    4.99
  -3 -13  -6    6.84    5.50
   3  13   5   83.23   15.63
  -3 -13  -5  111.61   15.02
   3  13   4    7.44    5.21
  -3 -13  -4   15.22    8.12
   3  13   3   12.53    6.02
  -3 -13  -3   10.03    5.36
   3  13   2   13.02    5.93
  -3 -13  -2   35.61    9.56
   3  13   1   40.66   13.13
  -3 -13  -1   24.62    8.33
   3  13   0   85.12   15.10
  -3 -13   0   88.34   16.88
   3  13  -1    4.78    6.13
  -3 -13   1    1.33    4.60
   3  13  -2    7.59    8.77
  -3 -13   2    3.52    4.66
   3  13  -3   28.92    9.93
  -3 -13   3    0.97    4.25
   3  13  -4   48.71   13.99
  -3 -13   4   71.60   14.02
   3  13  -5   22.20    8.85
  -3 -13   5   31.02    8.93
   3  13  -6    4.99    4.31
  -3 -13   6    6.22    3.26
   3  13  -7    3.05    4.55
  -3 -13   7    9.22    6.51
   3  13  -8    5.54    5.24
  -3 -13   8   -0.25    3.63
   3  13  -9  122.47   14.01
  -3 -13   9  101.85   11.71
  -3 -13  10   10.44    3.85
  -3 -13  11    8.90    3.90
   3  13 -12    1.82    4.99
  -3 -13  12    5.52    3.51
  -3 -13  14    3.98    4.45
  -3 -13  14    2.20    4.05
  -3 -13  15   14.77    8.77
  -3 -13  15    5.63    4.09
  -3 -13  16   13.46   11.34
  -3 -13  16   19.86    8.30
  -3 -13  17   -1.22    4.04
  -3 -13  17    3.86    3.84
  -3 -13  18   10.18    6.58
  -3 -13  18    9.03    3.79
  -3 -13  19   29.08   11.18
  -3 -13  19    9.65    4.25
  -3 -13  20    3.61    5.96
  -3 -13  20    4.73    3.98
  -3 -13  21   18.23   11.82
  -3 -13  21   55.73   16.24
   3  14  17   14.48    8.64
  -3 -14 -17    3.28    5.68
   3  14  16   -0.18    5.94
  -3 -14 -16   10.23    7.72
   3  14  15    4.55    5.82
  -3 -14 -15    7.27    6.52
   3  14  14    7.18    5.37
  -3 -14 -14    9.80    6.26
   3  14  13    6.62    5.50
  -3 -14 -13    4.85    3.79
   3  14  12   15.03    8.62
  -3 -14 -12   21.75   14.87
   3  14  11    8.18    7.87
  -3 -14 -11   13.49    9.45
   3  14  10   23.54    6.87
  -3 -14 -10   31.75   16.54
   3  14   9   21.68    7.18
  -3 -14  -9   48.22   22.43
   3  14   8   16.25    6.64
  -3 -14  -8   19.51    9.33
   3  14   7   33.14   12.93
  -3 -14  -7   32.61   17.36
   3  14   6    4.43    5.22
  -3 -14  -6    3.57    6.07
   3  14   5   24.47    9.20
  -3 -14  -5   14.35    7.26
   3  14   4   18.78   10.85
  -3 -14  -4   14.48    7.41
   3  14   3   42.74   13.96
  -3 -14  -3   46.67   12.22
   3  14   2   12.45    6.58
  -3 -14  -2   12.71    7.39
   3  14   1   12.50    5.38
  -3 -14  -1   23.58   11.73
   3  14   0  247.77   22.43
  -3 -14   0  202.17   18.49
   3  14  -1   19.29    8.69
  -3 -14   1   23.65   11.62
   3  14  -2  181.88   18.29
  -3 -14   2  183.98   17.44
   3  14  -3    9.24    4.97
  -3 -14   3    7.23    4.89
   3  14  -4   25.37   11.55
  -3 -14   4    6.02    6.77
   3  14  -5   64.55   14.27
  -3 -14   5   91.75   18.98
   3  14  -6    6.37    4.45
  -3 -14   6    4.83    4.15
  -3 -14   7   15.97    7.83
  -3 -14   8    6.33    4.10
  -3 -14   9  112.39   13.88
   3  14 -10  111.23   16.48
  -3 -14  10  115.28   28.64
   3  14 -11   22.80   10.70
  -3 -14  11   19.99    7.04
   3  14 -12  180.13   14.38
  -3 -14  12  141.22   25.27
   3  14 -13   26.67    9.43
  -3 -14  13    9.66    4.81
   3  14 -14   51.76   11.19
  -3 -14  15    0.62    4.49
  -3 -14  16   18.78   10.05
  -3 -14  16    7.02    4.42
  -3 -14  17    7.04    6.61
  -3 -14  17   11.73    5.92
  -3 -14  18   12.01    6.92
  -3 -14  18    8.39    3.88
  -3 -14  19    4.50    7.85
  -3 -14  19    4.86    3.86
  -3 -14  20   17.87   21.15
  -3 -14  20   23.64    8.38
   3  15  16    7.99    8.84
  -3 -15 -16   12.28    8.34
   3  15  15   -0.66    5.59
  -3 -15 -15    6.11    6.75
   3  15  14    3.48    5.69
  -3 -15 -14   11.71   11.96
   3  15  13    9.14    5.50
  -3 -15 -13    3.68    5.30
   3  15  12   -0.73    5.02
  -3 -15 -12   11.54    7.09
   3  15  11   10.66    6.38
  -3 -15 -11   43.74   18.76
   3  15  10    2.07    5.57
  -3 -15 -10    3.98    3.95
   3  15   9   18.13    7.81
  -3 -15  -9    4.52    6.11
   3  15   8    3.80    5.26
  -3 -15  -8   12.55    6.99
   3  15   7    7.41    8.53
  -3 -15  -7   16.94   12.46
   3  15   6   10.63    7.97
  -3 -15  -6    5.27    5.45
   3  15   5  140.21   15.84
  -3 -15  -5  133.14   15.52
   3  15   4    9.83    5.43
  -3 -15  -4    6.47    5.58
   3  15   3    7.68    5.39
  -3 -15  -3    5.60    5.17
   3  15   2   19.60    9.79
  -3 -15  -2   17.11    9.74
   3  15   1    2.92    4.79
  -3 -15  -1   16.12    9.43
   3  15   0    0.33    4.28
  -3 -15   0    4.52    7.36
   3  15  -1    5.67    4.78
  -3 -15   1    7.59    7.24
   3  15  -2    3.96    4.91
  -3 -15   2    2.32    5.22
   3  15  -3   16.88    9.74
  -3 -15   3    4.41    7.43
   3  15  -4   21.77   10.88
  -3 -15   4   10.23    6.14
  -3 -15   5  104.04   15.17
   3  15  -6   11.23    7.23
  -3 -15   6   11.11    7.58
   3  15  -7   27.83   10.78
  -3 -15   7    7.99    6.86
   3  15  -8   12.53    8.17
  -3 -15   8   12.20    7.22
   3  15  -9    6.30    5.18
  -3 -15   9    9.01    4.88
   3  15 -10    5.90    5.24
  -3 -15  10   11.16    7.48
   3  15 -11   22.09    8.02
  -3 -15  11   26.24    8.41
   3  15 -12    8.36    8.40
  -3 -15  12    3.78    4.87
   3  15 -13  124.27   18.58
  -3 -15  13  130.61   19.69
   3  15 -14   39.51   12.48
   3  15 -15   24.28   10.98
  -3 -15  15   19.77    8.76
   3  15 -16   36.63   11.59
  -3 -15  16   62.19   16.08
  -3 -15  17   17.16    6.27
  -3 -15  18    7.07    5.47
  -3 -15  19   11.64    7.66
  -3 -15  19   10.72    5.87
   3  16  14   12.46    8.45
  -3 -16 -14    8.93   10.89
   3  16  13    9.17    7.89
  -3 -16 -13    9.41    5.83
   3  16  12   22.22    9.28
  -3 -16 -12   10.51    7.40
   3  16  11   13.30    6.32
  -3 -16 -11   15.02    7.83
   3  16  10    2.54    5.60
  -3 -16 -10    0.62    4.04
   3  16   9    6.74    7.41
  -3 -16  -9   10.66    6.16
   3  16   8    2.63    4.91
  -3 -16  -8    2.32    5.68
   3  16   7    2.90    5.14
  -3 -16  -7    1.05    5.36
   3  16   6    5.71    5.64
  -3 -16  -6   10.07    5.65
   3  16   5   18.58    7.82
  -3 -16  -5    5.18    5.41
   3  16   4    7.26    5.08
  -3 -16  -4   21.50    8.12
   3  16   3    1.22    4.95
  -3 -16  -3    2.86    4.67
   3  16   2   22.05    7.92
  -3 -16  -2   22.69    8.21
   3  16   1    3.57    4.61
  -3 -16  -1    6.66    5.22
   3  16   0   -1.00    4.00
  -3 -16   0    1.42    5.26
   3  16  -1    7.88    6.07
  -3 -16   1    2.76    6.77
  -3 -16   2    8.09    6.80
  -3 -16   3    9.86    5.25
   3  16  -4   13.24    9.03
  -3 -16   4    4.64    5.34
   3  16  -5   11.59    7.87
  -3 -16   5   14.89    9.75
   3  16  -6    5.26    4.55
  -3 -16   6    7.92    6.67
   3  16  -7    5.35    4.41
  -3 -16   7    6.77    6.05
   3  16  -8    9.09    5.14
  -3 -16   8   17.85    9.97
   3  16  -9    6.18    6.53
  -3 -16   9   13.12    6.89
   3  16 -10   57.55   10.94
  -3 -16  10   56.92   10.85
   3  16 -11    9.41    5.36
  -3 -16  11    3.58    4.30
   3  16 -12   21.84    9.56
  -3 -16  12   21.84    9.47
   3  16 -13    6.80    5.26
  -3 -16  13    6.81    5.18
   3  16 -14   14.74    8.13
  -3 -16  14   18.92    9.93
   3  16 -15    1.76    4.70
  -3 -16  15    8.42    5.38
   3  16 -16   23.56    8.10
  -3 -16  16   32.87   14.66
   3  16 -17    8.54    5.58
  -3 -16  17   19.91    8.01
   3  17  12   -0.45    5.16
  -3 -17 -12    4.99    5.65
  -3 -17 -11    7.41    7.76
   3  17  10    3.52    5.48
  -3 -17 -10    0.86    3.96
   3  17   9    5.16    7.27
  -3 -17  -9    9.25    5.10
   3  17   8    9.52    7.77
  -3 -17  -8   13.69    9.72
   3  17   7   14.66    8.23
  -3 -17  -7    8.48    4.87
   3  17   6   12.52    7.34
  -3 -17  -6   13.40    7.25
   3  17   5   49.10   10.02
  -3 -17  -5  109.46   18.28
   3  17   4    9.69    5.64
  -3 -17  -4    6.62    5.26
   3  17   3   55.87   10.43
  -3 -17  -3   66.70   12.19
   3  17   2   -2.38    5.21
  -3 -17  -2   15.10    5.74
  -3 -17  -1  147.34   22.27
  -3 -17   0   11.81    7.28
   3  17  -1    6.35    4.81
  -3 -17   1   10.10    7.37
   3  17  -2    7.31    4.76
  -3 -17   2    8.30    5.28
   3  17  -3    4.56    5.03
  -3 -17   3    8.49    5.57
   3  17  -4   68.63   11.82
  -3 -17   4   81.57   14.01
   3  17  -5    9.82    6.50
  -3 -17   5   12.58    6.91
   3  17  -6    9.51    6.77
  -3 -17   6    7.98    6.85
   3  17  -7   29.41   10.80
  -3 -17   7   34.67   11.46
   3  17  -8   18.28   10.47
  -3 -17   8   28.31    9.64
   3  17  -9   60.69   11.34
  -3 -17   9   85.92   12.47
   3  17 -10    6.60    4.80
  -3 -17  10   20.17   10.08
   3  17 -11    9.87    6.72
  -3 -17  11   25.87   11.23
   3  17 -12   10.49    6.51
  -3 -17  12   11.75    6.78
   3  17 -13    5.01    4.87
  -3 -17  13    4.81    4.85
   3  17 -14    3.98    4.76
  -3 -17  14    6.28    6.24
   3  17 -15    3.20    5.33
   3  18   9   10.48    5.80
  -3 -18  -9    8.11    5.16
   3  18   8    6.76    5.74
  -3 -18  -8    6.92    5.66
   3  18   7    4.23    5.56
  -3 -18  -7    4.73    4.98
   3  18   6    6.00    5.19
  -3 -18  -6   11.41    7.39
  -3 -18  -5   19.54    8.19
  -3 -18  -4    8.69    5.58
   3  18   3   65.86   17.36
  -3 -18  -3   47.71   13.32
   3  18   2    3.55    4.89
  -3 -18  -2   10.08    7.83
   3  18   1   20.75    9.30
  -3 -18  -1   31.86   10.64
   3  18   0    1.95    4.48
  -3 -18   0    3.80    5.21
   3  18  -1    5.31    4.82
  -3 -18   1    5.26    5.35
   3  18  -2    5.62    4.86
  -3 -18   2   25.21    8.07
   3  18  -3    4.88    4.58
  -3 -18   3    6.31    5.33
   3  18  -4   34.66   10.70
  -3 -18   4   42.18   12.44
   3  18  -5    9.90    6.75
  -3 -18   5    9.73    5.19
   3  18  -6   79.04   18.94
  -3 -18   6   69.97   18.17
   3  18  -7   74.69   18.43
  -3 -18   7   94.82   11.83
   3  18  -8   61.31   16.95
  -3 -18   8   33.06   10.75
   3  18  -9   70.23   27.32
  -3 -18   9   78.19   30.19
   3  18 -10    6.68    5.03
  -3 -18  10    2.46    5.02
   3  18 -11   20.65    7.60
  -3 -18  11   13.66    7.93
   3  18 -12    6.83    6.98
  -3 -18  12    9.44    4.89
   3  18 -13    8.32    5.20
  -3 -18  13    9.41    6.30
   3  19   6    5.45    5.06
  -3 -19  -6   17.81   10.38
   3  19   5   16.63    7.91
  -3 -19  -5    9.24    7.04
   3  19   4   38.46   13.12
  -3 -19  -4   21.21    8.38
   3  19   3    6.30    4.85
  -3 -19  -3    5.40    5.14
   3  19   2   19.83    7.79
  -3 -19  -2   21.15    8.41
   3  19   1    7.03    4.92
  -3 -19  -1   11.41    5.99
   3  19   0   11.26    6.66
  -3 -19   0   13.96    9.36
   3  19  -1    0.75    4.45
  -3 -19   1   15.04    9.62
   3  19  -2    5.76    6.41
  -3 -19   2    7.15    5.65
   3  19  -3    6.31    6.67
  -3 -19   3    7.65    5.53
   3  19  -4    4.37    4.57
  -3 -19   4    3.99    4.98
   3  19  -5    7.33    4.56
  -3 -19   5    3.57    4.67
   3  19  -6  103.74   38.00
  -3 -19   6    1.96    4.73
   3  19  -7   24.29    7.79
  -3 -19   7   44.07   19.03
   3  19  -8    5.33    4.86
  -3 -19   8    2.49    4.65
   3  19  -9   22.14    9.85
  -3 -19   9   45.70   14.99
   3  19 -10   11.35    6.88
  -3 -19  10   -2.55    4.22
   3  20  -2   17.58    8.33
  -3 -20   2    4.75    5.85
   4 -19   6   -0.72    4.08
   4 -19   5   48.59   15.52
   4 -19   4   12.58    5.88
   4 -19   3    4.10    3.53
   4 -19   2    2.36    3.58
   4 -19   1    7.51    5.00
   4 -19   0   13.87    5.21
   4 -19  -1    6.76    4.47
   4 -19  -2    6.01    5.65
   4 -19  -3    9.62    5.05
   4 -18  11   16.01    9.70
   4 -18  10   12.69    7.76
   4 -18   9    3.45    5.08
   4 -18   8   35.83   14.61
   4 -18   7    3.43    5.12
   4 -18   6    6.43    5.15
   4 -18   5    9.64    7.58
   4 -18   4   24.60    8.30
   4 -18   3    3.18    3.94
   4 -18   2   68.54   16.43
  -4  18  -1    2.99    2.72
   4 -18   1   15.72    7.28
  -4  18   0    2.97    2.92
   4 -18   0    3.57    3.32
  -4  18   1   23.45    5.26
   4 -18  -1   11.79    5.19
  -4  18   2   -0.24    2.74
   4 -18  -2    4.78    4.25
  -4  18   3   40.50   16.07
   4 -18  -3   55.93   21.97
  -4  18   4    2.03    3.00
   4 -18  -4    4.82    5.17
  -4  18   5    3.35    3.44
   4 -18  -5    5.41    4.38
  -4  18   6    1.03    3.61
   4 -18  -6    4.26    4.27
  -4  18   7    5.17    6.29
   4 -18  -7    8.15    5.94
   4 -17  14    7.74    7.39
   4 -17  13    0.21    6.74
   4 -17  12    2.97    6.66
   4 -17  11   70.38   27.84
   4 -17  10    6.16    5.79
   4 -17   9   11.29    5.97
   4 -17   8    7.02    5.30
   4 -17   7   12.45    7.85
   4 -17   6   24.06   11.87
   4 -17   5    5.20    5.14
   4 -17   4   34.93   12.14
  -4  17  -3    8.58    2.81
   4 -17   3   13.72    7.66
  -4  17  -2   38.44    9.51
   4 -17   2   65.53   10.53
  -4  17  -1  124.44   11.36
   4 -17   1  130.54   14.58
  -4  17   0    0.12    2.24
   4 -17   0    4.38    3.58
  -4  17   1   82.21    9.80
   4 -17  -1   82.94   10.67
  -4  17   2   16.54    7.27
   4 -17  -2   19.42    8.37
  -4  17   3    8.57    2.99
   4 -17  -3    7.17    3.42
  -4  17   4   30.79    9.18
   4 -17  -4   14.31    6.10
  -4  17   5    4.40    3.53
   4 -17  -5    3.11    2.99
  -4  17   6    4.30    5.23
   4 -17  -6    6.69    4.97
  -4  17   7    9.03    4.27
   4 -17  -7   23.51    6.60
  -4  17   8   11.13    6.15
   4 -17  -8   10.15    4.63
  -4  17   9   22.57   10.79
  -4  17  10    2.56    4.49
   4 -16  16   15.22   13.10
   4 -16  15   22.25   10.52
   4 -16  14   26.72   15.61
   4 -16  13   32.93   16.72
   4 -16  12   11.43    7.31
   4 -16  11    4.23    6.77
   4 -16  10    5.86    5.92
   4 -16   9   11.61    6.27
   4 -16   8    9.71    5.96
   4 -16   7   17.56    8.71
  -4  16  -6    6.33    2.13
   4 -16   6    7.60    5.73
  -4  16  -5    7.76    2.30
   4 -16   5   10.41    5.22
  -4  16  -4    5.32    2.08
   4 -16   4   10.21    5.75
  -4  16  -3    8.86    2.59
   4 -16   3   13.40    6.43
  -4  16  -2    2.37    1.87
   4 -16   2    2.87    4.12
  -4  16  -1    2.43    2.14
   4 -16   1   10.79    6.74
  -4  16   0    1.23    2.34
   4 -16   0   10.32    4.63
  -4  16   1    1.53    2.47
   4 -16  -1    4.06    4.58
  -4  16   2    2.80    3.74
   4 -16  -2    3.38    3.69
  -4  16   3   17.37    5.63
   4 -16  -3    8.73    3.22
  -4  16   4    3.76    5.07
   4 -16  -4    8.45    4.78
  -4  16   5   -0.88    3.35
   4 -16  -5    1.55    2.88
  -4  16   6   -0.72    3.21
   4 -16  -6    7.32    4.83
  -4  16   7    8.11    4.76
   4 -16  -7    7.34    4.29
  -4  16   8    6.74    4.08
   4 -16  -8    5.05    3.61
  -4  16   9   14.16    8.50
   4 -16  -9    4.15    3.75
  -4  16  10    8.37    4.78
  -4  16  11    8.12    6.47
  -4  16  12    8.99    4.38
   4 -15  17   19.97   11.85
   4 -15  16    8.69    9.01
   4 -15  15   30.64   13.85
   4 -15  14    8.55    8.61
   4 -15  13   11.55    8.32
   4 -15  12    7.35    8.08
   4 -15  11   82.45   16.41
   4 -15  10   13.01    8.37
   4 -15   9   21.60    9.78
  -4  15  -8    7.01    1.47
   4 -15   8    7.70    7.70
  -4  15  -7   40.82   11.32
   4 -15   7   31.78   11.66
  -4  15  -6   29.61    3.09
   4 -15   6   26.86    8.59
  -4  15  -5    2.44    1.58
   4 -15   5    9.07    7.58
  -4  15  -4   32.05    9.37
   4 -15   4   29.93   10.45
  -4  15  -3   10.04    3.43
   4 -15   3   21.46    7.50
  -4  15  -2    3.03    1.87
   4 -15   2   -1.29    4.25
  -4  15  -1   35.04   10.52
   4 -15   1   47.24   14.73
  -4  15   0    8.58    4.01
   4 -15   0    3.40    3.30
  -4  15   1    8.36    3.59
   4 -15  -1    7.41    4.24
  -4  15   2   10.27    3.76
   4 -15  -2    5.28    3.29
  -4  15   3   32.04   10.30
   4 -15  -3   31.34   10.40
  -4  15   4    4.10    5.22
   4 -15  -4    2.90    2.53
  -4  15   5    4.70    5.41
   4 -15  -5    6.83    4.49
  -4  15   6   15.78    5.16
   4 -15  -6   12.94    4.88
  -4  15   7   15.44    5.60
   4 -15  -7   24.48    8.65
  -4  15   8   11.91    6.08
   4 -15  -8    4.50    3.35
  -4  15   9   21.34    9.02
   4 -15  -9   11.37    3.45
  -4  15  10   -0.44    4.45
   4 -15 -10   10.45    4.42
  -4  15  11   10.43    7.49
  -4  15  12    4.65    4.48
  -4  15  13    0.90    4.62
  -4  15  14    1.45    5.18
   4 -14  19   17.29   12.18
   4 -14  18   17.35   14.21
   4 -14  17   11.53   17.74
   4 -14  16   33.21   14.84
   4 -14  15    8.14    8.83
   4 -14  14   46.49   16.59
   4 -14  13    9.38    8.83
   4 -14  12   12.15   12.56
   4 -14  11   13.82    8.66
   4 -14  10   79.01   15.11
   4 -14   9   18.20   12.74
   4 -14   8  174.18   22.91
  -4  14  -7   24.08    6.83
  -4  14  -7   26.09    7.35
   4 -14   7   20.39    7.70
  -4  14  -6   54.83   10.67
  -4  14  -6   55.07   10.81
   4 -14   6   68.46   18.43
  -4  14  -5    5.13    2.06
  -4  14  -5    2.75    1.60
   4 -14   5   22.78   12.47
  -4  14  -4   39.69    8.27
  -4  14  -4   46.26   11.61
   4 -14   4   48.30   14.04
  -4  14  -3    5.74    2.51
  -4  14  -3    2.96    2.18
   4 -14   3   11.88    5.52
  -4  14  -2    0.66    1.20
  -4  14  -2    4.94    3.06
   4 -14   2    8.74    6.91
  -4  14  -1   15.67    7.13
  -4  14  -1   27.00    6.50
   4 -14   1   51.64   12.87
  -4  14   0   29.58    7.33
   4 -14   0   32.25   11.33
  -4  14   1   34.56    7.90
   4 -14  -1    8.50    2.45
   4 -14  -1   28.45    8.04
  -4  14   2  216.12   18.26
   4 -14  -2  227.05   19.33
  -4  14   3   13.34    7.14
   4 -14  -3   10.01    4.99
  -4  14   4   60.15   13.55
   4 -14  -4   77.45    8.93
  -4  14   5    4.72    3.93
   4 -14  -5   15.65    5.31
  -4  14   6   64.90   15.32
   4 -14  -6   61.04   13.78
  -4  14   7   19.22    9.59
   4 -14  -7   15.71    4.59
  -4  14   8   41.78   13.39
   4 -14  -8   23.39    5.11
  -4  14   9    9.78    6.68
   4 -14  -9    4.93    3.08
  -4  14  10    8.50    4.80
   4 -14 -10    3.80    2.68
  -4  14  11    7.39    4.45
   4 -14 -11    4.51    2.59
  -4  14  12   12.83    8.02
  -4  14  13    4.30    5.27
  -4  14  14    6.29    7.39
  -4  14  15    2.67    4.45
  -4  14  16    3.67    4.51
   4 -13  20    8.59    9.39
   4 -13  19    8.65    9.49
   4 -13  18   14.98   10.13
   4 -13  17    1.44    8.88
   4 -13  16   11.17   12.39
   4 -13  15    7.18    8.92
   4 -13  14   18.15   14.41
  -4  13 -13   25.98    3.71
   4 -13  13   39.28   16.96
  -4  13 -12    2.20    0.90
   4 -13  12    7.04    9.33
   4 -13  11    6.57    9.61
   4 -13  10   11.95    9.32
   4 -13   9    7.83    8.82
   4 -13   8   14.10    9.51
   4 -13   7   27.85   11.01
  -4  13  -6    1.41    0.88
  -4  13  -6    3.88    1.23
   4 -13   6   18.01   11.13
  -4  13  -5    2.44    1.27
  -4  13  -5    1.11    1.75
   4 -13   5    9.76    9.94
  -4  13  -4    5.40    1.52
  -4  13  -4    5.69    1.84
   4 -13   4   11.42    9.62
  -4  13  -3   23.35    8.60
  -4  13  -3   23.22    8.62
   4 -13   3   19.42   10.65
  -4  13  -2    6.13    2.35
  -4  13  -2    3.60    2.21
   4 -13   2    3.50    5.10
  -4  13  -1    2.94    2.02
  -4  13  -1    8.50    3.38
   4 -13   1   15.53    6.50
  -4  13   0   30.27    9.70
   4 -13   0   13.72    4.98
   4 -13   0   25.66   13.77
  -4  13   1    5.06    4.02
   4 -13  -1    0.25    1.37
   4 -13  -1    3.84    4.23
  -4  13   2  163.54   13.40
   4 -13  -2  143.54   11.82
   4 -13  -2  159.81   25.72
  -4  13   3   30.47    9.76
   4 -13  -3   15.46    5.81
   4 -13  -3   29.64   10.91
  -4  13   4   30.37    9.67
   4 -13  -4   17.77    6.54
   4 -13  -4   27.22    8.87
  -4  13   5   37.08    9.17
   4 -13  -5   59.85   13.25
  -4  13   6    3.38    4.23
   4 -13  -6    4.44    2.63
  -4  13   7   -0.12    4.62
   4 -13  -7    1.38    2.05
  -4  13   7    1.49    3.11
  -4  13   8   39.06   10.89
   4 -13  -8   39.65    9.52
   4 -13  -9    4.52    2.54
  -4  13  10   -0.22    4.44
   4 -13 -10    1.95    2.41
  -4  13  11   14.71    9.54
   4 -13 -11    8.00    2.99
  -4  13  12   29.41   11.43
  -4  13  13    6.65    7.34
  -4  13  14    9.77    5.73
  -4  13  15    8.21    4.71
  -4  13  16    9.67    6.76
  -4  13  17    6.63    6.77
   4 -12  21    8.68    9.54
   4 -12  20    8.38    9.62
   4 -12  19   15.35   14.19
   4 -12  18   -0.54    8.99
  -4  12 -17    5.36    2.46
   4 -12  17    3.66    9.12
  -4  12 -16   61.23    8.36
   4 -12  16   47.14   13.31
  -4  12 -15   29.67    8.54
   4 -12  15   17.61   15.40
  -4  12 -14   91.55    8.29
   4 -12  14   75.72   18.22
  -4  12 -13   75.24    5.72
   4 -12  13   46.19   15.20
  -4  12 -12   65.99   12.75
  -4  12 -12   51.52   10.01
   4 -12  12   54.62   16.27
  -4  12 -11   43.42    8.19
   4 -12  11   34.19   13.22
   4 -12  10   15.75   11.23
   4 -12   9  116.13   16.36
   4 -12   8   70.80   17.17
   4 -12   7   23.06   12.44
   4 -12   6   89.67   12.66
  -4  12  -5   48.37    7.20
   4 -12   5   43.85   12.82
  -4  12  -4  259.68   18.50
  -4  12  -4  257.01   18.23
   4 -12   4  270.71   25.75
  -4  12  -3  105.36   15.10
  -4  12  -3   88.11   12.95
   4 -12   3  106.26   19.10
  -4  12  -2   29.18    7.88
  -4  12  -2   34.40    7.92
   4 -12   2   38.39   12.96
  -4  12  -1   11.50    3.06
  -4  12  -1    5.91    2.56
   4 -12   1    6.76    7.09
  -4  12   0   16.19    5.20
   4 -12   0    8.87    2.32
   4 -12   0   11.14    5.73
  -4  12   1   53.30   12.42
   4 -12  -1   45.65   10.55
   4 -12  -1   57.82   14.48
  -4  12   2   15.54    4.42
   4 -12  -2    7.43    2.67
   4 -12  -2   15.41    6.30
  -4  12   3   11.67    4.95
   4 -12  -3    7.32    2.55
   4 -12  -3    9.92    3.17
  -4  12   3    8.15    3.51
  -4  12   4    2.34    3.21
   4 -12  -4    3.32    2.31
   4 -12  -4    4.82    3.67
  -4  12   4    3.50    3.46
  -4  12   5   10.55    3.92
   4 -12  -5    6.66    2.71
   4 -12  -5   16.67    6.14
  -4  12   5   15.69    6.21
  -4  12   6    8.06    4.49
   4 -12  -6    7.76    3.94
  -4  12   6    8.16    4.38
  -4  12   7    7.32    7.67
   4 -12  -7    3.26    2.78
  -4  12   7    6.10    3.83
  -4  12   8    4.63    4.12
   4 -12  -8    5.47    3.32
  -4  12   8    7.22    4.26
  -4  12   9    2.55    4.20
   4 -12  -9    2.58    2.24
  -4  12   9    7.43    4.05
  -4  12  10    5.67    5.07
   4 -12 -10    6.08    3.17
  -4  12  11    2.98    5.10
   4 -12 -11    3.54    2.66
  -4  12  12   21.86    7.91
   4 -12 -12    7.08    2.96
  -4  12  13    4.81    4.99
  -4  12  14   22.44   10.01
  -4  12  15   11.85    5.13
  -4  12  16    6.38    5.29
  -4  12  17    8.55    8.14
  -4  12  18    3.88    5.48
  -4  12  19    7.96    6.01
   4 -11  22   -0.38    9.22
   4 -11  21   31.90   17.80
   4 -11  20   15.86   10.53
   4 -11  19    6.93    8.46
   4 -11  18    3.13    2.12
   4 -11  18   -0.34    9.02
   4 -11  17    7.73    2.75
   4 -11  17   13.46   13.21
   4 -11  16   -3.60   11.15
  -4  11 -15   28.12    8.25
   4 -11  15   30.72   18.15
  -4  11 -14   56.98   11.51
   4 -11  14   35.89   14.77
  -4  11 -13  150.00   11.04
  -4  11 -13  160.58   12.04
   4 -11  13  206.59   32.23
  -4  11 -12  102.93    7.00
  -4  11 -12  118.48    8.15
   4 -11  12  136.76   27.76
  -4  11 -11   48.81    8.22
   4 -11  11   38.53   15.38
   4 -11  10   10.22   10.13
   4 -11   9   21.75   15.36
   4 -11   8  299.26   29.47
   4 -11   7   21.80   11.31
   4 -11   6   16.80   14.67
   4 -11   5  202.97   24.51
  -4  11  -4   28.56    5.76
  -4  11  -4    8.57    1.30
   4 -11   4   25.70   13.06
  -4  11  -3  585.08   40.44
  -4  11  -3  596.27   41.11
   4 -11   3  616.68   22.03
  -4  11  -2  115.75   14.94
  -4  11  -2  115.83   12.60
   4 -11   2  120.64   18.03
  -4  11  -1  166.55   12.79
   4 -11   1  159.37   12.41
   4 -11   1  178.07   18.34
  -4  11   0  160.08   12.81
   4 -11   0  155.00   12.12
   4 -11   0  160.87   15.05
  -4  11   1   58.65   11.28
   4 -11  -1   63.31   11.63
   4 -11  -1   57.17   12.32
  -4  11   1   35.54    8.56
  -4  11   2   57.43   11.12
   4 -11  -2   55.47   10.59
   4 -11  -2   60.17   13.08
  -4  11   2   52.08   10.86
  -4  11   3    9.04    4.45
   4 -11  -3   10.79    3.20
   4 -11  -3   17.78    6.70
  -4  11   3   12.07    4.43
  -4  11   4   23.17    6.65
   4 -11  -4   38.51    9.18
   4 -11  -4   37.24    8.99
  -4  11   4   36.42    9.67
  -4  11   5    6.51    5.38
   4 -11  -5    1.41    2.38
   4 -11  -5    4.51    2.95
  -4  11   5    5.60    4.51
  -4  11   6    2.92    4.34
   4 -11  -6    1.13    2.30
   4 -11  -6    3.22    2.84
  -4  11   6    9.74    5.14
  -4  11   7   12.16    5.78
   4 -11  -7    8.57    2.85
  -4  11   7    7.29    4.63
  -4  11   8    8.11    7.44
   4 -11  -8    7.37    3.06
  -4  11   8    4.20    3.46
  -4  11   9   51.88   11.58
   4 -11  -9   55.18   10.31
  -4  11   9   47.33    8.91
  -4  11  10   11.06    7.43
   4 -11 -10    6.78    3.07
  -4  11  10    5.21    2.13
  -4  11  11   20.09   10.76
   4 -11 -11    7.70    3.07
  -4  11  11   10.51    2.99
  -4  11  12   26.71   10.44
   4 -11 -12    5.70    1.76
  -4  11  13   81.40   13.24
  -4  11  14    4.67    5.67
  -4  11  15   14.46    7.69
  -4  11  16    8.38    5.73
  -4  11  17    8.19    8.16
  -4  11  18    7.75    5.11
  -4  11  19    8.19    5.20
  -4  11  20    5.71    7.46
   4 -10  23    8.74   11.16
   4 -10  22   40.63   18.06
   4 -10  21   19.23   12.42
   4 -10  20    7.50    2.66
   4 -10  20    7.05    8.74
   4 -10  19    2.87    2.07
   4 -10  19    0.44    8.96
   4 -10  18    2.46    1.92
   4 -10  18   15.61    9.92
   4 -10  17   15.96    8.70
   4 -10  17   54.78   21.33
   4 -10  16    3.66    2.33
   4 -10  16   18.07   16.68
   4 -10  15   13.14    3.39
  -4  10 -15   15.90    3.39
   4 -10  15    3.80   17.06
  -4  10 -14   44.04    8.79
   4 -10  14   53.57   20.06
  -4  10 -13    2.79    1.40
  -4  10 -13    3.25    2.03
   4 -10  13    9.76   12.40
  -4  10 -12  273.79    7.73
  -4  10 -12  280.83    8.38
   4 -10  12  290.21   24.28
  -4  10 -11   23.97    6.56
   4 -10  11   19.92   13.51
   4 -10  10  131.78   24.66
   4 -10   9    9.32   15.69
   4 -10   8   15.65   16.66
   4 -10   7   57.16   16.40
   4 -10   6   67.84   20.36
   4 -10   5  134.94   23.66
   4 -10   4  226.79   24.74
  -4  10  -3   58.71   10.81
   4 -10   3   76.55   17.52
  -4  10  -2  422.55   24.35
  -4  10  -2  379.57   21.13
   4 -10   2  431.18   29.07
  -4  10  -1   94.40    8.90
   4 -10   1   96.98    8.87
   4 -10   1  115.93   23.40
  -4  10  -1   83.31   10.75
  -4  10   0  730.32   11.52
   4 -10   0  735.19   11.52
   4 -10   0  808.60   20.02
  -4  10   0  670.00   39.49
  -4  10   1    6.24    2.56
   4 -10  -1   12.49    2.78
   4 -10  -1   13.10    7.45
  -4  10   1    7.67    6.11
  -4  10   2  180.90   15.14
   4 -10  -2  171.19   14.00
   4 -10  -2  187.40   16.42
  -4  10   2  176.11   15.83
  -4  10   3    8.52    4.53
   4 -10  -3    5.63    3.00
   4 -10  -3    8.66    5.43
  -4  10   3   12.82    5.06
  -4  10   4   19.06    6.97
   4 -10  -4   10.52    2.46
   4 -10  -4   16.31    5.63
  -4  10   4   21.41    7.76
  -4  10   5    7.91    3.99
   4 -10  -5    8.55    3.47
   4 -10  -5    7.16    3.25
  -4  10   5    8.31    3.32
  -4  10   6   56.44   12.42
   4 -10  -6   46.71   10.15
   4 -10  -6   71.85   13.63
  -4  10   6   59.08   11.31
  -4  10   7    1.60    4.23
   4 -10  -7    2.70    2.40
   4 -10  -7    7.20    3.05
  -4  10   8   35.73    9.61
   4 -10  -8   31.99    7.24
  -4  10   8   25.23    5.90
  -4  10   9   62.92   13.09
   4 -10  -9   50.98    8.31
  -4  10   9   49.67    4.19
  -4  10  10  154.26   12.85
   4 -10 -10  125.35   14.06
  -4  10  10  136.93    6.33
  -4  10  11    8.78    5.23
   4 -10 -11   -0.08    0.75
  -4  10  11    3.40    1.69
  -4  10  12   46.43   11.39
  -4  10  12   38.54    7.34
  -4  10  13   21.32    9.28
  -4  10  14    3.87    5.12
  -4  10  15    9.82    7.29
  -4  10  16    8.09    7.86
  -4  10  17    2.73    5.67
  -4  10  18   26.04   11.04
  -4  10  19    4.82    5.23
  -4  10  20   18.09    7.35
  -4  10  21    3.62    4.82
   4  -9  23   31.87   16.81
   4  -9  22   13.21    5.12
   4  -9  22    3.05    9.91
   4  -9  21    3.26    2.66
   4  -9  21   21.77   14.97
   4  -9  20    4.19    1.97
   4  -9  20    2.09    9.35
   4  -9  19   75.18   10.53
   4  -9  19   46.20   10.79
   4  -9  18   36.83   11.37
   4  -9  18   31.99   20.51
   4  -9  17  124.67   10.78
   4  -9  17  147.94   21.60
   4  -9  16   41.72    9.08
   4  -9  16   50.59   18.43
   4  -9  15   11.52    2.75
  -4   9 -15    9.57    2.11
   4  -9  15    3.15   12.62
   4  -9  14    3.02    2.11
  -4   9 -14    1.24    1.33
   4  -9  14    6.51   12.11
   4  -9  13   33.35    9.31
  -4   9 -13   46.08    7.14
   4  -9  13   32.18   12.23
  -4   9 -12    8.45    1.35
  -4   9 -12    9.78    1.69
   4  -9  12   11.73   12.23
  -4   9 -11   18.74    4.26
  -4   9 -11   15.56    3.62
   4  -9  11   36.71   20.84
   4  -9  10  232.51   25.58
   4  -9   9   23.79   14.26
   4  -9   8   23.42   13.91
   4  -9   7  300.05   29.40
   4  -9   6   47.34   19.09
   4  -9   5   13.77   16.69
   4  -9   4   56.27   13.59
   4  -9   3   98.37   17.93
  -4   9  -3   81.32   10.64
  -4   9  -2   21.87    6.90
  -4   9  -2   24.83    6.65
   4  -9   2   29.55   14.55
  -4   9  -2   14.45    4.67
  -4   9  -1   77.77    8.41
   4  -9   1   83.40    8.87
   4  -9   1   72.61   12.39
  -4   9  -1   71.60    9.83
  -4   9   0   11.40    3.65
   4  -9   0    4.72    1.63
   4  -9   0    6.38    6.33
  -4   9   0    7.95    4.26
  -4   9   1  115.03   12.20
   4  -9  -1  113.00   11.94
   4  -9  -1  100.19   12.80
  -4   9   1  108.16   12.67
  -4   9   2   24.36    7.25
   4  -9  -2   30.11    8.69
   4  -9  -2   17.49    7.35
  -4   9   2   37.93    7.99
  -4   9   3    8.12    4.78
   4  -9  -3    5.63    2.84
   4  -9  -3    6.00    3.05
  -4   9   3    1.97    3.34
  -4   9   4   13.68    3.89
   4  -9  -4   15.20    4.85
   4  -9  -4   20.08    6.48
  -4   9   4   20.29    6.11
  -4   9   5   20.18    7.00
   4  -9  -5   17.53    5.22
   4  -9  -5   21.83    6.49
  -4   9   5   23.37    6.72
  -4   9   6   90.34   10.79
   4  -9  -6   88.19    9.16
   4  -9  -6   98.58    9.40
  -4   9   6   92.94    9.72
  -4   9   7   17.12    6.50
   4  -9  -7   10.36    4.02
   4  -9  -7    8.87    3.34
  -4   9   7    4.68    2.86
  -4   9   8  196.37   17.27
   4  -9  -8  200.59   14.97
  -4   9   8  191.06   14.41
  -4   9   9   20.79    6.48
   4  -9  -9   25.64    7.54
  -4   9   9   26.53    5.41
  -4   9  10   10.38    7.17
   4  -9 -10    2.56    1.47
  -4   9  10    4.31    1.43
  -4   9  11   24.64    9.19
  -4   9  11   33.55    5.13
  -4   9  12   42.75   15.26
  -4   9  13    3.54    4.60
  -4   9  14   48.46   14.01
  -4   9  15   13.99    7.63
  -4   9  16    8.83    8.21
  -4   9  17   11.75    6.10
  -4   9  18   47.25   14.07
  -4   9  19   17.20    8.72
  -4   9  20    5.31    6.79
  -4   9  21   83.50   31.53
  -4   9  22    1.79    5.00
   4  -8  24    3.80    3.00
   4  -8  24   29.35   17.85
   4  -8  23    2.25    2.85
   4  -8  23   14.49   11.71
   4  -8  22   30.59    8.62
   4  -8  22   21.29   12.91
   4  -8  21    0.97    3.22
   4  -8  21    1.66   11.14
   4  -8  20   86.24   12.24
   4  -8  20   76.45   17.66
   4  -8  19   25.02    5.55
   4  -8  19   24.76   12.17
   4  -8  18    8.26    3.41
   4  -8  18   23.51   14.96
   4  -8  17   21.30    5.27
  -4   8 -17   21.08    4.13
   4  -8  17   19.56   13.43
   4  -8  16   57.00   11.98
  -4   8 -16   55.77   11.15
   4  -8  16   31.79   13.99
   4  -8  15    3.70    2.20
  -4   8 -15    9.86    2.25
   4  -8  15    4.36   11.68
  -4   8 -14   70.07   10.43
   4  -8  14   84.71   17.20
   4  -8  13    6.94    2.06
  -4   8 -13    4.21    1.21
   4  -8  13   -3.70   12.17
   4  -8  12  185.01   15.50
  -4   8 -12  164.73   12.03
   4  -8  12  167.30   20.22
   4  -8  11   53.43   14.11
  -4   8 -11   62.84   10.83
   4  -8  11   40.96   15.33
   4  -8  10  254.08   24.86
   4  -8   9    2.52   13.50
   4  -8   8  164.38   21.69
   4  -8   7  308.99   24.43
   4  -8   6    7.12   10.78
   4  -8   5  106.93   16.20
   4  -8   4   95.71   17.40
  -4   8  -4   97.08    8.94
   4  -8   3   10.51    9.44
  -4   8  -3    2.42    3.72
  -4   8  -2  201.73   12.97
   4  -8   2  207.52   19.46
  -4   8  -2  173.22    8.64
  -4   8  -1  184.09   12.36
   4  -8   1  190.47   12.83
   4  -8   1  184.57   16.59
  -4   8  -1  177.78    8.18
  -4   8   0  291.73   19.49
   4  -8   0  301.84   20.09
   4  -8   0  274.16   21.43
  -4   8   0  286.67   20.71
  -4   8   1    2.28    1.77
   4  -8  -1    5.88    2.68
   4  -8  -1    6.19    5.48
  -4   8   1    0.62    3.13
  -4   8   2   51.34    6.89
   4  -8  -2   52.31    6.63
   4  -8  -2   55.55    8.99
  -4   8   2   50.88    7.48
  -4   8   3    9.51    5.25
   4  -8  -3    4.89    3.03
   4  -8  -3    6.93    3.08
  -4   8   3    3.36    2.63
  -4   8   4   28.60    8.53
   4  -8  -4   43.65    8.11
   4  -8  -4   34.35   10.13
  -4   8   4   33.73    6.72
  -4   8   5   -1.08    3.53
   4  -8  -5    5.18    2.54
   4  -8  -5    6.72    3.17
  -4   8   5    2.09    2.22
  -4   8   6   24.58    4.95
   4  -8  -6   29.46    7.43
   4  -8  -6   31.99    6.68
  -4   8   6   27.89    6.37
  -4   8   7   63.91   13.68
   4  -8  -7   76.27   14.93
   4  -8  -7   79.57   11.21
  -4   8   7   62.85   12.12
  -4   8   8  274.53   18.69
   4  -8  -8  206.46   17.08
   4  -8  -8  255.71   14.76
  -4   8   8  255.19   14.68
  -4   8   9   -2.95    4.36
   4  -8  -9    2.29    1.41
  -4   8   9    0.66    0.59
  -4   8  10    9.11    6.69
  -4   8  11    3.47    4.83
  -4   8  12    5.22    4.52
  -4   8  13   15.92    8.02
  -4   8  14   15.87    7.69
  -4   8  15   14.16    7.18
  -4   8  16   -0.20    5.81
  -4   8  17   19.65   11.62
  -4   8  18   98.42   15.78
  -4   8  19    2.88    4.89
  -4   8  20   25.15   11.20
  -4   8  21   13.74    9.03
  -4   8  22    4.65    5.50
   4  -7  24    5.02    4.50
   4  -7  24    7.23   11.57
   4  -7  23    2.31    3.83
   4  -7  23   17.23   11.11
   4  -7  22    1.96    2.58
   4  -7  22    9.39   11.63
   4  -7  21    2.56    2.43
   4  -7  21    5.19   11.20
   4  -7  20    3.40    2.47
   4  -7  20   19.30   12.72
   4  -7  19   65.06    8.66
   4  -7  19   36.78   16.82
   4  -7  18    3.21    3.23
   4  -7  18    2.80   12.03
   4  -7  17  152.62   13.67
  -4   7 -17  134.80   11.09
   4  -7  17  137.25   19.97
   4  -7  16    2.19    2.44
  -4   7 -16    1.84    2.08
   4  -7  16    1.36   11.22
   4  -7  15  197.81    9.32
  -4   7 -15  175.84    7.25
   4  -7  15  267.49   28.60
  -4   7 -14    5.57    1.67
   4  -7  14   -0.31   11.33
   4  -7  13    7.13    3.17
  -4   7 -13    1.77    1.19
   4  -7  13   27.19   17.86
   4  -7  12   54.65    9.89
  -4   7 -12   55.00    9.72
   4  -7  12   42.22   16.20
   4  -7  11   51.09    9.83
  -4   7 -11   52.76    9.95
  -4   7 -10   11.10    1.38
   4  -7  10    6.58   12.69
   4  -7   9  669.48   31.79
   4  -7   8   31.33   12.99
   4  -7   7  498.82   24.23
   4  -7   6   60.89   13.19
   4  -7   5   19.32    6.63
  -4   7  -5   26.32    7.51
   4  -7   4   52.02   11.51
  -4   7  -4   68.00    9.50
   4  -7   3    3.65    9.09
  -4   7  -3   11.52    2.86
   4  -7   2   59.48   13.54
  -4   7  -2   44.59    8.47
  -4   7  -1   86.03    9.49
   4  -7   1   74.10   12.82
  -4   7  -1   88.37   11.30
  -4   7   0   18.01    3.63
   4  -7   0   24.27    4.74
   4  -7   0   19.11    9.49
  -4   7   0   19.14    5.20
  -4   7   1  270.95   17.51
   4  -7  -1  271.40   17.43
   4  -7  -1  270.76   20.06
  -4   7   1  264.64   18.06
  -4   7   2   52.31    6.71
   4  -7  -2   42.58    9.42
   4  -7  -2   62.44   10.11
  -4   7   2   39.03    9.39
  -4   7   3  609.81   15.53
   4  -7  -3  605.33   14.43
   4  -7  -3  611.18   15.24
  -4   7   3  587.57   14.57
  -4   7   4   55.19    8.13
   4  -7  -4   48.60    7.00
   4  -7  -4   49.35    6.99
  -4   7   4   40.47    9.22
  -4   7   5   38.66    9.68
   4  -7  -5   26.81    6.79
   4  -7  -5   41.13   10.66
  -4   7   5   41.77    9.40
  -4   7   6   57.63   11.35
   4  -7  -6   57.32   11.05
   4  -7  -6   51.73    8.93
  -4   7   6   49.63    8.56
  -4   7   7    7.32    4.29
   4  -7  -7    7.22    2.97
   4  -7  -7    3.73    1.92
  -4   7   7    3.14    1.24
  -4   7   8   21.20    7.13
   4  -7  -8   26.12    7.29
  -4   7   9   67.35   15.05
  -4   7  10   15.09    7.36
  -4   7  11   43.14   10.96
  -4   7  12    9.73    6.58
  -4   7  13   19.16    7.57
  -4   7  14    5.14    4.75
  -4   7  15    3.45    4.92
  -4   7  16   11.06    5.78
  -4   7  17   25.11   10.34
  -4   7  18    8.50    5.02
  -4   7  19   39.37   13.64
  -4   7  22   10.08    7.85
  -4   7  23   11.17    8.09
   4  -6  25    6.30    4.09
   4  -6  24    6.17    5.20
   4  -6  24   11.76   11.00
   4  -6  23    6.78    4.42
   4  -6  23   10.17   11.17
   4  -6  22   49.90    8.61
   4  -6  22   87.50   18.58
   4  -6  21   11.21    4.43
   4  -6  21   11.85   11.57
   4  -6  20    6.52    3.86
   4  -6  20    6.68   11.07
   4  -6  19    2.06    2.50
   4  -6  19    8.41   11.85
   4  -6  18   25.22    6.70
   4  -6  18   35.88   13.24
   4  -6  17   32.49   10.13
  -4   6 -17   39.28   11.38
   4  -6  17   33.56   14.89
   4  -6  16  204.94   10.38
  -4   6 -16  193.60    8.28
   4  -6  16  218.74   19.65
   4  -6  15   22.95    7.18
  -4   6 -15   34.05    5.86
   4  -6  15   31.50   13.54
   4  -6  14   -0.56    1.75
  -4   6 -14    0.97    1.42
   4  -6  14    8.76   11.24
   4  -6  13    4.16    2.42
  -4   6 -13    2.59    1.50
   4  -6  13    7.45   11.29
   4  -6  12  136.98   11.28
  -4   6 -12  136.28   10.85
   4  -6  12  133.34   18.66
   4  -6  11   82.91    8.14
  -4   6 -11   82.43    7.62
   4  -6  11   44.73   14.95
   4  -6  10   14.29    3.13
  -4   6 -10   14.92    3.05
   4  -6  10   22.34   17.69
   4  -6   9    4.52    1.46
  -4   6  -9    1.63    0.63
   4  -6   9   17.07   20.54
   4  -6   8  184.56   19.96
   4  -6   7    4.63    9.89
   4  -6   6  495.70   24.53
  -4   6  -6  454.67   19.20
   4  -6   5   47.03   12.21
  -4   6  -5   38.18    8.28
   4  -6   4   11.05   11.55
  -4   6  -4    3.65    2.81
   4  -6   3    3.33   10.86
  -4   6  -3    1.37    2.18
   4  -6   2  222.04   16.24
  -4   6  -2  215.18   12.93
   4  -6   1  597.88   15.79
   4  -6   1  589.98   21.54
  -4   6  -1  548.01   18.32
  -4   6   0  162.97    8.82
   4  -6   0  169.82    9.05
   4  -6   0  172.91   13.24
  -4   6   0  138.15   16.99
  -4   6   1   84.36   10.48
   4  -6  -1   79.97   10.28
   4  -6  -1   67.56   11.60
  -4   6   1   75.13    9.95
  -4   6   2  357.08   13.51
   4  -6  -2  345.84   12.96
   4  -6  -2  348.03   15.48
  -4   6   2  347.54   14.04
  -4   6   3  342.60   13.73
   4  -6  -3  356.94   14.01
   4  -6  -3  350.90   14.06
  -4   6   3  328.30   13.14
  -4   6   4  551.12   20.71
   4  -6  -4  512.77   18.86
   4  -6  -4  513.74   18.13
  -4   6   4  481.89   17.11
  -4   6   5   95.69    8.10
   4  -6  -5   97.85    8.58
   4  -6  -5  101.33   10.32
  -4   6   5   83.88    9.51
  -4   6   6  252.67   18.56
   4  -6  -6  268.85   19.99
   4  -6  -6  235.28   15.56
  -4   6   7   62.04    9.19
   4  -6  -7   69.47   10.37
   4  -6  -7   65.00    7.13
  -4   6   8  132.35   12.67
   4  -6  -8  127.81   11.90
  -4   6   9  130.92   12.69
  -4   6  10   80.94    8.72
  -4   6  11   10.31    5.07
  -4   6  12   86.20   11.96
  -4   6  13   29.59    8.74
  -4   6  15   47.61   10.71
  -4   6  18    1.58    4.52
  -4   6  19   23.54    7.96
  -4   6  20    8.23    5.04
  -4   6  21   15.87    9.68
  -4   6  22   17.13    9.12
  -4   6  23    2.37    5.44
  -4   6  24    9.00    6.32
   4  -5  25    9.52    4.06
   4  -5  25   28.90   16.29
   4  -5  24    5.16    3.50
   4  -5  23   16.11    6.89
   4  -5  23   32.95   15.91
   4  -5  22   14.22    7.30
   4  -5  22   25.24   11.41
   4  -5  21   13.99    5.36
   4  -5  21    0.92   10.38
   4  -5  20    6.11    4.20
   4  -5  20   23.69   11.06
   4  -5  19   12.12    3.43
   4  -5  19   35.68   16.64
   4  -5  18    9.00    3.65
   4  -5  18   32.05   15.08
   4  -5  17   86.08   16.05
  -4   5 -17   71.24   12.88
   4  -5  17   81.00   20.00
   4  -5  16   99.21    7.52
  -4   5 -16   79.05   12.14
   4  -5  16  112.12   17.34
   4  -5  15   69.17   11.28
  -4   5 -15   86.38   12.89
   4  -5  15   55.85   17.01
   4  -5  14  102.09   12.38
  -4   5 -14  116.81   12.94
   4  -5  14  102.88   18.32
   4  -5  13  401.77   29.06
  -4   5 -13  381.00   27.12
   4  -5  13  468.78   38.99
   4  -5  12   83.54    8.38
  -4   5 -12   90.70    8.42
   4  -5  12   73.79   20.38
   4  -5  11    7.19    2.54
  -4   5 -11   11.04    3.00
   4  -5  11   12.01   11.12
   4  -5  10    2.05    1.41
  -4   5 -10    3.32    1.73
   4  -5  10    0.32   10.16
   4  -5   9    4.14    1.80
  -4   5  -9    5.75    1.21
   4  -5   9    6.70   13.54
   4  -5   8   31.65    6.87
  -4   5  -8   31.89    6.88
   4  -5   8   17.89   10.59
   4  -5   7  409.33   22.54
   4  -5   6  228.13   21.17
   4  -5   5  409.64   20.45
   4  -5   4  275.93   13.66
  -4   5  -4  239.55   14.18
   4  -5   3  220.91   17.53
  -4   5  -3  215.97   13.00
   4  -5   2  116.03   17.89
  -4   5  -2   98.53   13.17
  -4   5  -1    9.26    1.43
   4  -5   1    5.23    1.21
   4  -5   1   -0.48    5.73
  -4   5  -1    9.43    3.40
  -4   5   0    2.63    2.15
   4  -5   0    3.26    2.22
   4  -5   0    9.18    7.72
  -4   5   1    4.63    2.45
   4  -5  -1    8.57    2.21
   4  -5  -1   20.69    9.39
  -4   5   2    4.85    1.78
   4  -5  -2   10.31    3.86
   4  -5  -2   15.36    6.17
  -4   5   3  108.67   13.79
   4  -5  -3   95.02   18.50
   4  -5  -3   94.15   12.67
  -4   5   4   18.80    5.14
   4  -5  -4   12.94    3.45
   4  -5  -4   18.27    5.35
  -4   5   5   47.51    8.76
   4  -5  -5   48.33    8.97
   4  -5  -5   51.48    3.56
  -4   5   6   81.72   11.12
   4  -5  -6   70.50    9.42
   4  -5  -6   88.57   11.27
   4  -5  -6   78.18    9.17
  -4   5   7   26.69    7.62
   4  -5  -7   14.19    3.12
  -4   5   8   40.21   10.59
   4  -5  -8   31.76    8.00
  -4   5   9    8.97    6.00
   4  -5  -9    2.31    3.38
  -4   5  10    9.95    7.82
  -4   5  11   57.57   13.03
  -4   5  15    2.76    5.39
  -4   5  16   11.05    4.89
  -4   5  17   10.57    4.66
  -4   5  18    6.53    4.73
  -4   5  19    6.28    5.07
  -4   5  20    6.21    5.08
  -4   5  21    4.58    5.64
  -4   5  22    7.56    7.66
  -4   5  23    4.88    5.33
  -4   5  24    8.80    5.36
   4  -4  25    3.10    3.14
   4  -4  25   -3.20    9.95
   4  -4  24    9.10    4.89
   4  -4  23    7.65    4.97
   4  -4  22   31.33   11.30
   4  -4  22   34.41   14.91
   4  -4  21    4.35    4.79
   4  -4  21    8.35    9.60
   4  -4  20    8.75    4.07
   4  -4  20   17.69   13.21
   4  -4  19   14.18    4.88
   4  -4  19   12.00    8.92
   4  -4  18    9.50    5.10
   4  -4  18   21.37   15.02
  -4   4 -17    2.54    2.08
   4  -4  17   15.75   10.81
   4  -4  16   79.05   13.77
  -4   4 -16   59.34    9.50
   4  -4  16   67.55   17.20
   4  -4  15   10.48    4.95
  -4   4 -15    6.14    2.85
   4  -4  15   12.03    9.84
   4  -4  14    3.85    3.38
  -4   4 -14    2.54    2.00
   4  -4  14    1.44    9.50
   4  -4  13    8.38    4.30
  -4   4 -13    3.88    2.75
   4  -4  13    5.16    9.77
   4  -4  12   61.52   15.02
  -4   4 -12   69.57   13.16
   4  -4  12   47.67   13.82
   4  -4  11    1.88    2.54
  -4   4 -11    2.38    1.46
   4  -4  11   -3.96    9.36
   4  -4  10    6.30    2.42
  -4   4 -10    8.17    1.86
   4  -4  10   14.02   12.31
   4  -4   9   32.34    7.45
  -4   4  -9   65.14    7.47
   4  -4   9   41.05   12.55
   4  -4   8  324.93   11.62
  -4   4  -8  358.80   12.56
   4  -4   8  346.61   18.72
   4  -4   7  355.57   12.44
  -4   4  -7  401.72   13.50
   4  -4   7  367.38   38.35
   4  -4   6  956.65   24.33
   4  -4   6 1052.19   33.33
   4  -4   5   -1.88    9.26
   4  -4   4  456.41   18.50
   4  -4   3   99.89    9.27
   4  -4   2  113.72    2.86
   4  -4   2  106.18    8.94
  -4   4  -1  325.13   13.42
   4  -4   1  314.35   12.41
   4  -4   1  301.67   15.21
  -4   4   0   15.51    3.51
   4  -4   0    2.42    2.66
   4  -4   0   21.09    6.51
  -4   4   1  416.68   16.82
   4  -4  -1  387.86   15.60
   4  -4  -1  437.45   19.51
  -4   4   2  652.94   24.24
   4  -4  -2  598.58   22.24
   4  -4  -2  653.36   24.86
  -4   4   3  590.71   18.38
   4  -4  -3  584.64   17.81
  -4   4   4  536.91   17.39
   4  -4  -4  526.69   17.55
   4  -4  -4  585.49   18.17
   4  -4  -4  546.83   16.39
  -4   4   5    1.03    2.68
   4  -4  -5    1.68    4.57
   4  -4  -5    3.69    1.33
   4  -4  -5    5.20    1.97
  -4   4   6  306.25   13.99
   4  -4  -6  297.89   13.41
  -4   4   7    4.61    4.91
   4  -4  -7   11.11    7.33
  -4   4   8    9.43    5.34
   4  -4  -8   12.64    5.45
   4  -4  -9   11.83    5.70
  -4   4  13   15.00    7.54
  -4   4  14  109.74   18.85
  -4   4  15    6.70    8.27
  -4   4  16   34.98    9.20
  -4   4  17    4.72    4.14
  -4   4  18   11.08    5.27
  -4   4  19    1.42    4.58
  -4   4  20    8.42    5.55
  -4   4  21   16.08    6.32
  -4   4  22   51.39   11.47
  -4   4  23    2.25    5.05
  -4   4  24   26.89   12.75
   4  -3  25    3.80    3.86
   4  -3  25    9.77   12.16
   4  -3  24    5.77    5.62
   4  -3  24    3.51    8.13
   4  -3  23   82.66   12.27
   4  -3  22   19.71    7.93
   4  -3  22   17.00    7.03
   4  -3  21   21.92    6.57
   4  -3  21   54.29   16.72
   4  -3  20    5.44    3.67
   4  -3  20   12.77    8.61
   4  -3  19   38.43    9.45
   4  -3  18   12.02    4.16
   4  -3  18   10.84    8.46
   4  -3  17    2.00    4.06
   4  -3  17   12.89    9.08
   4  -3  16    1.98    4.09
  -4   3 -16    4.08    2.25
   4  -3  16    7.88    8.18
   4  -3  15   15.13    5.38
  -4   3 -15    9.80    3.08
   4  -3  15    4.95    8.90
   4  -3  14   10.70    6.13
  -4   3 -14    3.05    2.91
   4  -3  14    6.56    8.96
   4  -3  13  350.36   21.90
  -4   3 -13  342.82   20.36
   4  -3  13  308.72   23.20
   4  -3  12    0.28    3.63
  -4   3 -12    7.65    3.28
   4  -3  12   15.22    9.82
   4  -3  11  296.71   12.29
  -4   3 -11  310.97   10.93
   4  -3  11  325.01   18.94
   4  -3  10   66.53    9.98
  -4   3 -10   48.55    6.12
   4  -3  10   49.68   12.21
   4  -3   9  244.83   16.54
  -4   3  -9  255.56   16.62
   4  -3   9  238.47   20.70
   4  -3   8   20.25    5.25
  -4   3  -8   24.53    4.81
   4  -3   8   25.44   10.87
   4  -3   7  217.49   11.54
  -4   3  -7  229.11   11.93
   4  -3   7  247.57   17.17
   4  -3   6   21.26    3.79
  -4   3  -6   23.22    3.85
   4  -3   6   20.95    7.62
   4  -3   5  217.72   11.01
   4  -3   5  241.66   12.03
   4  -3   5  213.11   13.77
   4  -3   4  901.06   31.05
   4  -3   4  931.82   31.78
   4  -3   4  854.10   35.10
   4  -3   3  953.55   32.77
   4  -3   3  978.91   33.47
   4  -3   3 1006.29   37.94
   4  -3   2    5.64    2.14
   4  -3   2    2.57    2.02
   4  -3   2   -1.09    5.54
  -4   3  -1  321.78   14.60
   4  -3   1  312.37   12.56
   4  -3   1  316.40   14.99
  -4   3   0   29.95    7.58
   4  -3   0   23.89    6.28
   4  -3   0   59.81   20.92
   4  -3   0   23.12    5.37
  -4   3   1  325.65   13.86
   4  -3  -1  325.63   13.70
   4  -3  -1  342.51   15.02
  -4   3   2   36.90    4.90
   4  -3  -2   38.17    4.44
   4  -3  -2   69.86   12.31
   4  -3  -2   47.94    6.14
  -4   3   3  144.99    6.59
   4  -3  -3  147.75    6.48
   4  -3  -3  180.72    6.58
   4  -3  -3  145.07    5.96
  -4   3   4   57.70    7.00
   4  -3  -4   49.43    6.01
   4  -3  -4   48.83    8.16
   4  -3  -4   54.36    6.02
  -4   3   5  654.92   20.74
   4  -3  -5  680.87   21.27
   4  -3  -5  632.48   17.12
  -4   3   6  474.43   17.13
   4  -3  -6  452.58   16.38
   4  -3  -7  486.36   19.34
   4  -3  -8    5.39    3.91
  -4   3   9   33.94    8.95
   4  -3  -9   15.84    4.08
  -4   3  10   22.81    8.27
  -4   3  11  137.98   13.92
  -4   3  12    2.60    4.59
  -4   3  13   12.02    6.72
  -4   3  14   19.09    7.63
  -4   3  15  133.46   14.30
  -4   3  16    0.97    4.48
  -4   3  17   56.90   12.73
  -4   3  18   -4.08    4.20
  -4   3  19    6.97    6.43
  -4   3  20    7.03    5.40
  -4   3  21    5.69    5.31
  -4   3  22    9.94    5.40
  -4   3  23   12.83    5.54
  -4   3  24    3.10    4.79
  -4   3  25   10.88    5.55
   4  -2  25   21.62    6.98
   4  -2  25   21.67   11.52
   4  -2  24    3.55    4.27
   4  -2  24   10.91    7.93
   4  -2  23    9.84    4.63
   4  -2  23   25.25   10.94
   4  -2  22   14.30    7.41
   4  -2  21   16.72    8.39
   4  -2  21   26.86   11.14
   4  -2  20   23.54    8.66
   4  -2  20   28.53   12.42
   4  -2  19   10.33    6.99
   4  -2  19    3.77    7.80
   4  -2  18  102.58   13.72
   4  -2  18   85.13   18.53
   4  -2  17   29.54    7.56
   4  -2  17   36.47   13.23
   4  -2  16    9.87    6.90
   4  -2  16   13.49    7.26
   4  -2  15   42.39   11.30
  -4   2 -15   39.78    8.84
   4  -2  15   48.11   13.45
   4  -2  14   18.38    8.65
  -4   2 -14   21.98    6.64
   4  -2  14   18.08   11.69
   4  -2  13  277.63   19.55
  -4   2 -13  274.12   16.93
   4  -2  13  309.46   27.57
   4  -2  12   58.74   10.08
  -4   2 -12   45.58    8.68
   4  -2  12   47.39   14.50
   4  -2  11  197.05   17.27
  -4   2 -11  175.63    6.78
   4  -2  11  198.31   18.41
   4  -2  10   77.11   11.19
  -4   2 -10   89.81   10.61
   4  -2  10   76.29   12.89
   4  -2   9   50.95    5.94
  -4   2  -9   51.22    3.56
   4  -2   9   39.21   10.04
   4  -2   8   24.00    5.23
  -4   2  -8   29.83    5.51
   4  -2   8   50.57   13.04
   4  -2   8   35.91    9.69
   4  -2   7   84.62   10.80
  -4   2  -7   89.32   11.05
   4  -2   7  190.10   30.60
   4  -2   7   92.63   14.63
   4  -2   6  140.40   16.72
  -4   2  -6  151.20   18.08
   4  -2   6  167.06   13.12
   4  -2   5   40.20    4.10
   4  -2   5  102.70   31.87
   4  -2   5   42.47    8.09
   4  -2   4    8.76    2.88
   4  -2   4   10.90    2.79
   4  -2   4   26.58   11.18
   4  -2   4    9.81    7.59
   4  -2   3   82.50    7.18
   4  -2   3   74.36    6.75
   4  -2   3  119.35   40.33
   4  -2   3   73.51    9.23
   4  -2   2  817.48   28.90
   4  -2   2  805.79   28.55
   4  -2   2  958.69   36.13
   4  -2   2  864.45   32.65
   4  -2   1    5.18    2.51
   4  -2   1    6.19    3.10
   4  -2   1   -0.17    2.21
   4  -2   1    5.70    5.33
  -4   2   0   13.80    4.74
   4  -2   0   11.59    2.72
   4  -2   0   24.05    8.63
   4  -2   0    6.38    2.72
  -4   2   1    5.05    3.37
   4  -2  -1    8.38    3.38
   4  -2  -1    2.60    1.72
   4  -2  -1    3.65    2.60
  -4   2   2  404.17   17.31
   4  -2  -2  439.27   17.96
   4  -2  -2  406.25   16.98
   4  -2  -2  407.80   16.83
  -4   2   3   48.56    6.39
   4  -2  -3   40.64    4.86
   4  -2  -3   39.54   10.69
   4  -2  -3   37.45    4.55
  -4   2   4    9.94    5.98
   4  -2  -4    4.82    3.38
   4  -2  -4    2.47    1.40
   4  -2  -4    6.61    2.90
  -4   2   5  233.40   12.66
   4  -2  -5  216.31    8.13
   4  -2  -5  227.49    9.42
   4  -2  -5  202.96    4.59
  -4   2   6  135.94   17.64
   4  -2  -6  114.77   15.12
   4  -2  -6  114.87   13.35
   4  -2  -6  108.26   12.76
  -4   2   7   78.38   11.39
   4  -2  -7   82.16   11.92
  -4   2   8    9.33    7.60
   4  -2  -8   11.31    5.62
  -4   2   9   37.09    9.76
  -4   2  10    5.36    4.70
  -4   2  11  336.29   16.07
  -4   2  12  160.07   15.32
  -4   2  13   66.35   14.87
  -4   2  14  271.92   23.02
  -4   2  15   78.97   14.73
  -4   2  16   36.16    9.66
  -4   2  17    4.48    4.54
  -4   2  18   12.49    8.86
  -4   2  19   57.15   13.78
  -4   2  20   15.53    6.68
  -4   2  21    7.30    5.33
  -4   2  22    7.57    6.88
  -4   2  23   17.86    9.09
  -4   2  24    2.99    4.84
  -4   2  25   36.36   13.23
   4  -1  25    6.18    7.55
   4  -1  24    5.76    4.56
   4  -1  24    7.26    7.56
   4  -1  23   49.47   10.80
   4  -1  23   35.31   11.59
   4  -1  22    3.87    4.46
   4  -1  22    8.77    7.43
   4  -1  21   52.97    9.60
   4  -1  21   38.71   14.63
   4  -1  20   28.37   11.21
   4  -1  20   20.18   10.22
   4  -1  19   72.84   11.30
   4  -1  19   65.69   16.65
   4  -1  18   55.32   12.65
   4  -1  18   66.60   15.19
   4  -1  17   21.95   11.89
   4  -1  17    7.07    6.19
   4  -1  16   11.96    8.39
   4  -1  16    9.37    6.38
   4  -1  15   12.10    7.89
  -4   1 -15   14.26    2.83
   4  -1  15   20.28   11.30
   4  -1  14    9.85    5.65
  -4   1 -14   13.08    3.98
   4  -1  14   18.26   11.16
   4  -1  13  179.60   17.09
  -4   1 -13  180.77   15.00
   4  -1  13  207.69   21.05
   4  -1  12   46.42   10.85
  -4   1 -12   50.81    9.46
   4  -1  12   44.89   10.99
   4  -1  11  634.59   17.07
  -4   1 -11  654.44   16.51
   4  -1  11  661.02   23.82
   4  -1  10  307.80   22.08
  -4   1 -10  316.02    8.91
   4  -1  10  332.63   16.55
   4  -1   9  733.10   26.01
  -4   1  -9  702.88   24.61
   4  -1   9  755.24   30.57
   4  -1   8  247.09   14.02
  -4   1  -8  261.87   14.27
   4  -1   8  290.09   13.27
   4  -1   8  283.75   14.20
   4  -1   7   41.31    7.03
  -4   1  -7   32.28    5.35
   4  -1   7   28.85   10.73
   4  -1   7   34.41    7.96
   4  -1   6  315.89   13.48
  -4   1  -6  336.27   14.45
   4  -1   6  403.83   20.18
   4  -1   6  364.59   19.49
   4  -1   5   78.01    7.21
  -4   1  -5   77.59    7.46
   4  -1   5   65.13   18.64
   4  -1   4   90.05   10.64
   4  -1   4   76.66    6.96
   4  -1   4   82.46   20.13
   4  -1   3  857.38   30.76
   4  -1   3  872.23   31.18
   4  -1   3 1019.18   38.89
   4  -1   2  156.11    7.84
   4  -1   2  128.28   14.76
   4  -1   2  151.72   21.80
   4  -1   1 1307.56   17.25
   4  -1   1 1287.94   17.46
   4  -1   1 1305.20   19.83
  -4   1   0  569.29   21.39
   4  -1   0  566.49   19.96
   4  -1   0  560.76   20.61
  -4   1   1  876.10   14.64
   4  -1  -1  896.51   14.24
   4  -1  -1  925.62   15.26
  -4   1   2   -0.99    2.83
   4  -1  -2    4.52    3.82
   4  -1  -2    3.74    2.62
  -4   1   3  209.77    8.02
   4  -1  -3  211.16    7.20
   4  -1  -3  218.18    6.33
  -4   1   4  490.26   20.36
   4  -1  -4  495.75   20.15
   4  -1  -4  464.84    7.77
  -4   1   5  473.39   20.24
   4  -1  -5  477.37   19.58
   4  -1  -5  475.00   17.20
  -4   1   6  235.59   14.90
   4  -1  -6  252.65   15.40
   4  -1  -6  226.44   11.29
  -4   1   8   83.27   11.28
   4  -1  -8  109.82   10.81
  -4   1   9   15.79    7.17
   4  -1  -9    2.74    3.48
  -4   1  10    5.85    4.31
   4  -1 -10    4.46    3.99
  -4   1  11    7.49    6.16
  -4   1  12    5.97    6.28
  -4   1  13    8.53    7.04
  -4   1  14   17.96   10.61
  -4   1  15  164.29   16.58
  -4   1  16  110.00   18.77
  -4   1  17   33.81    8.97
  -4   1  18    8.13    7.08
  -4   1  18    7.32    1.97
  -4   1  19   25.28    8.06
  -4   1  19   20.56    9.29
  -4   1  19   29.06    7.03
  -4   1  20   15.24    9.07
  -4   1  20    2.95    1.14
  -4   1  21   12.48    8.82
  -4   1  21    1.67    0.98
  -4   1  22   33.13   12.73
  -4   1  23    7.08    5.04
  -4   1  24    1.85    4.84
  -4   1  25    6.62    5.19
   4   0  25   10.85    5.47
   4   0  25   19.85   11.07
   4   0  24   15.37    9.97
   4   0  24    7.63    6.74
   4   0  23    3.36    7.34
   4   0  23    5.20    6.82
   4   0  22   12.54    7.72
   4   0  22   -0.40    6.17
   4   0  21   16.59   11.29
   4   0  20   22.53    8.07
   4   0  20   19.95    7.03
   4   0  19   12.81   11.48
   4   0  19    6.44    5.86
   4   0  18  182.69   19.05
   4   0  18  152.76   16.43
   4   0  17   10.86    6.25
   4   0  17    5.81    7.80
   4   0  16   67.22   14.29
   4   0  16   47.66   13.51
   4   0  15   36.37   14.03
   4   0  15    5.84    6.60
   4   0  14   15.66    5.73
  -4   0 -14   18.18    5.45
   4   0  14   13.60    6.96
   4   0  13   13.91    8.34
  -4   0 -13    3.94    2.96
   4   0  13    1.65    5.99
   4   0  12    5.50    5.27
  -4   0 -12   11.50    3.87
   4   0  12    1.65    6.11
   4   0  11   16.89    5.35
  -4   0 -11   24.04    6.18
   4   0  11   22.40    9.19
   4   0  10  405.99   13.81
  -4   0 -10  412.71   12.53
   4   0  10  408.61   16.91
   4   0   9  132.51   11.66
  -4   0  -9  154.08   11.54
   4   0   8  234.53   13.84
  -4   0  -8  203.88   12.29
   4   0   8  189.44   28.34
   4   0   7   45.47    8.01
  -4   0  -7   35.64    6.42
   4   0   7   28.06   12.41
   4   0   6  455.14    9.83
  -4   0  -6  467.03   10.23
   4   0   6  514.74   26.99
   4   0   5  474.60   18.58
  -4   0  -5  501.26   19.91
   4   0   5  505.10   23.33
   4   0   4  211.84    6.78
  -4   0  -4  221.77   10.83
   4   0   4  225.01   12.83
   4   0   3  345.02   15.13
   4   0   3  316.19   14.06
   4   0   3  300.81   15.82
   4   0   2  358.06    8.68
   4   0   2  347.46   14.48
   4   0   2  343.14   17.61
   4   0   1  117.39   13.76
   4   0   1  119.96   14.69
  -4   0  -1  178.09   17.95
   4   0   1  126.51   23.74
   4   0   0 1578.96   20.87
  -4   0   1  118.72   19.46
   4   0  -1  109.97   13.15
  -4   0   1  137.80   16.53
   4   0  -1  111.70   15.77
  -4   0   2  337.89   15.06
   4   0  -2  381.82   15.21
  -4   0   2  366.82   17.73
   4   0  -2  368.60   14.16
  -4   0   3  327.43   15.70
   4   0  -3  333.26   15.52
  -4   0   3  370.36   16.39
   4   0  -3  333.36   14.27
  -4   0   4  227.01   12.21
   4   0  -4  254.31   12.87
  -4   0   4  250.25   11.77
   4   0  -4  221.54   10.01
  -4   0   5  477.21   20.46
   4   0  -5  458.51   11.42
  -4   0   5  421.21   17.16
   4   0  -5  479.79   17.76
  -4   0   6  430.13   19.79
   4   0  -6  425.79   19.07
   4   0  -6  448.53   17.45
  -4   0   7   40.55    8.18
   4   0  -7   38.42    7.55
  -4   0   7   43.52   10.91
   4   0  -7   41.07    6.23
  -4   0   8  231.29   16.43
   4   0  -8  219.71   13.95
  -4   0   8  213.54   11.81
   4   0  -8  225.40   11.99
  -4   0   9  141.44   13.61
   4   0  -9  126.05   11.69
  -4   0   9  139.06   10.00
   4   0  -9  135.64    9.66
  -4   0  10  383.21   15.08
  -4   0  10  422.55    9.92
   4   0 -10  426.52   10.30
  -4   0  11   24.00    7.24
  -4   0  11   30.71    6.79
   4   0 -11   35.25    7.83
  -4   0  12   10.88    5.47
  -4   0  12    8.03    1.55
   4   0 -12    9.38    2.30
  -4   0  13    8.94    7.34
  -4   0  13    3.65    1.51
  -4   0  14   40.41   11.72
  -4   0  14   19.96    4.96
  -4   0  15   11.87    8.45
  -4   0  15    5.50    1.45
  -4   0  16   54.46   13.52
  -4   0  16   40.70    9.87
  -4   0  17   13.14    8.08
  -4   0  17    4.26    1.46
  -4   0  19   12.56    6.85
  -4   0  19    1.36    1.28
  -4   0  19    6.58    1.77
  -4   0  20   22.46    7.56
  -4   0  20   31.20   10.29
  -4   0  21    0.51    6.53
  -4   0  21    0.76    1.05
  -4   0  22    1.47    4.52
  -4   0  22    1.12    1.10
  -4   0  23   12.12    7.40
  -4   0  24    7.49    6.80
  -4   0  25    2.26    4.93
   4   1  25   10.49    5.65
   4   1  25   19.47   12.52
   4   1  24   19.55    9.49
   4   1  24   13.10    7.95
   4   1  23    7.01    5.75
   4   1  23    8.10    8.02
   4   1  22   20.17   10.32
   4   1  22   26.15   11.24
   4   1  21    6.07    6.15
   4   1  21    6.42    7.63
   4   1  20    0.23    5.96
   4   1  19   32.29   11.93
   4   1  19   31.36    9.86
   4   1  18    7.30    7.33
   4   1  18   14.90    9.13
   4   1  17   34.02    9.11
   4   1  17   23.53    9.71
   4   1  16   90.84   18.26
   4   1  16  117.54   19.84
   4   1  15  164.00   16.57
   4   1  14   19.94   12.42
   4   1  14   15.98    9.52
   4   1  13    6.86    8.68
  -4  -1 -13    7.83    3.40
   4   1  13   13.50    6.45
   4   1  12    2.30    6.28
  -4  -1 -12    4.23    3.91
   4   1  11   11.49    8.41
  -4  -1 -11    6.52    2.60
   4   1  10    8.45    6.15
  -4  -1 -10    5.35    2.36
   4   1   9    4.34    5.62
  -4  -1  -9    0.77    2.13
   4   1   8   96.22   12.15
  -4  -1  -8  100.01   12.26
   4   1   8   72.47   12.74
   4   1   7  248.13   14.41
  -4  -1  -7  234.32   13.43
   4   1   7  253.76   15.79
   4   1   6  254.95   14.63
  -4  -1  -6  221.92   13.01
   4   1   6  218.09   22.04
   4   1   5  474.84   19.02
  -4  -1  -5  485.54   19.78
   4   1   5  463.52   15.80
   4   1   4  503.98   19.89
  -4  -1  -4  526.23   21.07
   4   1   4  496.55   47.72
   4   1   3  235.53   13.66
   4   1   3  242.00   12.00
   4   1   3  220.42   12.20
   4   1   2    5.31    3.70
   4   1   2    2.97    3.35
  -4  -1  -2    8.35    4.87
   4   1   2    4.57    3.16
   4   1   1  896.49   15.58
   4   1   1  924.26   17.20
   4   1   0  557.54   20.70
   4   1   0  542.06   20.38
  -4  -1   0  649.79   16.09
   4   1   0  548.77   20.33
  -4  -1   1 1337.39   20.69
   4   1  -1 1320.82   19.95
   4   1  -1 1303.67   19.36
  -4  -1   2  156.80   10.11
   4   1  -2  164.87    9.88
  -4  -1   2  152.50    8.42
   4   1  -2  135.25   15.51
  -4  -1   3  808.76   31.00
   4   1  -3  853.44   32.05
  -4  -1   3  870.04   31.99
   4   1  -3  833.72   30.24
  -4  -1   4   77.64    9.59
   4   1  -4   99.77    7.65
  -4  -1   4   86.81   17.16
   4   1  -4   87.15    7.81
  -4  -1   5   76.55    9.32
   4   1  -5   69.87    8.40
  -4  -1   5   73.49    7.24
   4   1  -5   74.59    6.73
  -4  -1   6  347.70   18.05
   4   1  -6  346.33   17.40
  -4  -1   6  322.98   14.04
   4   1  -6  347.73   14.23
  -4  -1   7   39.37    9.48
   4   1  -7   40.19    7.94
  -4  -1   7   36.26    5.80
   4   1  -7   37.85    5.88
  -4  -1   8  273.04   11.63
   4   1  -8  262.14   15.69
  -4  -1   8  293.08    7.21
   4   1  -8  263.55   13.84
  -4  -1   9  708.30   28.11
  -4  -1   9  691.07   23.36
  -4  -1  10  303.23   23.33
  -4  -1  10  314.18   21.01
   4   1 -10  312.31   21.39
  -4  -1  11  702.93   22.32
  -4  -1  11  697.66   15.36
   4   1 -11  734.98   16.95
  -4  -1  12   51.70   11.31
  -4  -1  12   59.98    6.72
   4   1 -12   57.81   10.46
  -4  -1  13  203.46   19.13
  -4  -1  13  182.82   14.18
   4   1 -13  173.54   13.93
  -4  -1  14   17.93   10.03
  -4  -1  14    9.09    1.95
   4   1 -14    8.52    2.14
  -4  -1  15   24.12   10.28
  -4  -1  15   14.95    4.37
   4   1 -15    8.50    2.15
  -4  -1  16   10.63    5.38
  -4  -1  16    4.70    1.77
  -4  -1  17    5.09    5.16
  -4  -1  17    6.94    1.78
  -4  -1  18  103.29   15.06
  -4  -1  18   63.85   12.55
  -4  -1  19   78.83   13.16
  -4  -1  19   75.21    4.58
  -4  -1  20   17.60    8.74
  -4  -1  20   20.85    4.11
  -4  -1  21   46.59    9.40
  -4  -1  21   42.53   13.59
  -4  -1  22   -2.40    4.51
  -4  -1  22    1.98    1.45
  -4  -1  23   70.54   11.54
  -4  -1  24   15.10   10.30
  -4  -1  25   -0.25    4.91
  -4  -1  26   17.30   10.50
   4   2  25    9.40    5.63
   4   2  25   15.03    9.90
   4   2  24    5.81    5.59
   4   2  24    3.74    6.31
   4   2  23   13.18    6.31
   4   2  23   14.53    9.49
   4   2  22    3.03    6.35
   4   2  22    3.85    5.13
   4   2  21    7.97    6.28
   4   2  21    1.22    7.32
   4   2  20   22.65   10.53
   4   2  19   73.14   13.75
   4   2  19   86.99   13.31
   4   2  18   12.91   12.03
   4   2  18   10.60    5.74
   4   2  17   12.13    7.74
   4   2  17    5.17    5.13
   4   2  16   43.98   10.88
   4   2  16   62.78   14.01
   4   2  15   75.58   14.06
   4   2  15   88.09   17.03
   4   2  14  297.56   26.41
   4   2  13   66.40   14.84
   4   2  12  188.65   18.30
  -4  -2 -12  168.19   14.66
   4   2  11  313.84   15.38
  -4  -2 -11  282.78   12.24
   4   2  10    8.34    6.60
  -4  -2 -10    6.01    3.41
   4   2   9   28.30    7.79
  -4  -2  -9   20.70    4.72
   4   2   8    5.71    4.01
  -4  -2  -8    3.06    2.21
   4   2   8    3.42    2.31
   4   2   7   85.36   12.28
  -4  -2  -7   79.54   10.84
   4   2   7   56.94   13.49
   4   2   6   99.35   13.57
  -4  -2  -6  113.97   14.84
  -4  -2  -6  298.39   54.92
   4   2   6   91.05   21.59
   4   2   5  222.73   11.85
  -4  -2  -5  199.72    7.94
  -4  -2  -5  570.55   99.15
   4   2   5  228.66   13.15
   4   2   4    4.55    3.55
  -4  -2  -4    4.84    3.66
  -4  -2  -4    3.09    3.43
   4   2   4    2.20    2.28
   4   2   3   43.28    7.15
  -4  -2  -3   59.35   17.95
   4   2   3   38.33   12.69
   4   2   2  452.90   11.28
   4   2   2  414.07   18.47
  -4  -2  -2  433.31   20.76
   4   2   2  419.84   19.22
   4   2   1    2.72    2.97
   4   2   1    3.43    3.57
  -4  -2  -1    7.00    3.30
   4   2   1    2.96    3.21
   4   2   0   10.02    3.03
   4   2   0   12.18    3.61
  -4  -2   0   16.80    6.96
   4   2   0   14.02    3.88
   4   2  -1    4.90    3.08
  -4  -2   1    1.90    2.35
   4   2  -1    6.30    3.35
  -4  -2   2  886.65   35.92
   4   2  -2  855.35   32.24
  -4  -2   2  884.10   33.21
   4   2  -2  847.35   31.22
  -4  -2   3   89.55   17.40
   4   2  -3   97.20    7.26
  -4  -2   3   76.55   14.93
   4   2  -3   70.03    6.92
  -4  -2   4    2.38    4.61
   4   2  -4   10.92    4.47
  -4  -2   4   10.93    4.74
   4   2  -4   11.03    3.06
  -4  -2   5   37.30    7.52
   4   2  -5   51.10    7.30
  -4  -2   5   53.08    6.15
   4   2  -5   49.82   13.38
  -4  -2   6  151.10   20.58
   4   2  -6  149.35   19.01
  -4  -2   6  165.87   10.20
   4   2  -6  154.55   18.52
  -4  -2   7   91.24   13.06
   4   2  -7   93.25   12.75
  -4  -2   7   91.93   11.79
   4   2  -7   93.93   11.81
  -4  -2   8   30.99    8.30
   4   2  -8   19.02    4.93
  -4  -2   8   33.00    6.20
   4   2  -8   28.29    5.89
  -4  -2   9   72.45   12.21
   4   2  -9   27.16    6.70
  -4  -2   9   54.00    7.10
   4   2  -9   54.12    7.73
  -4  -2  10   83.71   12.41
  -4  -2  10   98.02    7.27
   4   2 -10   95.00    8.56
  -4  -2  11  169.79   15.20
  -4  -2  11  177.51    6.17
   4   2 -11  186.54   14.52
  -4  -2  12   65.04   10.78
  -4  -2  12   57.24   10.02
   4   2 -12   51.11   10.55
  -4  -2  13  314.35   24.68
  -4  -2  13  251.56   14.99
   4   2 -13  259.56   16.89
  -4  -2  14   27.42    9.88
  -4  -2  14   23.11    8.19
   4   2 -14   15.21    4.47
  -4  -2  15   46.68   12.40
  -4  -2  15   32.25    6.96
   4   2 -15   42.64    9.44
  -4  -2  16    9.44    7.06
  -4  -2  16   18.77    5.98
   4   2 -16    8.73    2.17
  -4  -2  17   27.78    9.15
  -4  -2  17   37.17    6.36
  -4  -2  18   93.33   20.27
  -4  -2  18   73.75   13.72
   4   2 -18   59.25   11.01
  -4  -2  19    7.73    6.15
  -4  -2  19    4.23    2.14
  -4  -2  20   17.86    8.65
  -4  -2  20   24.15    8.10
  -4  -2  21   31.89   12.08
  -4  -2  21   14.90    7.09
  -4  -2  22   13.49    5.30
  -4  -2  22   14.61    3.47
  -4  -2  23   17.26    8.68
  -4  -2  23   20.43    7.83
  -4  -2  24   12.10    8.04
  -4  -2  25   15.41    7.75
  -4  -2  26    4.66    6.41
   4   3  25    9.84    9.09
   4   3  25    4.90    8.19
   4   3  24    1.53    6.54
   4   3  24    8.34    6.21
   4   3  23    0.59    6.47
   4   3  23   14.28   10.66
   4   3  22    0.19    6.51
   4   3  22    2.76    5.77
   4   3  21   10.69    7.17
   4   3  20    2.61    7.20
   4   3  20   10.62    7.23
   4   3  19   18.59   10.40
   4   3  18    0.60    6.91
   4   3  18    3.62    5.39
   4   3  17   51.19   12.43
   4   3  17   51.14   12.50
   4   3  16   18.29   12.25
   4   3  15  152.75   18.90
   4   3  14   22.10   11.12
   4   3  13   12.10    8.24
   4   3  12    8.42    7.38
   4   3  11  134.89   14.22
   4   3  10   16.31    5.34
  -4  -3 -10   15.63    3.53
   4   3   9   31.65    8.72
  -4  -3  -9   41.82   10.49
   4   3   8    6.79    6.13
  -4  -3  -8    9.78    3.78
  -4  -3  -8   11.49   10.63
   4   3   7  515.79   20.57
  -4  -3  -7  494.81   19.67
   4   3   7  423.54   47.67
   4   3   6  495.20   18.23
  -4  -3  -6  454.83   16.67
  -4  -3  -6  552.42   22.22
   4   3   6  464.19   17.88
   4   3   5  654.15   21.69
  -4  -3  -5  657.74   21.60
  -4  -3  -5  736.93   27.39
   4   3   5  657.26   22.77
   4   3   4   58.21    8.29
  -4  -3  -4   53.76    6.68
  -4  -3  -4   82.89   16.34
   4   3   4   41.89    6.47
   4   3   3  153.32    8.62
  -4  -3  -3  140.48    7.45
  -4  -3  -3  152.07   29.04
   4   3   3  165.18    8.32
   4   3   2   49.54    9.58
   4   3   2   41.12    6.38
  -4  -3  -2   44.47   13.42
   4   3   2   49.13    7.28
   4   3   1  334.05   18.88
   4   3   1  341.43   16.89
  -4  -3  -1  366.56   18.34
   4   3   1  332.61   16.02
   4   3   0   30.93    6.80
   4   3   0   52.74    9.11
  -4  -3   0   40.62   10.77
   4   3   0   29.85    7.32
   4   3  -1  312.81   15.29
   4   3  -1  330.85   16.44
  -4  -3   1  306.65   18.53
   4   3  -1  299.54   14.12
  -4  -3   2    3.19    5.72
   4   3  -2    8.02    4.65
  -4  -3   2    5.72    3.74
   4   3  -2    1.92    3.05
  -4  -3   3  966.47   38.26
   4   3  -3  957.71   36.34
  -4  -3   3  997.18   36.98
   4   3  -3  967.07   35.09
  -4  -3   4  945.27   41.18
   4   3  -4  928.98   35.38
  -4  -3   4  955.56   36.09
   4   3  -4  983.00   35.65
  -4  -3   5  225.55   16.34
   4   3  -5  214.38   13.64
  -4  -3   5  250.90   14.52
   4   3  -5  265.93   14.46
  -4  -3   6   20.72    6.04
   4   3  -6   22.01    4.86
  -4  -3   6   12.67    3.65
   4   3  -6   13.45    2.39
  -4  -3   7  257.95   17.32
   4   3  -7  229.54   14.24
  -4  -3   7  232.25   13.34
   4   3  -7  242.15   13.41
  -4  -3   8   42.24    9.76
   4   3  -8   10.42    3.49
  -4  -3   8   34.99    7.12
   4   3  -8   21.11    5.10
  -4  -3   9  263.03   21.32
  -4  -3   9  255.70   17.33
   4   3  -9  259.60   18.08
  -4  -3  10   52.37   11.07
  -4  -3  10   51.77    6.80
   4   3 -10   49.27    7.77
  -4  -3  11  309.75   16.09
  -4  -3  11  302.51   11.35
   4   3 -11  312.73   13.51
  -4  -3  12    4.67    5.79
  -4  -3  12    1.12    1.72
   4   3 -12    3.32    4.27
  -4  -3  13  342.55   23.94
  -4  -3  13  339.73   20.14
   4   3 -13  320.37   20.47
  -4  -3  14    0.66    6.01
  -4  -3  14    1.63    1.71
   4   3 -14    5.47    4.85
  -4  -3  15   12.71    7.82
  -4  -3  15   15.79    4.45
   4   3 -15   13.27    3.60
  -4  -3  16    8.80    5.18
  -4  -3  16    2.75    2.38
   4   3 -16    5.93    3.07
  -4  -3  17   11.22    7.89
  -4  -3  17    0.84    1.70
   4   3 -17    0.99    1.90
  -4  -3  18    9.80    5.80
  -4  -3  18   12.13    3.25
   4   3 -18    4.30    2.19
  -4  -3  19   42.64   12.29
  -4  -3  19   39.39    7.44
  -4  -3  20    4.33    7.40
  -4  -3  20    3.50    2.67
  -4  -3  21   44.34   15.08
  -4  -3  21   41.70   15.07
  -4  -3  22   18.58    7.94
  -4  -3  22   11.95    3.82
  -4  -3  23  114.15   15.86
  -4  -3  23   60.46   15.09
  -4  -3  24    5.49    5.76
  -4  -3  24    4.01    2.33
  -4  -3  25    8.18    9.02
   4   4  24   19.52    7.47
   4   4  24   54.42   22.42
   4   4  23    9.73    7.55
   4   4  23    5.58    6.04
   4   4  22   23.81   12.39
   4   4  22   35.10   11.98
   4   4  21   30.52   11.88
   4   4  21   14.95    5.69
   4   4  20   35.18   17.49
   4   4  20    4.14    7.12
   4   4  19   12.61   11.16
   4   4  19    4.80    5.48
   4   4  18   26.66   11.32
   4   4  17    1.62    6.77
   4   4  16   30.66    8.45
   4   4  15    7.63    7.06
   4   4  14  136.14   19.83
   4   4  13    6.51    6.41
   4   4  12  344.39   23.23
   4   4  11    5.63    8.18
   4   4  10   -0.39    4.67
  -4  -4 -10    0.02   11.29
   4   4   9   25.09    8.00
  -4  -4  -9   12.81    3.33
  -4  -4  -9   53.35   23.46
   4   4   8   18.60    5.19
  -4  -4  -8    2.02    3.50
  -4  -4  -8   11.42    5.13
   4   4   7    4.09    6.19
  -4  -4  -7    3.08    2.74
  -4  -4  -7   10.45    6.61
   4   4   6  324.11   15.58
  -4  -4  -6  325.69   15.45
  -4  -4  -6  347.47   18.68
   4   4   6  289.86   11.12
   4   4   5    6.72    6.80
  -4  -4  -5    7.17    4.22
  -4  -4  -5    5.99    4.52
   4   4   5    5.42    3.02
   4   4   4  569.27   20.66
  -4  -4  -4  555.78   19.70
  -4  -4  -4  524.19   20.87
   4   4   4  551.28   20.07
   4   4   3  602.39   20.79
  -4  -4  -3  627.88   21.49
  -4  -4  -3  625.04   22.60
   4   4   3  620.00   21.36
   4   4   2  691.18   28.02
   4   4   2  608.04   25.21
  -4  -4  -2  624.36   26.37
   4   4   2  630.55   25.33
   4   4   1  453.23   18.82
   4   4   1  413.06   19.57
  -4  -4  -1  435.29   26.74
   4   4   1  438.33   19.77
   4   4   0   17.38    5.76
   4   4   0   13.61    5.36
  -4  -4   0   19.93    7.42
   4   4   0   19.33    4.53
   4   4  -1  326.08   16.01
   4   4  -1  321.94   16.93
  -4  -4   1  326.82   16.57
   4   4  -1  323.36   15.50
   4   4  -2  122.48    7.56
   4   4  -2  120.21    8.77
  -4  -4   2   95.10    7.17
   4   4  -2  107.59    5.99
  -4  -4   3  116.58   24.65
   4   4  -3  110.93    7.29
  -4  -4   3   98.32    6.49
   4   4  -3   98.35   17.75
  -4  -4   4  505.80   45.46
   4   4  -4  490.04   18.40
  -4  -4   4  519.53   18.43
   4   4  -4  509.90   16.70
  -4  -4   5    7.67    3.91
   4   4  -5    6.70    4.16
  -4  -4   5    6.13    4.53
   4   4  -5    5.62    2.86
  -4  -4   6 1029.40   33.00
   4   4  -6 1011.86   31.79
  -4  -4   6 1030.16   30.22
   4   4  -6 1079.46   30.60
  -4  -4   7  417.01   19.58
   4   4  -7  404.90   17.89
  -4  -4   7  434.07   17.41
   4   4  -7  410.52   16.02
  -4  -4   8  355.77   18.87
  -4  -4   8  354.29   14.73
   4   4  -8  366.03   15.22
  -4  -4   9   78.52   12.26
  -4  -4   9   61.01    8.11
   4   4  -9   68.05    9.99
  -4  -4  10    4.80    5.08
  -4  -4  10   15.57    4.34
   4   4 -10   11.19    5.82
  -4  -4  11    9.44    5.89
  -4  -4  11    1.33    2.32
   4   4 -11    8.18    7.66
  -4  -4  12   80.29   11.70
  -4  -4  12   76.33   16.53
   4   4 -12   71.01   15.41
  -4  -4  13   -3.30    5.37
  -4  -4  13    4.18    2.83
   4   4 -13   11.83    6.84
  -4  -4  14   12.37    9.10
  -4  -4  14    6.37    2.53
   4   4 -14    3.95    3.92
  -4  -4  15   16.62    7.29
  -4  -4  15    3.63    2.69
   4   4 -15   14.61    6.74
  -4  -4  16   62.05   12.63
  -4  -4  16   47.50    8.03
   4   4 -16   59.88   10.34
  -4  -4  17   13.54   10.05
  -4  -4  17    4.81    2.51
   4   4 -17    6.61    3.79
  -4  -4  18    9.53    8.27
  -4  -4  18    4.71    2.51
   4   4 -18    5.51    2.90
  -4  -4  19   29.17   11.21
  -4  -4  19   71.83    6.73
  -4  -4  20   13.56    7.81
  -4  -4  20    2.52    1.83
  -4  -4  21    8.34    6.96
  -4  -4  21    2.63    2.02
  -4  -4  22   47.11   11.04
  -4  -4  22   32.62   12.37
  -4  -4  23   17.06    8.22
  -4  -4  23    5.66    2.49
  -4  -4  24   19.68    8.84
  -4  -4  24    5.62    3.20
  -4  -4  25    1.47    5.93
   4   5  24   13.92   10.21
   4   5  24    6.03    6.11
   4   5  23   10.36    6.89
   4   5  23    2.32    5.85
   4   5  22    7.28    7.32
   4   5  22   18.51    8.19
   4   5  21    4.83    7.14
   4   5  21    8.52    8.32
   4   5  20    3.91    7.33
   4   5  20    4.22    5.33
   4   5  19   11.96    8.44
   4   5  18    4.81    7.84
   4   5  17   13.34   10.88
   4   5  16   12.50    7.28
   4   5  15    2.47    6.53
   4   5  14    5.27    6.15
   4   5  13   64.52   17.90
   4   5  12  127.04   17.43
   4   5  11   77.52   12.44
  -4  -5 -11  135.63   40.16
   4   5  10   -0.76    5.12
  -4  -5 -10    1.62    3.68
   4   5   9    5.23    5.03
  -4  -5  -9    9.92    7.39
   4   5   8   57.48   10.11
  -4  -5  -8   53.08   16.72
   4   5   7   24.77    7.24
  -4  -5  -7   26.83    7.07
  -4  -5  -7   12.68    9.81
   4   5   6   93.21   12.83
  -4  -5  -6   78.30   10.44
  -4  -5  -6  101.85   15.73
   4   5   5   49.51   10.18
  -4  -5  -5   65.16    9.79
  -4  -5  -5   50.94   16.74
   4   5   4   15.66    5.07
  -4  -5  -4   11.44    3.47
  -4  -5  -4   13.91    6.22
   4   5   4   14.18    3.49
   4   5   3   97.78   13.79
  -4  -5  -3  108.02   14.40
  -4  -5  -3  120.32   29.42
   4   5   3  101.60   13.56
   4   5   2    8.45    4.34
   4   5   2   10.16    6.91
  -4  -5  -2   11.29    5.04
   4   5   2   13.36    4.85
   4   5   1   10.89    4.29
   4   5   1   11.14    6.80
  -4  -5  -1    6.75    3.44
   4   5   1    9.03    3.19
   4   5   0    3.85    3.59
   4   5   0    3.95    4.73
  -4  -5   0    9.77    5.80
   4   5   0    2.55    3.28
   4   5  -1    7.51    3.47
   4   5  -1   11.65    4.64
  -4  -5   1   15.24    5.72
   4   5  -1    7.19    2.49
   4   5  -2  120.32   15.67
   4   5  -2  113.89   15.71
  -4  -5   2  124.74   16.76
   4   5  -2  130.46   16.58
   4   5  -3  230.17   15.01
  -4  -5   3  217.76   14.23
   4   5  -3  240.26   14.03
  -4  -5   4  288.48   18.76
   4   5  -4  273.38   11.40
  -4  -5   4  249.35   15.42
   4   5  -4  266.48   15.12
  -4  -5   5  412.89   40.53
   4   5  -5  361.65   15.61
   4   5  -5  382.61   13.80
  -4  -5   6  223.96   41.58
   4   5  -6  184.85   14.56
   4   5  -6  203.96   14.37
  -4  -5   7  403.45   20.19
  -4  -5   7  380.07   16.24
   4   5  -7  418.55   16.72
  -4  -5   8   23.99    7.87
  -4  -5   8   38.51    9.69
   4   5  -8   33.99    9.10
  -4  -5   9    3.68    5.03
  -4  -5   9    3.16    2.70
   4   5  -9    4.84    3.09
  -4  -5  10   13.96    8.42
  -4  -5  10    2.58    2.59
   4   5 -10    2.38    4.49
  -4  -5  11   24.24   10.82
  -4  -5  11    3.61    2.53
   4   5 -11   12.25    7.14
  -4  -5  12   97.56   13.30
  -4  -5  12  104.19   10.57
   4   5 -12   96.57   12.35
  -4  -5  13  398.39   32.05
  -4  -5  13  432.99   31.53
   4   5 -13  430.04   32.55
  -4  -5  14  104.09   14.94
  -4  -5  14  118.15   13.71
   4   5 -14  135.02   17.08
  -4  -5  15   77.52   13.96
  -4  -5  15  103.73   15.63
   4   5 -15   88.68   15.15
  -4  -5  16   73.25   14.71
  -4  -5  16   94.12    6.39
   4   5 -16   69.14   12.61
  -4  -5  17   83.53   20.18
  -4  -5  17   86.68   20.15
   4   5 -17   68.73   13.60
  -4  -5  18   25.28    8.85
  -4  -5  18   19.74    8.54
  -4  -5  19   17.46    8.15
  -4  -5  19   12.14    3.11
  -4  -5  20    8.36    7.18
  -4  -5  20    2.16    2.21
  -4  -5  21    3.12    5.25
  -4  -5  21    3.29    2.59
  -4  -5  22   16.49    9.65
  -4  -5  22   19.75    8.13
  -4  -5  23   28.60   10.25
  -4  -5  23   15.87    9.48
  -4  -5  24   16.86    9.92
  -4  -5  24   13.70    6.51
  -4  -5  25    3.68    8.63
  -4  -5  25    2.53    2.19
   4   6  24   11.17    8.18
   4   6  23   11.19    7.23
   4   6  23    5.02    5.64
   4   6  22    1.52    6.88
   4   6  22   20.07   10.95
   4   6  21    6.52    6.75
   4   6  21    4.82    5.67
   4   6  20   12.50    7.18
   4   6  19   21.76   11.02
   4   6  18   15.83   12.10
   4   6  17   13.61    7.38
   4   6  16   38.24   12.14
   4   6  15   49.27   12.37
   4   6  14   13.52    7.44
   4   6  13   36.06   11.68
  -4  -6 -13   68.00   22.19
   4   6  12   66.90   16.69
  -4  -6 -12  224.09   60.38
   4   6  11   17.66    7.96
  -4  -6 -11   10.53    7.28
   4   6  10   91.32   12.44
  -4  -6 -10  131.28   25.05
   4   6   9  140.20   14.62
  -4  -6  -9  161.67   40.92
   4   6   8  139.54   14.57
  -4  -6  -8  165.88   31.37
   4   6   7   77.87   11.99
   4   6   6  256.58   20.16
  -4  -6  -6  246.72   28.84
   4   6   5   94.25   10.53
  -4  -6  -5   89.29   22.71
   4   6   4  520.23   22.09
  -4  -6  -4  484.19   20.72
  -4  -6  -4  534.82   25.08
   4   6   3  368.47   17.99
  -4  -6  -3  302.94   14.72
  -4  -6  -3  389.71   31.63
   4   6   2  268.76   45.01
   4   6   2  388.47   18.51
  -4  -6  -2  350.30   20.68
   4   6   1   67.92   21.55
   4   6   1   69.53   10.33
  -4  -6  -1  104.07   21.94
   4   6   1   61.36    8.41
   4   6   0  129.33   27.97
   4   6   0  187.10   13.91
  -4  -6   0  151.95   19.87
   4   6   0  154.84   19.27
   4   6  -1  489.14   19.60
   4   6  -1  606.92   22.23
  -4  -6   1  571.23   21.30
   4   6  -1  556.83   19.11
   4   6  -2  223.26   14.36
   4   6  -2  250.85   16.88
  -4  -6   2  229.86   15.02
   4   6  -2  224.43   13.74
   4   6  -3    1.52    3.35
   4   6  -3   16.65    8.06
  -4  -6   3    0.01    4.16
   4   6  -3    2.84    1.84
   4   6  -4    7.86    3.52
  -4  -6   4    2.62    4.21
   4   6  -4    5.66    2.91
  -4  -6   5   54.26   13.03
  -4  -6   5   46.56    9.43
   4   6  -5   60.01    9.31
  -4  -6   6  504.96   28.70
   4   6  -6  482.26   19.11
  -4  -6   7   14.17    6.14
  -4  -6   7    5.67    3.54
   4   6  -7    9.12    4.68
  -4  -6   8  203.16   32.23
  -4  -6   8  204.32   15.63
   4   6  -8  205.36   16.05
  -4  -6   9    7.03    5.47
  -4  -6   9    7.17    4.26
   4   6  -9    8.89    6.14
  -4  -6  10   22.05   10.15
  -4  -6  10   18.23    6.12
   4   6 -10   11.08    4.56
  -4  -6  11   68.05   15.45
  -4  -6  11   74.40   14.91
   4   6 -11   75.05   17.34
  -4  -6  12  151.01   17.21
  -4  -6  12  152.04   13.63
   4   6 -12  139.47   14.44
  -4  -6  13    5.34    5.16
  -4  -6  13    6.77    3.39
   4   6 -13   16.74    8.33
  -4  -6  14   10.09    7.21
  -4  -6  14    3.20    2.66
   4   6 -14    4.73    4.39
  -4  -6  15   34.44    8.74
  -4  -6  15   42.66   13.01
  -4  -6  16  223.45   15.94
  -4  -6  16  219.25   11.32
  -4  -6  17   43.38   15.23
  -4  -6  17   46.46    9.58
  -4  -6  18   38.51   10.65
  -4  -6  18   49.69   10.99
  -4  -6  19    8.74    5.02
  -4  -6  19    6.79    3.58
  -4  -6  20    2.63    4.29
  -4  -6  20    4.76    3.36
  -4  -6  21   16.84    5.61
  -4  -6  21   12.41    4.04
  -4  -6  22   84.73   14.74
  -4  -6  22   70.60    8.47
  -4  -6  23   16.86    9.04
  -4  -6  23    2.92    3.34
  -4  -6  24    9.59    7.37
  -4  -6  24    2.12    2.32
  -4  -6  25    4.49    5.52
  -4  -6  25    4.78    2.82
   4   7  23    3.30    6.88
   4   7  23    2.29    5.55
   4   7  22    4.61    6.43
   4   7  22   13.49    9.03
   4   7  21    8.76    6.84
   4   7  20   20.73    9.19
   4   7  19   16.40    7.03
   4   7  18   11.93   10.90
   4   7  17   22.74   12.89
   4   7  16   15.89    8.83
   4   7  15    0.65    6.37
   4   7  14    4.41    5.86
  -4  -7 -14    5.25   10.46
   4   7  13    7.30    6.13
  -4  -7 -13   27.14   18.04
   4   7  12   23.27   10.31
  -4  -7 -12   25.80   11.65
   4   7  11   66.16   15.25
   4   7  10   12.17    6.28
  -4  -7 -10   15.48   10.00
   4   7   9   61.99   15.06
   4   7   8   22.86    8.23
  -4  -7  -8   31.18   12.09
   4   7   7    9.08    8.06
  -4  -7  -7    4.79    4.07
   4   7   6   46.51   10.60
  -4  -7  -6   69.11   19.16
   4   7   5   57.08   10.85
  -4  -7  -5   43.86   13.06
   4   7   4   43.26   11.16
  -4  -7  -4   43.85   17.30
   4   7   3  618.10   20.55
  -4  -7  -3  594.23   20.73
   4   7   2   53.62    9.30
  -4  -7  -2   63.56   15.69
   4   7   1  317.81   17.55
  -4  -7  -1  280.07   13.34
   4   7   0   62.30   12.60
  -4  -7   0   24.47    7.06
   4   7   0   14.72    3.62
   4   7  -1   85.31   13.68
  -4  -7   1   71.37   10.58
   4   7  -2   69.27   13.62
  -4  -7   2   57.56    9.01
   4   7  -2   44.49    8.69
   4   7  -3   14.58    5.31
  -4  -7   3   16.40    6.39
   4   7  -3   18.50    4.84
   4   7  -4   49.88    9.57
  -4  -7   4   56.84    8.58
   4   7  -4   42.27    9.85
  -4  -7   5   18.34    7.21
  -4  -7   5   17.17    4.92
   4   7  -5   24.23    6.36
  -4  -7   6   76.65   19.78
   4   7  -6   62.43    9.10
  -4  -7   7  494.69   51.51
   4   7  -7  340.64   11.30
  -4  -7   8   21.19    9.60
  -4  -7   8   21.75    7.57
   4   7  -8   29.81    8.97
  -4  -7   9  646.13   27.63
  -4  -7  10   21.22    7.34
  -4  -7  10   14.83    6.26
  -4  -7  11   44.34   11.13
  -4  -7  11   70.55   14.76
  -4  -7  12   58.22   13.03
  -4  -7  12   72.48   13.81
  -4  -7  13    3.13    4.89
  -4  -7  13    3.65    3.26
  -4  -7  14   10.16    5.41
  -4  -7  14    5.92    3.23
  -4  -7  15  213.95   15.61
  -4  -7  15  217.90   10.95
  -4  -7  16    7.41    5.69
  -4  -7  16    0.90    2.73
  -4  -7  17  156.56   17.63
  -4  -7  17  153.84   13.66
  -4  -7  18    6.73    4.78
  -4  -7  18    1.79    2.74
  -4  -7  19   59.26   10.50
  -4  -7  19   61.69    8.47
  -4  -7  20    9.40    6.16
  -4  -7  20    8.50    3.82
  -4  -7  21    5.27    4.46
  -4  -7  21    9.01    3.30
  -4  -7  22    8.45    6.44
  -4  -7  22    7.74    3.47
  -4  -7  23    5.35    4.85
  -4  -7  23    5.69    3.53
  -4  -7  24    5.93    5.37
  -4  -7  24    3.28    2.82
   4   8  22   -0.39    6.97
   4   8  21    1.77    6.64
   4   8  20   22.29   12.41
   4   8  19   19.27   11.32
   4   8  18  130.61   24.68
   4   8  17   10.15    6.86
   4   8  16   16.47    7.84
   4   8  15   24.71   10.56
  -4  -8 -15    8.46   12.44
   4   8  14   13.59    7.90
  -4  -8 -14   19.69   20.11
   4   8  13   11.29    6.07
  -4  -8 -13    9.99    6.94
   4   8  12    8.90    6.30
  -4  -8 -12    7.34    5.87
   4   8  11    7.54    6.07
  -4  -8 -11    3.18    4.75
   4   8  10    8.55    6.03
  -4  -8 -10    9.53    7.10
   4   8   9    2.12    5.77
  -4  -8  -9    3.67    4.22
   4   8   8  281.86   20.53
  -4  -8  -8  294.81   50.17
   4   8   7   99.23   13.42
  -4  -8  -7   80.79   21.04
   4   8   6   29.78    9.92
  -4  -8  -6   43.20   18.18
   4   8   5   15.43    8.05
  -4  -8  -5    2.75    3.92
   4   8   4   35.66    9.31
  -4  -8  -4   48.41   15.92
   4   8   3    5.17    5.55
  -4  -8  -3    6.16    5.45
   4   8   2   50.25   10.49
  -4  -8  -2   44.70    8.59
   4   8   1    5.63    5.34
  -4  -8  -1   -0.65    4.70
   4   8   0  278.99   22.22
  -4  -8   0  308.05   24.10
   4   8  -1  197.41   17.11
  -4  -8   1  201.23   17.04
   4   8  -2  205.74   17.68
  -4  -8   2  191.94   15.98
   4   8  -3   15.97    9.09
  -4  -8   3    4.77    3.78
   4   8  -4  104.60   11.23
  -4  -8   4  109.88   10.46
   4   8  -5   77.41   11.58
  -4  -8   5   85.78   10.96
  -4  -8   6    2.45    3.58
  -4  -8   7  291.31   49.40
  -4  -8   8  216.34   44.91
  -4  -8   9    4.24    4.48
  -4  -8   9    1.53    3.82
  -4  -8  10  303.27   45.90
  -4  -8  10  285.96   23.66
  -4  -8  11   71.47   21.41
  -4  -8  11   90.26   12.93
  -4  -8  12  195.86   20.37
  -4  -8  12  194.72   17.37
  -4  -8  13    0.05    4.77
  -4  -8  13    8.12    3.65
  -4  -8  14   35.95    8.93
  -4  -8  14   59.67   10.69
  -4  -8  15   10.20    7.13
  -4  -8  15   13.35    6.35
  -4  -8  16   57.75   14.35
  -4  -8  16   51.99   11.79
  -4  -8  17   28.09   10.94
  -4  -8  17   25.48    8.63
  -4  -8  18   15.38    6.60
  -4  -8  18   26.56    9.02
  -4  -8  19   22.83    7.76
  -4  -8  19   30.91    9.90
  -4  -8  20  100.95   17.19
  -4  -8  20   95.41   17.87
  -4  -8  21   15.59    8.31
  -4  -8  21   13.42    6.83
  -4  -8  22   19.12    9.50
  -4  -8  22   19.17    8.23
  -4  -8  23    5.96    4.35
  -4  -8  23    8.15    3.95
  -4  -8  24   15.14    8.44
  -4  -8  24    5.08    2.48
   4   9  22    4.99    8.19
   4   9  21   12.36   10.31
   4   9  20   10.23    7.24
   4   9  19    5.58    6.93
   4   9  18   49.28   11.45
   4   9  17    8.54    6.76
   4   9  16   10.36    8.61
  -4  -9 -16    3.34   11.92
   4   9  15   12.11    8.66
  -4  -9 -15   13.81   14.52
   4   9  14   31.69   10.08
   4   9  13    5.08    8.47
  -4  -9 -13   11.68    7.23
   4   9  12   25.13   12.93
  -4  -9 -12    8.85    6.03
   4   9  11   25.31    9.69
  -4  -9 -11   12.14    8.56
   4   9  10    7.22    5.62
  -4  -9 -10    7.31    6.64
   4   9   9   26.24    9.62
  -4  -9  -9   45.88   16.40
   4   9   8  224.32   20.57
  -4  -9  -8  203.29   40.80
   4   9   7   11.44    5.92
  -4  -9  -7   29.10   11.19
   4   9   6   98.98   14.13
  -4  -9  -6  122.95   26.31
   4   9   5   18.80    7.19
  -4  -9  -5   13.46    6.17
   4   9   4   13.48    6.00
  -4  -9  -4   11.47    5.08
   4   9   3    7.17    5.72
  -4  -9  -3   12.91    6.36
   4   9   2   31.86    7.03
  -4  -9  -2   18.10    8.11
   4   9   1   97.76   13.74
  -4  -9  -1  130.62   15.16
   4   9   0   13.01    8.47
  -4  -9   0    5.33    6.57
   4   9  -1   91.45   13.76
  -4  -9   1   56.03   11.76
   4   9  -2   13.59    7.31
  -4  -9   2   15.49    5.00
   4   9  -3   75.23   11.62
  -4  -9   3   76.87   10.63
   4   9  -4   88.50   13.37
  -4  -9   4   87.63   11.88
   4   9  -5   21.41   11.38
  -4  -9   5    9.00    4.18
   4   9  -6   63.37   15.70
  -4  -9   6   23.55    7.39
  -4  -9   8    7.21    4.61
  -4  -9   9   14.69    5.24
  -4  -9   9   16.70    6.53
  -4  -9  10  259.28   44.40
  -4  -9  10  236.36   19.75
  -4  -9  11   29.79   11.10
  -4  -9  11   24.22    6.62
  -4  -9  12    6.83    5.90
  -4  -9  12    5.33    3.62
  -4  -9  13   46.11   12.79
  -4  -9  13   37.57    8.45
  -4  -9  14    3.05    4.73
  -4  -9  14    7.97    3.39
  -4  -9  15   19.48   10.66
  -4  -9  15    8.17    3.67
  -4  -9  16   57.85   14.53
  -4  -9  16   79.69    9.99
  -4  -9  17  139.76   15.91
  -4  -9  17  130.19   12.61
  -4  -9  18   19.45   10.09
  -4  -9  18   34.85   13.20
  -4  -9  19   92.01   14.74
  -4  -9  19  119.81   17.01
  -4  -9  20    4.81    4.57
  -4  -9  20   18.82    7.37
  -4  -9  21    5.55    6.24
  -4  -9  21    4.75    3.22
  -4  -9  22   10.67    4.27
  -4  -9  22   32.52   13.47
  -4  -9  23    4.24    4.75
  -4  -9  23    1.74    2.47
   4  10  21    8.93    8.26
   4  10  20   18.40   10.95
   4  10  19   15.84    8.57
   4  10  18   22.96   12.42
   4  10  17    3.90    6.07
   4  10  16    6.65    5.91
  -4 -10 -16    5.20    9.89
   4  10  15    0.93    5.62
  -4 -10 -15   17.80   16.45
   4  10  14   11.75    8.42
  -4 -10 -14   11.57    6.86
   4  10  13    6.51    6.49
  -4 -10 -13   12.18    6.69
   4  10  12   43.91   12.23
   4  10  11   12.90    9.49
  -4 -10 -11   20.98   10.71
   4  10  10  191.79   14.10
   4  10   9   72.82   15.38
  -4 -10  -9   68.40   21.45
   4  10   8   14.93    5.53
  -4 -10  -8   29.77   16.02
   4  10   7    0.36    5.53
  -4 -10  -7    2.67    3.85
   4  10   6   62.31   13.74
  -4 -10  -6   78.22   23.37
   4  10   5   19.06    8.86
  -4 -10  -5    8.69    6.63
   4  10   4   13.66    5.31
  -4 -10  -4   22.25    8.75
   4  10   3    7.89    5.40
  -4 -10  -3    9.43    5.55
   4  10   2  181.53   17.85
  -4 -10  -2  199.41   20.61
   4  10   1   19.80    7.83
  -4 -10  -1    4.07    5.26
   4  10   0  678.70   41.55
  -4 -10   0  779.37   23.45
   4  10  -1  103.82   13.70
  -4 -10   1   97.06   14.72
   4  10  -2  433.85   29.00
  -4 -10   2  379.60   27.04
   4  10  -3  101.28   17.09
  -4 -10   3   87.23   11.57
   4  10  -4  186.12   18.69
  -4 -10   4  203.35   19.39
   4  10  -5  131.81   17.11
  -4 -10   5  101.49   12.25
   4  10  -6   67.98   14.96
  -4 -10   6   71.36   14.85
   4  10  -7  101.36   15.88
  -4 -10   7   94.64   12.86
  -4 -10   8    8.58    4.50
  -4 -10   9    5.33    3.85
  -4 -10  10  120.87   24.37
  -4 -10  10  138.36   14.55
  -4 -10  11   21.42   11.30
  -4 -10  11   25.30    8.47
  -4 -10  12  357.74   57.63
  -4 -10  12  279.58   14.54
  -4 -10  13    3.39    4.90
  -4 -10  13    1.50    3.07
  -4 -10  14   40.10   14.78
  -4 -10  14   70.99    7.99
  -4 -10  15   11.50    7.46
  -4 -10  15   17.63    5.30
  -4 -10  16    5.32    4.62
  -4 -10  16    3.18    3.13
  -4 -10  17   28.41    8.02
  -4 -10  17   26.95    7.42
  -4 -10  18    7.05    3.62
  -4 -10  18    8.78    3.69
  -4 -10  19    4.78    4.03
  -4 -10  19   11.68    4.69
  -4 -10  20   16.73    8.09
  -4 -10  20   12.08    6.27
  -4 -10  21    8.09    6.07
  -4 -10  21   33.30    8.93
  -4 -10  22   10.98    6.28
  -4 -10  22   14.89    6.64
  -4 -10  23   10.59    6.34
  -4 -10  23    2.54    2.88
   4  11  20   15.41    9.58
   4  11  19    1.06    7.52
   4  11  18    9.87    9.89
   4  11  17    2.65    5.98
  -4 -11 -17   12.95   13.28
   4  11  16   22.07    9.68
  -4 -11 -16   11.14   12.21
   4  11  15   28.85   12.10
  -4 -11 -15   12.39    7.06
   4  11  14    2.42    5.70
  -4 -11 -14    3.65    5.27
   4  11  13  109.11   15.52
   4  11  12   43.95   13.11
  -4 -11 -12   17.62   14.29
   4  11  11   30.40   10.48
  -4 -11 -11    7.61   11.13
   4  11  10    6.45    5.76
  -4 -11 -10    7.94    6.58
   4  11   9   55.75   12.81
  -4 -11  -9   63.40   23.07
   4  11   8   12.11    7.66
  -4 -11  -8    8.21    8.83
   4  11   7    6.82    4.86
  -4 -11  -7   14.81    6.93
   4  11   6    5.40    5.53
  -4 -11  -6    6.70    4.05
   4  11   5   11.13    7.54
  -4 -11  -5   21.12   10.65
   4  11   4   27.74    7.91
  -4 -11  -4   39.13   12.13
   4  11   3   16.16    8.30
  -4 -11  -3    8.36    5.00
   4  11   2   63.20   14.67
  -4 -11  -2   68.49   15.13
   4  11   1   63.33   13.60
  -4 -11  -1   68.65   14.65
   4  11   0  174.74   17.50
  -4 -11   0  170.05   17.21
   4  11  -1  197.93   21.00
  -4 -11   1  156.87   18.00
   4  11  -2  163.10   18.45
  -4 -11   2  127.37   17.28
   4  11  -3  562.33   43.08
  -4 -11   3  609.53   20.11
   4  11  -4   22.27    8.50
  -4 -11   4   34.55    9.49
   4  11  -5  218.56   20.45
  -4 -11   5  177.04   17.16
   4  11  -6    4.17    6.58
  -4 -11   6    2.14    4.50
   4  11  -7    8.73    6.37
  -4 -11   7    5.36    4.51
   4  11  -8  326.42   27.55
  -4 -11   8  319.57   26.46
   4  11  -9    6.09    5.05
  -4 -11  10    2.94    4.06
  -4 -11  11   81.31   25.19
  -4 -11  11   62.87   13.36
  -4 -11  12  143.32   30.62
  -4 -11  12  129.92   12.74
  -4 -11  13  161.06   35.80
  -4 -11  14   75.08   17.76
  -4 -11  14   49.31   12.52
  -4 -11  15   46.15   19.43
  -4 -11  15   49.24   12.56
  -4 -11  16    9.19    8.19
  -4 -11  16    1.54    3.21
  -4 -11  17    6.09    4.70
  -4 -11  17   15.67    4.89
  -4 -11  18    5.42    3.55
  -4 -11  18    4.78    4.87
  -4 -11  19   11.33    5.32
  -4 -11  19    6.54    3.66
  -4 -11  20   15.52    8.70
  -4 -11  20   15.45    6.71
  -4 -11  21   11.19    7.87
  -4 -11  21    9.95    4.86
  -4 -11  22    9.33    6.20
  -4 -11  22    3.59    4.08
   4  12  19    5.48    8.33
   4  12  18    2.91    7.29
   4  12  17    5.05    6.48
  -4 -12 -17   -1.81   10.86
   4  12  16    1.48    5.67
  -4 -12 -16    4.07    5.61
   4  12  15   16.49    9.96
  -4 -12 -15    4.67    8.21
   4  12  14    9.60    5.87
  -4 -12 -14    7.54    7.10
   4  12  13    7.52    5.49
  -4 -12 -13    5.68    4.62
   4  12  12   10.20    7.84
  -4 -12 -12   12.93   11.91
   4  12  11    4.68    5.27
  -4 -12 -11    6.30    6.29
   4  12  10    0.16    4.78
  -4 -12 -10    7.90    7.20
   4  12   9    0.97    5.34
  -4 -12  -9    8.79    6.77
   4  12   8    0.91    5.08
  -4 -12  -8    3.61    5.47
   4  12   7    1.76    4.62
  -4 -12  -7    6.30    7.20
   4  12   6    9.62    5.20
  -4 -12  -6   18.40   11.81
   4  12   5   12.47    8.25
  -4 -12  -5    9.42    5.00
   4  12   4   12.65    7.84
  -4 -12  -4    7.07    7.59
   4  12   3    9.35    3.82
  -4 -12  -3   16.84    8.87
   4  12   2    9.15    5.27
  -4 -12  -2    8.90    5.33
   4  12   1   28.01    7.27
  -4 -12  -1   35.42   11.04
   4  12   0   13.34    5.45
  -4 -12   0   31.07    9.89
   4  12  -1    6.97    5.21
  -4 -12   1   13.18    4.67
   4  12  -2   27.65    8.89
  -4 -12   2   37.79   11.81
   4  12  -3   89.59   17.73
  -4 -12   3  128.85   14.38
   4  12  -4  286.37   25.07
  -4 -12   4  256.72   22.47
   4  12  -5   38.06    9.69
  -4 -12   5   52.89   11.85
   4  12  -6   86.69   12.22
  -4 -12   6   68.57   12.86
   4  12  -7   16.68    7.28
  -4 -12   7   12.49    5.71
   4  12  -8   91.57   19.64
  -4 -12   8   85.35   17.65
   4  12  -9  116.97   14.57
  -4 -12   9  104.77   12.27
   4  12 -10   25.72   12.05
   4  12 -11   74.55   11.79
  -4 -12  11   75.89   10.31
  -4 -12  12   78.12   19.71
  -4 -12  12   76.77   11.58
  -4 -12  13   75.68   23.70
  -4 -12  14  100.80   22.90
  -4 -12  14  101.29   23.82
  -4 -12  15   46.86   16.50
  -4 -12  15   55.97    9.69
  -4 -12  16   68.73   19.68
  -4 -12  16   75.87   13.30
  -4 -12  17   16.05   10.11
  -4 -12  17   16.68    7.30
  -4 -12  18   18.15    8.77
  -4 -12  18    7.53    3.62
  -4 -12  19    8.04    5.31
  -4 -12  19    6.20    3.74
  -4 -12  20    8.01    5.37
  -4 -12  20    2.34    3.61
  -4 -12  21   10.02    6.41
  -4 -12  21    9.50    5.19
   4  13  17    6.90    6.92
  -4 -13 -17   25.77   14.93
   4  13  16   11.87    9.87
  -4 -13 -16   10.24    8.17
   4  13  15   11.68    5.91
  -4 -13 -15    7.31    6.79
   4  13  14   10.47    5.56
  -4 -13 -14    1.53    6.19
   4  13  13    6.92    5.59
  -4 -13 -13   10.15    7.79
   4  13  12    9.36    5.60
  -4 -13 -12   17.86    7.74
   4  13  11    8.55    5.30
  -4 -13 -11   15.18    7.52
   4  13  10   16.01    9.62
  -4 -13 -10   10.18    8.75
   4  13   9   12.45    7.19
  -4 -13  -9    9.44    5.72
   4  13   8   18.43    6.49
  -4 -13  -8   31.89   14.41
   4  13   7    2.67    5.07
  -4 -13  -7    9.05    6.57
   4  13   6   11.74    6.41
  -4 -13  -6    2.31    5.17
   4  13   5   46.21   13.46
  -4 -13  -5   30.90   12.31
   4  13   4   21.44   10.39
  -4 -13  -4   25.91   12.38
   4  13   3   50.53   13.86
  -4 -13  -3   30.03   11.85
   4  13   2  168.31   16.16
  -4 -13  -2  183.08   17.88
   4  13   1    6.37    7.44
  -4 -13  -1   20.69   10.54
   4  13   0   38.91   13.11
  -4 -13   0   24.55   11.12
   4  13  -1    9.82    7.55
  -4 -13   1    7.97    5.20
   4  13  -2    9.12    7.67
  -4 -13   2   15.78    8.26
   4  13  -3   27.81   10.95
  -4 -13   3   41.27   14.32
   4  13  -4    8.28    4.94
  -4 -13   4    8.64    6.50
   4  13  -5    6.34    4.90
  -4 -13   5    3.61    4.07
   4  13  -6    7.09    6.85
  -4 -13   6    7.91    4.45
   4  13  -7   40.68   15.13
  -4 -13   7   43.11   13.66
   4  13  -8    9.30    5.39
  -4 -13   8    4.40    4.19
   4  13  -9    0.73    4.83
  -4 -13   9    1.04    3.76
   4  13 -10    9.70    4.53
  -4 -13  10    4.67    4.03
   4  13 -11   53.85   14.10
   4  13 -12    3.99    4.82
  -4 -13  12    9.41    5.89
  -4 -13  13   36.37   11.75
  -4 -13  14    7.98    5.81
  -4 -13  14    5.67    4.49
  -4 -13  15    5.96    6.05
  -4 -13  15    2.96    4.27
  -4 -13  16    5.63    3.44
  -4 -13  16    4.63    6.10
  -4 -13  17    6.26    3.87
  -4 -13  17   12.89    5.99
  -4 -13  18    2.14    2.73
  -4 -13  18    3.15    2.86
  -4 -13  19   11.91    6.74
  -4 -13  19    4.39    3.34
  -4 -13  20    7.84    6.53
  -4 -13  20    8.92    4.39
   4  14  16    9.07    6.84
  -4 -14 -16   11.84    8.61
   4  14  15    6.23    8.77
  -4 -14 -15    3.70    5.79
   4  14  14    6.65    5.68
  -4 -14 -14    7.54    5.61
   4  14  13    9.40    5.99
  -4 -14 -13    5.10    5.00
   4  14  12    8.49    5.53
  -4 -14 -12   10.18    4.85
   4  14  11    2.48    4.88
  -4 -14 -11    4.47    4.54
   4  14  10   11.02    5.07
  -4 -14 -10    7.51    5.62
   4  14   9    7.62    5.02
  -4 -14  -9   11.95    7.22
   4  14   8   34.49   12.47
  -4 -14  -8   15.12   10.71
   4  14   7   23.78    8.16
  -4 -14  -7   27.05   10.24
   4  14   6   51.95   13.24
  -4 -14  -6   87.36   23.17
   4  14   5   20.28    8.28
  -4 -14  -5   12.60    5.27
   4  14   4  105.59   17.19
  -4 -14  -4  106.13   16.84
   4  14   3   26.44    9.83
  -4 -14  -3    5.49    5.67
   4  14   2  240.77   22.86
  -4 -14  -2  230.90   25.21
   4  14   1   23.35    6.81
  -4 -14  -1   51.83   14.38
   4  14   0   37.27   10.97
  -4 -14   0   24.49    9.39
   4  14  -1   43.59   11.69
  -4 -14   1   36.58   10.49
   4  14  -2    3.09    4.84
  -4 -14   2   11.92    8.23
   4  14  -3    3.97    5.24
  -4 -14   3    8.01    5.18
   4  14  -4   35.30    9.29
  -4 -14   4   55.88   14.75
   4  14  -5   12.64    7.57
  -4 -14   5    5.55    4.50
   4  14  -6   94.43   15.59
  -4 -14   6   79.57   13.05
   4  14  -7   14.22    6.46
  -4 -14   7   55.90   14.85
   4  14  -8  166.49   17.01
  -4 -14   8  164.91   16.11
   4  14  -9    7.07    6.76
  -4 -14   9    5.95    4.63
   4  14 -10  117.03   16.97
  -4 -14  10  105.07   13.18
   4  14 -11    8.15    5.23
   4  14 -12    7.95    5.40
  -4 -14  12    3.13    4.11
  -4 -14  13    4.68    4.11
  -4 -14  14   75.76   11.67
  -4 -14  15    9.96    5.67
  -4 -14  16   15.52    7.24
  -4 -14  17    4.45    5.37
  -4 -14  17    2.98    4.29
  -4 -14  18   20.37   12.93
  -4 -14  18   22.55    7.28
  -4 -14  19   -0.01    3.84
  -4 -14  19    5.35    3.99
   4  15  14    0.62    5.53
  -4 -15 -14    7.41    6.08
   4  15  13    6.29    5.30
  -4 -15 -13   10.67    9.95
   4  15  12    9.34    5.53
  -4 -15 -12   18.57    9.28
   4  15  11    4.22    4.96
  -4 -15 -11    4.77    3.78
   4  15  10    5.38    4.92
  -4 -15 -10    9.62    7.24
   4  15   9   15.08    7.14
  -4 -15  -9   25.74   12.59
   4  15   8   11.89    6.99
  -4 -15  -8   13.95    8.18
   4  15   7   28.59   10.71
  -4 -15  -7   34.35   17.48
   4  15   6    9.52    5.34
  -4 -15  -6   16.68    6.55
   4  15   5    1.35    5.13
  -4 -15  -5    4.72    3.15
   4  15   4    4.29    5.69
  -4 -15  -4    8.28    5.49
   4  15   3   40.57   13.98
  -4 -15  -3   48.06    9.78
   4  15   2   23.20    9.82
  -4 -15  -2    7.42    5.30
   4  15   1   14.22    6.81
  -4 -15  -1   14.96    7.55
   4  15   0    2.06    4.45
  -4 -15   0    4.89    5.09
   4  15  -1   55.18   14.85
  -4 -15   1   34.95   14.61
   4  15  -2    3.77    4.70
  -4 -15   2    4.99    7.86
   4  15  -3   11.06    4.88
  -4 -15   3   12.88    7.92
   4  15  -4   24.05   10.18
  -4 -15   4   15.48    6.97
   4  15  -5    3.28    4.58
  -4 -15   5    3.57    5.76
   4  15  -6   29.66   10.51
  -4 -15   6   26.17    8.30
   4  15  -7   50.32   10.87
  -4 -15   7   49.19    9.03
   4  15  -8   14.83    8.91
  -4 -15   8    6.59    4.99
   4  15  -9   61.67   13.86
  -4 -15   9   47.40    9.94
   4  15 -10    4.26    5.12
  -4 -15  10    1.80    4.46
   4  15 -12    9.56    5.73
   4  15 -13   16.00    8.59
  -4 -15  13    3.13    4.11
   4  15 -14   10.56    5.75
  -4 -15  14    8.10    5.92
   4  15 -15    7.63    5.35
  -4 -15  15    0.97    3.62
   4  15 -16   24.13    8.88
  -4 -15  16   29.45   13.23
   4  15 -17    2.25    5.13
  -4 -15  17   14.47    7.80
  -4 -15  18    9.09    6.76
   4  16  12    8.59    5.58
  -4 -16 -12   17.64   12.96
   4  16  11   12.09    6.88
  -4 -16 -11    7.67    4.82
   4  16  10   -1.30    4.47
  -4 -16 -10    9.00    5.88
   4  16   9   11.11    6.89
  -4 -16  -9   18.41    7.57
   4  16   8    7.28    4.63
  -4 -16  -8    2.56    4.83
   4  16   7    3.01    4.54
  -4 -16  -7    2.76    4.66
   4  16   6   15.33    8.71
  -4 -16  -6    8.63    6.51
   4  16   5    4.37    5.23
  -4 -16  -5    1.01    3.40
   4  16   4   10.71    8.04
  -4 -16  -4    4.85    5.07
   4  16   3   15.52    8.32
  -4 -16  -3   14.14    6.93
   4  16   2    5.09    8.06
  -4 -16  -2    4.08    4.71
   4  16   1   13.87    7.95
  -4 -16  -1    5.96    5.05
   4  16   0    3.17    5.38
  -4 -16   0    4.33    4.89
   4  16  -1    4.74    7.64
  -4 -16   1    3.90    5.18
   4  16  -2    0.99    4.96
  -4 -16   2   10.45    5.64
   4  16  -3    7.61    7.63
  -4 -16   3    1.63    4.65
   4  16  -4    4.00    4.89
  -4 -16   4    5.02    5.52
   4  16  -5    4.20    5.06
  -4 -16   5    8.06    6.83
   4  16  -6   11.28    6.99
  -4 -16   6    4.09    6.94
  -4 -16   7   27.79   11.03
  -4 -16   8   13.90    7.49
  -4 -16   9   26.29    9.76
   4  16 -10    4.63    4.87
  -4 -16  10    2.61    5.50
   4  16 -11    3.07    4.84
  -4 -16  11   10.44    7.19
   4  16 -12    4.74    5.05
   4  16 -13   18.45    7.27
  -4 -16  13   20.16    7.99
   4  16 -14   15.26    8.77
  -4 -16  14    5.34    6.22
   4  16 -15   13.10    5.96
  -4 -16  15   14.42    7.96
   4  16 -16   21.14   10.86
  -4 -16  16    7.07    4.62
   4  17  10    5.48    4.75
  -4 -17 -10   10.52    7.03
   4  17   9   15.52    8.94
  -4 -17  -9   20.43   10.95
   4  17   8   23.34    7.13
  -4 -17  -8   16.11    8.85
   4  17   7   10.75    6.42
  -4 -17  -7    6.88    5.10
   4  17   6    4.66    4.76
  -4 -17  -6    2.76    3.03
   4  17   5    1.34    4.67
  -4 -17  -5    6.05    4.63
   4  17   4   21.27    9.35
  -4 -17  -4   20.14   10.66
   4  17   3    9.50    6.22
  -4 -17  -3   14.98   10.64
   4  17   2   11.38    5.90
  -4 -17  -2   21.76   11.34
   4  17   1   87.58   14.24
  -4 -17  -1   82.41   13.70
   4  17   0    6.77    7.93
  -4 -17   0    8.17    8.13
   4  17  -1  158.29   19.19
  -4 -17   1  163.95   16.20
   4  17  -2   61.38   12.96
  -4 -17   2   74.66   12.46
   4  17  -3   16.40    8.89
  -4 -17   3   13.60    8.65
   4  17  -4   14.29    7.74
  -4 -17   4   61.59   12.19
  -4 -17   5    1.77    5.20
  -4 -17   6   16.39    9.02
   4  17  -7    3.70    4.58
  -4 -17   7    2.34    5.10
   4  17  -8   15.21    6.98
  -4 -17   8   10.49    5.67
   4  17  -9   24.10   11.19
  -4 -17   9   27.95   13.37
   4  17 -10    5.45    5.04
  -4 -17  10    3.26    5.93
   4  17 -11   73.89   29.11
  -4 -17  11   54.38   22.25
   4  17 -12   20.28    8.07
  -4 -17  12    3.31    4.63
   4  17 -13   11.51    6.86
   4  17 -14   20.54    8.96
  -4 -17  14    5.55    4.67
   4  18   7    6.17    5.13
  -4 -18  -7    5.84    7.69
   4  18   6    2.47    4.68
  -4 -18  -6   -4.95    4.93
   4  18   5   21.27    7.61
  -4 -18  -5    9.52    5.09
   4  18   4    4.16    5.08
  -4 -18  -4   57.58   22.17
   4  18   3   18.53    8.49
  -4 -18  -3   21.93    9.01
   4  18   2    4.82    5.90
  -4 -18  -2    3.55    5.56
   4  18   1   25.13    8.15
  -4 -18  -1   15.71    7.64
   4  18   0    2.41    5.34
  -4 -18   0    4.09    5.38
   4  18  -1    8.69    7.66
  -4 -18   1    9.19    5.90
  -4 -18   2   61.65   16.20
  -4 -18   3    9.73    7.44
   4  18  -4   39.65   17.38
  -4 -18   4   41.85   17.30
   4  18  -5   28.28   13.13
  -4 -18   5   24.09    7.33
   4  18  -6    1.39    4.83
  -4 -18   6   -1.15    4.49
   4  18  -7    9.87    8.24
  -4 -18   7   -0.25    4.59
   4  18  -8   21.27    7.46
  -4 -18   8   25.95    7.89
   4  18  -9    2.30    4.50
  -4 -18   9    7.34    5.05
   4  18 -10   18.61    9.83
  -4 -18  10   18.95    9.17
   4  18 -11   13.35    6.84
  -4 -18  11    4.43    5.00
   4  19   3    2.37    5.67
  -4 -19  -3    5.32    5.93
  -4 -19  -2   12.01    6.55
  -4 -19  -1    0.34    5.42
  -4 -19   0    2.08    5.39
   4  19  -1   -0.58    4.96
  -4 -19   1   12.57    7.49
   4  19  -2    6.75    5.16
  -4 -19   2    7.29    5.79
   4  19  -3    6.38    6.68
  -4 -19   3   -0.90    5.17
   4  19  -4    3.88    4.59
  -4 -19   4    3.69    5.43
   4  19  -5   22.13    9.26
  -4 -19   5   23.77   10.56
   4  19  -6    0.09    4.53
  -4 -19   6    4.19    6.68
   4  19  -7   18.90    8.82
  -4 -19   7   20.62    9.40
   5 -18   7    7.93    4.91
   5 -18   6    4.33    4.20
   5 -18   5    8.71    5.34
   5 -18   4   14.43    8.16
   5 -18   3    7.34    3.94
   5 -18   2    5.75    3.73
   5 -18   1   10.90    5.02
   5 -18   0    4.41    4.38
   5 -18  -1   12.73    6.05
   5 -18  -2   15.32    6.54
   5 -18  -3    1.66    2.47
   5 -18  -4    5.29    2.78
   5 -17  11   -2.00    5.78
   5 -17  10   24.04    9.72
   5 -17   9   28.21   13.50
   5 -17   8   11.42    6.07
   5 -17   7   11.64    7.80
   5 -17   6    5.48    4.93
   5 -17   5   11.23    6.09
   5 -17   4    8.54    4.63
   5 -17   3    1.77    4.12
   5 -17   2   16.72    7.57
   5 -17   1    1.34    2.75
   5 -17   0   52.20   12.95
   5 -17  -1   13.40    4.91
   5 -17  -2   47.81   18.50
   5 -17  -3   43.78   17.07
  -5  17   4    1.82    2.19
   5 -17  -4   10.54    4.43
  -5  17   5   14.07    6.15
   5 -17  -5    8.01    3.76
  -5  17   6    6.26    3.72
  -5  17   7    1.91    2.47
  -5  17   8    8.41    4.40
   5 -16  14   27.01   14.10
   5 -16  13   32.94   14.15
   5 -16  12   16.52    9.40
   5 -16  11   40.57   17.16
   5 -16  10   21.75    7.84
   5 -16   9   21.89   12.12
   5 -16   8   16.44    9.70
   5 -16   7   39.17   13.48
   5 -16   6    3.51    7.28
   5 -16   5    4.33    4.98
   5 -16   4   17.12    7.64
   5 -16   3   12.81    8.03
   5 -16   2    1.75    3.95
   5 -16   1    5.85    4.97
   5 -16   0    7.57    3.70
  -5  16   1    5.35    2.83
   5 -16  -1    4.82    3.08
  -5  16   2    2.86    2.53
   5 -16  -2   10.73    5.10
  -5  16   3    3.87    2.19
   5 -16  -3   11.93    5.26
  -5  16   4    9.15    3.86
   5 -16  -4   18.60    5.48
  -5  16   5   27.52   10.89
   5 -16  -5   21.84    8.73
  -5  16   6   13.23    4.20
   5 -16  -6   10.01    3.46
  -5  16   7    4.06    5.50
  -5  16   8    3.99    3.59
  -5  16   9    7.93    5.10
  -5  16  10    0.66    2.93
   5 -15  16   26.07   15.24
   5 -15  15   17.90   17.37
   5 -15  14   40.67   19.32
   5 -15  13   12.51   11.11
   5 -15  12   12.04    8.37
   5 -15  11   63.77   17.74
   5 -15  10    5.24    6.66
   5 -15   9   19.87   11.32
   5 -15   8    4.21    7.21
   5 -15   7   11.09    8.88
   5 -15   6   16.49    8.97
   5 -15   5   -1.56    5.56
   5 -15   4   16.81    7.59
   5 -15   3   16.82    6.75
   5 -15   2    8.00    5.85
  -5  15  -1   35.39   10.10
   5 -15   1   27.80    9.68
  -5  15   0    7.22    2.56
   5 -15   0   12.65    6.06
  -5  15   1   11.73    2.77
   5 -15  -1    6.99    4.35
  -5  15   2   24.27    7.58
   5 -15  -2   23.02    7.81
  -5  15   3    4.49    3.00
   5 -15  -3    9.53    3.72
  -5  15   4   12.69    3.74
   5 -15  -4    5.97    3.63
  -5  15   5   14.97    6.17
   5 -15  -5   12.64    5.89
  -5  15   6    2.65    2.78
   5 -15  -6    1.95    2.80
  -5  15   7    6.39    4.26
   5 -15  -7    3.80    2.83
  -5  15   8    7.80    5.22
  -5  15   9    1.69    3.19
  -5  15  10    3.93    5.30
  -5  15  11    2.71    3.90
  -5  15  12    1.80    3.80
  -5  15  13    4.44    5.47
   5 -14  17   10.64   10.70
   5 -14  16   17.77   16.47
   5 -14  15    8.78   10.15
   5 -14  14   15.48   10.87
   5 -14  13    3.45    8.89
   5 -14  12    8.67    7.65
   5 -14  11   13.91    9.07
   5 -14  10   21.98   13.96
   5 -14   9   23.59   13.64
   5 -14   8   -1.51    8.12
   5 -14   7    5.77    7.17
   5 -14   6   30.32   12.38
   5 -14   5    1.93    6.03
   5 -14   4   13.76    8.83
   5 -14   3    5.32    5.10
  -5  14  -2    2.59    1.04
   5 -14   2    3.27    5.25
  -5  14  -1   18.67    3.93
   5 -14   1    9.82    5.75
  -5  14   0   14.80    3.74
   5 -14   0   17.76    6.93
  -5  14   1    4.15    2.75
   5 -14  -1   12.11    4.87
  -5  14   2    5.68    2.84
   5 -14  -2    7.86    3.93
  -5  14   3    3.78    2.93
   5 -14  -3    5.95    3.65
  -5  14   4   14.57    7.37
   5 -14  -4   12.17    5.25
  -5  14   5    2.11    2.78
   5 -14  -5    3.90    2.08
  -5  14   6    9.04    5.80
   5 -14  -6    4.57    2.95
  -5  14   7    3.57    3.19
   5 -14  -7    1.17    1.81
  -5  14   8    0.88    2.98
   5 -14  -8    2.95    3.16
  -5  14   9   18.17    7.51
  -5  14  10    4.31    3.65
  -5  14  11    6.24    4.33
  -5  14  12    6.29    5.57
  -5  14  13    6.34    5.21
  -5  14  14    6.56    3.99
   5 -13  19   13.65   10.37
   5 -13  18   13.08   10.53
   5 -13  17   23.44   13.94
   5 -13  16    3.70    9.36
   5 -13  15    0.90    9.39
   5 -13  14    5.93    9.14
   5 -13  13    6.28    8.79
   5 -13  12   11.31   12.17
   5 -13  11   21.49    9.30
   5 -13  10   17.03   15.20
   5 -13   9   33.15   15.93
   5 -13   8   43.36   12.46
   5 -13   7    2.56    7.73
   5 -13   6   18.78   10.81
   5 -13   5    8.80    7.10
   5 -13   4   10.89   11.09
   5 -13   3   11.95    5.49
  -5  13  -2    1.69    0.65
   5 -13   2   10.58    4.55
  -5  13  -1   23.88    4.79
   5 -13   1   21.61   10.19
  -5  13   0    5.49    2.48
   5 -13   0   -0.08    3.38
  -5  13   1    7.80    2.63
   5 -13  -1    6.76    4.45
  -5  13   2   18.22    8.28
   5 -13  -2    5.46    4.00
  -5  13   3    2.52    2.01
   5 -13  -3    4.67    2.71
  -5  13   4  271.22   19.26
   5 -13  -4  269.27   21.55
  -5  13   5   47.71   11.05
   5 -13  -5   41.94   17.08
  -5  13   6  140.91   13.19
   5 -13  -6  141.09   11.71
  -5  13   7   81.88   10.25
   5 -13  -7   84.98    9.28
  -5  13   8   19.08    8.89
   5 -13  -8   16.06    7.28
  -5  13   9   46.58    8.82
   5 -13  -9   50.10    7.47
  -5  13  10    6.81    5.62
  -5  13  11   18.74    8.17
  -5  13  12   12.26    6.89
  -5  13  13    1.68    3.74
  -5  13  14    9.99    5.84
  -5  13  15   14.22    8.33
  -5  13  16   22.76    9.24
   5 -12  20   16.83   12.37
   5 -12  19   19.07   10.37
   5 -12  18   10.03    9.66
   5 -12  17   28.54   14.16
   5 -12  16   10.01   10.06
   5 -12  15    4.83    9.15
   5 -12  14    9.88    8.74
   5 -12  13   21.42   13.74
   5 -12  12   50.64   15.44
   5 -12  11    1.22   10.35
   5 -12  10  238.32   26.50
   5 -12   9    6.73    9.17
   5 -12   8   76.71   16.22
   5 -12   7  212.29   23.26
   5 -12   6   67.36   19.63
   5 -12   5   20.57   10.65
   5 -12   4    9.32   12.44
   5 -12   3   -1.14    5.07
   5 -12   2    7.05    7.00
  -5  12  -1    5.85    1.28
   5 -12   1    7.72    5.97
  -5  12   0   99.58    7.66
   5 -12   0   86.31   15.03
   5 -12   0  112.66   13.09
  -5  12   1   35.79   11.99
   5 -12  -1   29.23    8.72
   5 -12  -1   28.00   10.23
  -5  12   2   71.64   13.04
   5 -12  -2   46.19    8.89
   5 -12  -2   55.21   18.60
  -5  12   3   12.64    3.75
   5 -12  -3    9.36    2.42
   5 -12  -3    9.36    3.42
  -5  12   3    6.67    2.83
  -5  12   4    3.90    3.51
   5 -12  -4    5.36    2.97
   5 -12  -4    8.94    3.70
  -5  12   4    1.35    1.69
  -5  12   5    4.71    3.65
   5 -12  -5    3.24    2.61
  -5  12   5    1.08    1.53
  -5  12   6    2.38    2.63
   5 -12  -6    3.95    2.92
  -5  12   6    3.62    2.19
  -5  12   7    2.91    3.14
   5 -12  -7    6.39    3.07
  -5  12   8    8.02    6.41
   5 -12  -8    7.74    2.31
  -5  12   9   12.77    7.56
   5 -12  -9   17.39    7.34
  -5  12  10   35.14   11.60
  -5  12  11   20.35    7.98
  -5  12  12   28.76   11.22
  -5  12  13    5.71    3.94
  -5  12  14    7.14    4.18
  -5  12  15   13.82    9.14
  -5  12  16   -0.22    4.18
  -5  12  17    4.24    4.24
   5 -11  21    7.47   14.65
   5 -11  20    8.83   11.01
   5 -11  19   -1.52   10.33
   5 -11  18   35.42   15.87
   5 -11  17    5.26    9.63
   5 -11  16   12.88    9.88
   5 -11  15   23.57   15.46
   5 -11  14   28.16   15.94
   5 -11  13   13.97   11.66
   5 -11  12   25.83   18.20
   5 -11  11   11.23   11.53
   5 -11  10   11.11    9.68
   5 -11   9    9.00    8.39
   5 -11   8    8.15    8.66
   5 -11   7   34.53   18.81
   5 -11   6   37.47   14.07
   5 -11   5   14.18    9.51
   5 -11   4   17.29   12.30
   5 -11   3   19.14   11.47
   5 -11   2    4.59    5.63
  -5  11  -1   18.48    6.21
  -5  11  -1   19.30    5.45
   5 -11   1   12.29    7.68
  -5  11   0    3.37    1.66
   5 -11   0    2.58    1.54
   5 -11   0   -0.14    4.09
  -5  11   1   17.02    5.11
   5 -11  -1    6.48    2.30
   5 -11  -1    7.84    5.05
  -5  11   1    5.23    2.11
  -5  11   2    6.26    2.09
   5 -11  -2    6.27    1.83
   5 -11  -2   14.36    6.19
  -5  11   2    1.76    1.77
  -5  11   3    3.88    3.11
   5 -11  -3    4.04    2.98
   5 -11  -3    3.19    4.56
  -5  11   3    1.07    1.55
  -5  11   4   12.35    5.23
   5 -11  -4    3.55    1.88
   5 -11  -4   10.26    3.90
  -5  11   4    4.99    2.16
  -5  11   5   11.53    3.39
   5 -11  -5    6.06    2.38
   5 -11  -5    4.63    2.54
  -5  11   5    4.39    2.03
  -5  11   6    6.76    3.77
   5 -11  -6    4.69    3.42
   5 -11  -6    6.21    2.63
  -5  11   6    5.55    2.29
  -5  11   7    6.63    4.42
   5 -11  -7   11.28    2.91
  -5  11   7    7.22    2.17
  -5  11   8   29.06    8.09
   5 -11  -8   37.32    7.65
  -5  11   8   27.21    5.63
  -5  11   9    4.60    3.80
   5 -11  -9    3.15    1.46
  -5  11   9    4.37    1.73
   5 -11 -10    4.05    1.44
  -5  11  11   26.87    6.97
  -5  11  12    7.67    3.98
  -5  11  13    0.22    3.55
  -5  11  14    3.99    5.68
  -5  11  15    4.77    4.28
  -5  11  16    5.95    4.42
  -5  11  17    7.42    6.00
  -5  11  18    4.56    4.70
   5 -10  21   12.09   10.85
   5 -10  20    5.79    9.88
   5 -10  19   -2.08    9.73
   5 -10  18    2.13    9.62
   5 -10  17    8.05   10.05
   5 -10  16    8.09   10.51
   5 -10  15   13.44   16.72
   5 -10  14   12.58   11.86
   5 -10  13   16.26   11.47
   5 -10  12    6.47   11.83
   5 -10  11    1.42   10.32
   5 -10  10   23.07   13.53
   5 -10   9   68.81   19.01
   5 -10   8   24.08   13.16
   5 -10   7   45.80   17.40
   5 -10   6   78.84   20.68
   5 -10   5   33.37   11.59
   5 -10   4   17.96   12.76
   5 -10   3  110.19   19.25
   5 -10   2    7.70    7.70
   5 -10   1  178.60   18.19
  -5  10   0   30.59    5.89
   5 -10   0   27.13    5.34
   5 -10   0   25.86    9.93
  -5  10   0   19.77    6.08
  -5  10   1  111.58   16.02
   5 -10  -1  137.63   14.29
  -5  10   1  108.38   16.59
  -5  10   2  117.70   17.08
   5 -10  -2  117.65   17.16
   5 -10  -2  135.68   13.28
  -5  10   2   99.42   15.24
  -5  10   3   60.08    4.77
   5 -10  -3   47.85   10.75
   5 -10  -3   61.34   11.82
  -5  10   3   46.97   10.68
  -5  10   4   14.27    3.23
   5 -10  -4   17.65    5.10
   5 -10  -4   13.80    4.43
  -5  10   4    7.78    2.31
  -5  10   5   11.36    3.98
   5 -10  -5    3.08    2.13
   5 -10  -5    5.62    2.16
  -5  10   5    3.69    1.85
  -5  10   6    4.62    2.54
   5 -10  -6    1.85    1.76
   5 -10  -6    5.24    2.45
  -5  10   6    2.75    1.64
  -5  10   7   37.45    8.23
   5 -10  -7   39.46    6.88
  -5  10   7   28.34    5.06
  -5  10   8    4.18    5.13
   5 -10  -8    4.41    1.71
  -5  10   8    2.08    1.20
  -5  10   9   69.88   15.29
   5 -10  -9   32.27    9.29
  -5  10  10   15.90    6.56
  -5  10  11   24.07    8.64
  -5  10  12   20.22    7.25
  -5  10  13   11.67    6.36
  -5  10  14    4.22    5.80
  -5  10  15    6.61    4.63
  -5  10  16    3.33    3.98
  -5  10  17    4.56    4.57
  -5  10  18   16.38    8.67
  -5  10  19   12.92    7.93
   5  -9  22   15.59   12.43
   5  -9  21   15.02   11.50
   5  -9  20    4.60   10.49
   5  -9  19   17.80   11.59
   5  -9  18   11.91   13.93
   5  -9  17   29.18   15.84
   5  -9  16    5.05   12.14
   5  -9  15  161.93   14.38
   5  -9  15  175.35   24.97
   5  -9  14    7.58   11.45
   5  -9  13  157.07   24.29
   5  -9  12   54.19   16.62
   5  -9  11    7.72   15.02
   5  -9  10   12.32   11.28
   5  -9   9   23.55   12.00
   5  -9   8   16.87   12.52
   5  -9   7   37.48   14.18
   5  -9   6   26.11    9.59
   5  -9   5  106.22   17.83
   5  -9   4   30.20   17.71
   5  -9   3  110.51   19.63
   5  -9   2  243.86   24.38
   5  -9   1   17.79    9.13
  -5   9  -1   12.81    3.28
  -5   9   0    6.96    1.48
   5  -9   0    7.78    1.75
  -5   9   0    9.13    3.44
  -5   9   1   17.68    4.74
   5  -9  -1   12.32    2.34
   5  -9  -1   17.75    9.19
  -5   9   1    9.41    2.67
  -5   9   2    0.89    1.34
   5  -9  -2    4.89    2.12
   5  -9  -2    2.61    4.58
  -5   9   2    5.13    2.38
  -5   9   3   55.60   10.66
   5  -9  -3   47.86   10.06
   5  -9  -3   39.29    9.68
  -5   9   3   39.31    8.62
  -5   9   4    9.43    2.91
   5  -9  -4    4.82    2.05
   5  -9  -4    3.13    2.36
  -5   9   4    6.22    2.49
  -5   9   5    0.43    2.08
   5  -9  -5    3.20    2.89
   5  -9  -5    1.75    2.13
  -5   9   5    1.78    1.80
  -5   9   6   83.48   13.19
   5  -9  -6   51.03   11.75
   5  -9  -6   64.47    9.85
  -5   9   6   60.42    9.27
  -5   9   7   47.75   11.84
   5  -9  -7   13.45    3.34
   5  -9  -7   35.78    7.99
  -5   9   8  143.31    9.85
   5  -9  -8  115.09    4.84
  -5   9   9    7.90    3.48
  -5   9  10   68.63   13.70
  -5   9  11  137.56   15.12
  -5   9  12   27.18    8.55
  -5   9  13   34.02   12.04
  -5   9  14    8.09    5.77
  -5   9  15   -0.27    4.08
  -5   9  16    5.46    4.46
  -5   9  17   14.20    8.82
  -5   9  18    4.48    5.21
  -5   9  19   14.47    9.33
  -5   9  20   11.19    7.24
   5  -8  23   11.35   10.35
   5  -8  22    6.31    9.76
   5  -8  21    1.25    9.56
   5  -8  20    7.10    8.86
   5  -8  19    3.50    2.30
   5  -8  19   -2.94    9.37
   5  -8  18    2.70    1.87
   5  -8  18   15.35    9.66
   5  -8  17   13.11    6.42
   5  -8  17   19.36   14.18
   5  -8  16   56.70   11.55
   5  -8  16   38.76   14.65
   5  -8  15   21.39    8.93
  -5   8 -15   22.82    9.32
   5  -8  15   35.75   18.42
   5  -8  14  180.44   15.75
  -5   8 -14  165.44   12.13
   5  -8  14  187.05   24.28
   5  -8  13   37.37   16.29
   5  -8  12   14.46   16.41
   5  -8  11    9.59   10.58
   5  -8  10   54.95   20.60
   5  -8   9    5.52   16.71
   5  -8   8   16.59   17.29
   5  -8   7    6.75   12.34
   5  -8   6   62.87   19.19
   5  -8   5   11.99    9.56
   5  -8   4  148.64   16.95
   5  -8   3  327.75   25.22
   5  -8   2  165.91   20.27
  -5   8  -2  128.08   12.03
   5  -8   1   20.11    4.67
   5  -8   1   39.05   13.95
  -5   8  -1   23.36    6.89
  -5   8   0  121.95    9.57
   5  -8   0  136.82   10.71
   5  -8   0  140.63   16.14
  -5   8   0  123.85   11.28
  -5   8   1   55.48   10.64
   5  -8  -1   57.68   11.09
   5  -8  -1   27.44    9.02
  -5   8   1   51.37   10.33
  -5   8   2    1.20    1.37
   5  -8  -2    2.16    1.84
   5  -8  -2    6.55    6.44
  -5   8   2    3.01    2.21
  -5   8   3   20.03    5.52
   5  -8  -3    6.22    1.92
   5  -8  -3    6.99    5.30
  -5   8   3   10.14    2.37
  -5   8   4  103.92   10.30
   5  -8  -4  110.10   10.51
   5  -8  -4  103.79   10.52
  -5   8   5    9.05    4.13
   5  -8  -5    2.07    3.12
   5  -8  -5    5.81    2.74
  -5   8   6   68.12   13.26
   5  -8  -6   55.45   10.62
   5  -8  -6   58.23   13.99
  -5   8   7   16.49    6.39
   5  -8  -7    9.95    4.59
   5  -8  -7    9.67    1.83
  -5   8   8   34.81    9.12
  -5   8   9  238.58   12.04
  -5   8  10    4.72    5.01
  -5   8  11    9.67    6.22
  -5   8  12   17.34   10.30
  -5   8  13   24.28    7.60
  -5   8  14   29.60   10.85
  -5   8  15   14.56    8.85
  -5   8  16   19.74    9.67
  -5   8  17    8.69    7.34
  -5   8  18    5.68    5.07
  -5   8  19   11.19    4.98
  -5   8  20   13.21    8.59
  -5   8  21   10.44    6.86
   5  -7  23   23.57   13.87
   5  -7  22   17.04   11.18
   5  -7  21    7.01    3.33
   5  -7  21   -3.54    9.26
   5  -7  20    7.12    3.62
   5  -7  20    6.32    8.97
   5  -7  19    2.10    2.80
   5  -7  19   -3.04    8.94
   5  -7  18    0.93    2.11
   5  -7  18   -0.66    8.87
   5  -7  17    3.16    1.77
   5  -7  17   -1.15   10.78
   5  -7  16    6.81    2.88
  -5   7 -16    3.97    2.44
   5  -7  16    7.63   12.06
   5  -7  15   16.24    5.40
  -5   7 -15   19.27    8.05
   5  -7  15   15.57   12.97
   5  -7  14   33.97    9.85
  -5   7 -14   39.09   11.05
   5  -7  14   40.02   19.97
   5  -7  13    7.42    1.38
   5  -7  13   12.99   11.75
  -5   7 -12    5.21    0.69
   5  -7  12    8.23   11.15
   5  -7  11    8.29   11.77
   5  -7  10   15.49   12.20
   5  -7   9   14.34   11.69
   5  -7   8   10.24   11.77
   5  -7   7   17.41   16.54
   5  -7   6   29.61   15.24
   5  -7   5  121.82   16.23
   5  -7   4   93.83   19.80
   5  -7   3  162.92   20.13
   5  -7   2   13.67   12.25
   5  -7   1    8.50    7.77
  -5   7   0   47.23    8.10
   5  -7   0   45.79    7.79
   5  -7   0   38.42   10.40
  -5   7   1    4.00    2.02
   5  -7  -1    6.44    2.20
   5  -7  -1   -3.08    6.55
  -5   7   2    2.11    1.47
   5  -7  -2    4.47    3.10
   5  -7  -2    9.28    7.34
  -5   7   3   35.31    6.89
   5  -7  -3   31.38    4.30
   5  -7  -3   31.11   10.86
  -5   7   4    2.55    2.11
   5  -7  -4    2.02    2.40
   5  -7  -4    0.11    3.10
  -5   7   5   29.29    7.06
   5  -7  -5   36.87    8.34
   5  -7  -5   43.61    9.09
  -5   7   6   71.35   14.75
   5  -7  -6   56.22   11.70
   5  -7  -6   45.74   14.21
   5  -7  -6   61.47   13.82
  -5   7   7   98.33   12.65
   5  -7  -7   95.17   12.50
   5  -7  -7   93.44    9.85
  -5   7   8    0.83    3.11
   5  -7  -8    3.05    4.12
  -5   7   9   10.69    3.42
  -5   7  10   36.79   10.03
  -5   7  11    3.72    5.80
  -5   7  12   10.03    5.65
  -5   7  13    7.27    5.27
  -5   7  14   17.39    9.99
  -5   7  15   18.30    8.14
  -5   7  16   14.77    9.26
  -5   7  17    4.01    5.19
  -5   7  18   11.74    4.96
  -5   7  19    5.44    5.97
  -5   7  20   14.66    8.03
  -5   7  21    3.52    4.63
  -5   7  22    2.29    4.60
   5  -6  24   -0.98    9.89
   5  -6  23    2.34    2.63
   5  -6  23    4.93   13.61
   5  -6  22    9.10    4.20
   5  -6  22    3.80   13.81
   5  -6  21    8.83    3.71
   5  -6  21   11.82    9.25
   5  -6  20   92.59   10.30
   5  -6  20   80.58   20.74
   5  -6  19   12.78    4.01
   5  -6  19   20.73   14.62
   5  -6  18    9.42    2.85
   5  -6  18   19.76   17.15
   5  -6  17    5.89    2.32
   5  -6  17   -0.47   10.69
   5  -6  16    6.70    3.20
  -5   6 -16   -0.02    1.39
   5  -6  16   11.13   10.71
   5  -6  15    8.32    2.77
  -5   6 -15    2.52    1.88
   5  -6  15   27.01   15.05
   5  -6  14   21.61    6.68
  -5   6 -14   11.95    3.31
   5  -6  14    4.92   10.91
   5  -6  13   63.52    9.74
  -5   6 -13   66.47    9.92
   5  -6  13   27.41   10.27
   5  -6  12    3.87    1.43
  -5   6 -12    3.26    1.31
   5  -6  12   18.02   16.61
   5  -6  11  185.09   13.24
  -5   6 -11  175.15   12.47
   5  -6  11  181.25   20.41
   5  -6  10  189.07   22.45
   5  -6   9   32.08   17.44
   5  -6   8   31.08   19.70
   5  -6   7   18.42    9.44
   5  -6   6   42.92   15.25
   5  -6   5   22.01   13.17
   5  -6   4  116.88   20.04
   5  -6   3   20.48   12.54
   5  -6   2   13.63   11.67
   5  -6   1    3.15    1.13
   5  -6   1   11.57    7.14
  -5   6   0   14.11    2.35
   5  -6   0    6.62    1.58
   5  -6   0   14.99    6.80
  -5   6   1  274.72   18.56
   5  -6  -1  302.16   20.26
   5  -6  -1  277.68   21.46
  -5   6   2   76.62    9.11
   5  -6  -2   72.61    8.85
   5  -6  -2   96.71   12.67
  -5   6   3  510.86   16.62
   5  -6  -3  539.72   17.18
   5  -6  -3  520.81   17.72
  -5   6   4   65.71    8.30
   5  -6  -4   70.75    9.57
   5  -6  -4  127.95   22.80
   5  -6  -4   63.91    8.96
  -5   6   5  578.39   19.91
   5  -6  -5  557.58   18.46
   5  -6  -5  580.77   17.54
   5  -6  -5  560.41   16.49
  -5   6   6  675.31   38.76
   5  -6  -6  600.85   34.41
   5  -6  -6  651.39   35.41
   5  -6  -6  650.72   35.05
  -5   6   7   45.62   11.16
   5  -6  -7   27.37    7.39
  -5   6   8  233.37   19.67
   5  -6  -8  188.48   16.55
  -5   6   9   47.64   11.80
  -5   6  10   25.91    7.54
  -5   6  11   15.93    6.70
  -5   6  12    4.32    5.12
  -5   6  13    3.22    3.75
  -5   6  14    3.60    4.38
  -5   6  16   28.82   11.70
  -5   6  17   37.68   13.52
  -5   6  18   29.84   10.31
  -5   6  19    6.27    4.52
  -5   6  20    7.45    4.61
  -5   6  21    7.51    5.15
  -5   6  22    5.40    6.83
   5  -5  24    3.20    4.23
   5  -5  24    8.85    9.58
   5  -5  23   14.07    5.95
   5  -5  23   10.77   10.72
   5  -5  22   11.81    9.69
   5  -5  21   28.74    8.58
   5  -5  21   21.50   12.19
   5  -5  20   35.95   11.36
   5  -5  20   23.34   13.69
   5  -5  19   13.90   10.74
   5  -5  18   58.25   12.59
   5  -5  18   50.80   17.63
   5  -5  17   11.23    3.70
  -5   5 -17   10.09    3.56
   5  -5  17   23.68   13.32
   5  -5  16   50.35   10.64
  -5   5 -16   39.51    8.33
   5  -5  16   69.30   21.81
   5  -5  15    3.10    2.64
  -5   5 -15    5.98    1.92
   5  -5  15   16.41   10.98
   5  -5  14    4.49    2.36
  -5   5 -14    1.45    1.54
   5  -5  14    6.67    9.72
   5  -5  13   37.67    8.68
  -5   5 -13   22.15    4.60
   5  -5  13   28.35   11.35
   5  -5  12    2.50    1.84
  -5   5 -12   11.00    2.28
   5  -5  12    5.78   10.71
   5  -5  11  372.88   26.29
  -5   5 -11  366.63   25.78
   5  -5  11  386.89   33.91
   5  -5  10  280.87   15.92
  -5   5 -10  281.58   15.99
   5  -5  10  286.78   22.60
   5  -5   9  522.81   28.16
   5  -5   9  502.00   27.02
   5  -5   9  567.22   37.28
   5  -5   8  186.09   19.73
   5  -5   7    4.99   10.09
   5  -5   6  717.30   27.14
   5  -5   5   22.80   14.99
   5  -5   4   25.07   11.82
   5  -5   3   30.29   11.40
   5  -5   2    9.80    1.17
   5  -5   2   15.64    7.00
   5  -5   1   37.98    9.44
   5  -5   1   34.67    9.46
  -5   5   0   21.90    5.37
   5  -5   0   14.27    2.37
   5  -5   0   18.33    5.85
  -5   5   1  144.73    9.31
   5  -5  -1  142.12    9.30
   5  -5  -1  141.61   11.81
  -5   5   2  125.33    8.58
   5  -5  -2  129.81    9.02
   5  -5  -2  128.06   10.78
  -5   5   3    6.21    3.01
   5  -5  -3    9.86    4.39
   5  -5  -3    6.28    2.55
   5  -5  -3    4.23    4.16
  -5   5   4    4.80    2.65
   5  -5  -4    2.87    3.27
   5  -5  -4    3.33    2.19
   5  -5  -4   -0.53    3.34
  -5   5   5   66.27    8.93
   5  -5  -5   39.58    7.78
   5  -5  -5   41.07   12.42
   5  -5  -5   52.44    9.69
  -5   5   6   12.52    4.41
   5  -5  -6    8.97    3.94
   5  -5  -6   11.84    3.50
   5  -5  -6    7.81    1.41
  -5   5   7  165.87   14.72
   5  -5  -7  127.75   12.67
  -5   5   8   46.48   11.00
   5  -5  -8   15.34    5.98
  -5   5   9   24.45    6.21
  -5   5  10    8.33    3.96
  -5   5  11    8.58    4.18
  -5   5  12   10.11    6.46
  -5   5  13    5.16    3.81
  -5   5  14    5.18    4.07
  -5   5  15   60.23   16.02
  -5   5  16   15.42    8.22
  -5   5  17   77.33   13.52
  -5   5  18    6.24    4.75
  -5   5  19   19.49    8.99
  -5   5  20    8.64    6.64
   5  -4  24    4.89    3.04
   5  -4  24   27.92   15.14
   5  -4  23    3.99    4.14
   5  -4  23    3.84    9.43
   5  -4  22    0.40    2.87
   5  -4  22   13.95   14.53
   5  -4  21   14.81    6.65
   5  -4  21    9.66    9.79
   5  -4  20   15.43    5.41
   5  -4  20   11.52    8.65
   5  -4  19    4.11    4.67
   5  -4  19   31.89   17.09
   5  -4  18    3.32    2.80
   5  -4  18    5.30    9.97
   5  -4  17    9.00    3.85
   5  -4  17   16.81   12.34
   5  -4  16    1.64    2.76
  -5   4 -16    3.48    3.20
   5  -4  16    3.71    9.66
   5  -4  15   58.57   15.33
  -5   4 -15   48.29    8.05
   5  -4  15   61.05   16.74
   5  -4  14   14.28    5.41
  -5   4 -14    9.23    2.28
   5  -4  14    9.44    9.43
   5  -4  13    5.69    2.70
  -5   4 -13    6.99    2.19
   5  -4  13   11.84    9.45
   5  -4  12    7.18    3.48
  -5   4 -12    4.12    2.20
   5  -4  12   18.48   10.74
   5  -4  11  120.65   13.76
  -5   4 -11  102.73   11.40
   5  -4  11  131.10   20.35
   5  -4  10   49.59   10.21
  -5   4 -10   49.19    9.53
   5  -4  10   48.78   14.81
   5  -4   9  292.97    9.84
  -5   4  -9  291.86    9.77
   5  -4   9  311.27   19.30
   5  -4   8  126.87    9.86
   5  -4   8  129.96   10.29
   5  -4   8  155.88   19.84
   5  -4   7   22.16    5.97
   5  -4   7   31.86    3.19
   5  -4   7   36.10   13.02
   5  -4   6   37.64    8.03
   5  -4   6   42.19    9.09
   5  -4   6   34.20   10.02
   5  -4   5   35.06    7.43
   5  -4   5   27.12    7.03
   5  -4   5   35.89   11.60
   5  -4   4    1.88    1.04
   5  -4   4    3.75    1.16
   5  -4   4   11.02    8.98
   5  -4   3   60.73    6.99
   5  -4   3   62.06    7.07
   5  -4   3   40.85   10.17
   5  -4   2    4.36    2.50
   5  -4   2    5.55    1.88
   5  -4   2   10.15    7.29
   5  -4   2    3.95    7.42
   5  -4   1   -0.02    1.54
   5  -4   1    4.61    2.49
   5  -4   1    2.00    3.06
   5  -4   1    2.80    4.90
  -5   4   0  220.58   14.82
   5  -4   0  207.79   13.92
   5  -4   0  209.36   15.70
  -5   4   1  104.44    5.19
   5  -4  -1   97.63   11.49
   5  -4  -1  115.08   19.75
   5  -4  -1  116.54   11.23
  -5   4   2   91.53   11.05
   5  -4  -2   81.77   10.00
   5  -4  -2  100.57   12.43
   5  -4  -2   99.16   13.59
  -5   4   3   41.61    9.80
   5  -4  -3   42.07   10.45
   5  -4  -3   33.90   12.64
   5  -4  -3   34.53    8.82
  -5   4   4   73.24    9.64
   5  -4  -4   66.55    9.66
   5  -4  -4   61.58   10.14
   5  -4  -4   76.39   10.26
  -5   4   5  515.82   15.21
   5  -4  -5  478.34   14.06
   5  -4  -5  519.63   11.98
   5  -4  -5  533.18   12.93
  -5   4   6   36.40    8.96
   5  -4  -6   33.76    8.96
   5  -4  -6   42.47    9.12
   5  -4  -6   31.42    7.08
  -5   4   7   49.27    9.46
   5  -4  -7   45.64    9.93
  -5   4   8    1.52    2.83
   5  -4  -8    1.43    3.36
  -5   4   9    8.03    4.84
  -5   4  10   96.72   12.96
  -5   4  11  116.16   15.17
  -5   4  12   12.29    5.82
  -5   4  13    8.54    4.31
  -5   4  14    8.04    5.88
  -5   4  15    5.70    6.09
  -5   4  16   13.21    7.89
  -5   4  20    8.47    6.45
  -5   4  21   19.84   12.35
  -5   4  22    4.04    5.47
  -5   4  23   18.49   11.77
   5  -3  24    5.10    5.52
   5  -3  24   26.57   12.68
   5  -3  23    7.02    3.81
   5  -3  23   16.34   14.80
   5  -3  22   12.51    5.45
   5  -3  22    4.20    9.28
   5  -3  21   22.92    8.87
   5  -3  21   26.50   12.28
   5  -3  20    6.75    4.87
   5  -3  19   25.86    6.33
   5  -3  19   23.19   10.44
   5  -3  18    7.61    3.51
   5  -3  18   16.23   10.49
   5  -3  17   12.74    5.91
   5  -3  17   12.50   10.06
   5  -3  16    9.50    4.63
  -5   3 -16    9.67    3.13
   5  -3  16   21.69   14.10
   5  -3  15    7.92    5.22
  -5   3 -15    3.86    2.34
   5  -3  15   -4.02    8.21
   5  -3  14   46.20   11.72
  -5   3 -14   45.30   10.24
   5  -3  14   52.91   15.20
   5  -3  13    6.43    5.09
  -5   3 -13    6.59    3.14
   5  -3  13    5.14    7.46
   5  -3  12    6.77    5.78
  -5   3 -12    2.51    1.08
   5  -3  12   12.10   10.51
   5  -3  11  121.99   11.57
  -5   3 -11  115.73   10.67
   5  -3  11  117.05   12.14
   5  -3  10    3.28    4.02
  -5   3 -10    5.15    1.69
   5  -3  10    8.20    7.74
   5  -3   9  141.84   12.17
  -5   3  -9  136.70   10.89
   5  -3   9  180.77   19.14
   5  -3   8   13.51    4.82
  -5   3  -8    5.39    1.81
   5  -3   8    1.21    7.37
   5  -3   7  204.37   14.07
   5  -3   7  209.44   14.65
   5  -3   7  218.95   19.00
   5  -3   6  238.33   16.07
   5  -3   6  242.29   16.19
   5  -3   6  398.80   81.21
   5  -3   6  248.07   20.56
   5  -3   5  100.50    6.45
   5  -3   5  104.08    6.67
   5  -3   5  165.69   44.17
   5  -3   5   94.67   11.92
   5  -3   4  168.27   11.15
   5  -3   4  173.60   11.38
   5  -3   4  328.71   77.91
   5  -3   4  180.63   15.31
   5  -3   3    3.03    1.62
   5  -3   3    2.35    1.67
   5  -3   3    4.80    2.07
   5  -3   3   12.03    5.79
   5  -3   2  196.88   13.01
   5  -3   2  198.31   13.19
   5  -3   2  214.69   16.11
   5  -3   2  174.01   15.02
   5  -3   1  187.88   12.54
   5  -3   1  200.59   13.53
   5  -3   1  219.82   19.41
   5  -3   1  187.34   14.55
  -5   3   0  134.13   12.18
   5  -3   0  130.16    9.39
   5  -3   0  128.41   25.60
   5  -3   0  112.37   10.14
  -5   3   1  107.96    5.81
   5  -3  -1  106.44    5.19
   5  -3  -1  122.14   23.55
   5  -3  -1  110.45    9.69
  -5   3   2   10.85    4.50
   5  -3  -2    9.24    3.73
   5  -3  -2    5.20    2.98
   5  -3  -2    6.52    2.66
  -5   3   3  190.70   13.95
   5  -3  -3  190.53   13.47
   5  -3  -3  183.00   12.72
   5  -3  -3  204.67   14.45
  -5   3   4   48.37    9.32
   5  -3  -4   45.60    8.39
   5  -3  -4   46.13   14.76
   5  -3  -4   61.98    8.42
  -5   3   5    9.92    4.65
   5  -3  -5   11.11    5.18
   5  -3  -5    2.20    1.32
   5  -3  -5    6.64    3.66
  -5   3   6   32.36    8.16
   5  -3  -6   41.66   10.58
   5  -3  -6   31.44    8.22
   5  -3  -6   33.23    7.82
  -5   3   7    5.66    2.66
   5  -3  -7    5.38    3.47
  -5   3   8   42.55    8.90
   5  -3  -8   26.49    8.41
  -5   3   9   42.93    9.18
  -5   3  10   51.32   12.19
  -5   3  11   65.15   14.26
  -5   3  12   67.46   13.82
  -5   3  16   23.76    7.76
  -5   3  17    5.29    5.73
  -5   3  18    3.91    4.24
  -5   3  19    4.89    4.71
  -5   3  20   15.62    6.51
  -5   3  21    7.85    9.24
  -5   3  22    1.52    5.61
  -5   3  23    7.45    7.68
  -5   3  24   16.19    8.96
   5  -2  24   13.35    6.05
   5  -2  23   18.82    5.56
   5  -2  23   18.52    9.48
   5  -2  22    6.73    4.14
   5  -2  22   11.80    9.04
   5  -2  21   14.21    7.53
   5  -2  21   40.22   15.38
   5  -2  20   15.59    6.31
   5  -2  20   10.16    9.28
   5  -2  19    6.84    5.81
   5  -2  19   18.35   14.29
   5  -2  18   34.02   11.16
   5  -2  18   44.29   12.86
   5  -2  17   23.21    6.82
   5  -2  17   13.30    8.22
   5  -2  16  126.80   13.06
   5  -2  16  141.77   18.58
   5  -2  15   18.11    8.31
  -5   2 -15    6.18    2.38
   5  -2  15    4.84    6.68
   5  -2  14   25.61   10.49
  -5   2 -14    9.12    3.21
   5  -2  14   19.31    8.88
   5  -2  13   39.17   10.45
  -5   2 -13   49.28   10.39
   5  -2  13   64.72   15.18
   5  -2  12   12.39    4.12
  -5   2 -12   21.08    6.17
   5  -2  12   10.40    7.15
   5  -2  11    3.85    3.57
  -5   2 -11    3.10    2.49
   5  -2  11    1.58    6.68
   5  -2  10   93.80   14.98
  -5   2 -10   91.67   10.10
   5  -2  10   97.66   14.44
   5  -2   9   20.22    7.23
  -5   2  -9   30.56    8.68
   5  -2   9   25.69   11.87
   5  -2   8   82.05   10.48
  -5   2  -8   83.44    9.95
   5  -2   8   87.74   16.08
   5  -2   7    6.11    3.37
  -5   2  -7    5.48    2.02
   5  -2   7    7.11    5.78
   5  -2   6  190.02   13.48
   5  -2   6  195.45   13.69
   5  -2   6  185.96   29.14
   5  -2   6  208.35   17.44
   5  -2   5    3.72    2.75
   5  -2   5    7.42    2.19
   5  -2   5    9.48    5.64
   5  -2   5    5.08    6.05
   5  -2   4   76.24    9.01
   5  -2   4   90.32   10.49
   5  -2   4   84.83   26.12
   5  -2   4  100.60   14.82
   5  -2   3    4.09    1.71
   5  -2   3   10.86    2.81
   5  -2   3    4.12    2.80
   5  -2   3   14.31    5.32
   5  -2   2    3.31    2.46
   5  -2   2    0.09    2.23
   5  -2   2    3.42    2.50
   5  -2   2   25.28    7.68
   5  -2   1  102.74   12.66
   5  -2   1   97.44   12.33
   5  -2   1   69.37   20.06
   5  -2   1   90.90   12.39
  -5   2   0  122.89   19.23
   5  -2   0  112.79   14.16
   5  -2   0  106.57   15.54
   5  -2   0  110.68   14.56
  -5   2   1   42.74   11.40
   5  -2  -1   36.72    6.16
   5  -2  -1   30.13   12.43
   5  -2  -1   17.79    4.08
  -5   2   2   54.01    7.98
   5  -2  -2   55.13    7.60
   5  -2  -2   43.13   14.86
   5  -2  -2   48.39    8.83
  -5   2   3   75.91    9.82
   5  -2  -3   87.37   11.01
   5  -2  -3   61.04   12.49
   5  -2  -3   71.33    8.93
  -5   2   4   27.07    5.70
   5  -2  -4   28.01    6.54
   5  -2  -4   26.27    4.99
   5  -2  -4   33.33    6.43
  -5   2   5    3.04    3.15
   5  -2  -5    7.13    3.65
   5  -2  -5    4.80    2.21
   5  -2  -5    5.37    2.62
  -5   2   6    2.93    3.08
   5  -2  -6    3.60    4.22
   5  -2  -6    1.68    1.11
   5  -2  -6    1.05    1.69
  -5   2   7   43.44    6.58
   5  -2  -7   31.95    8.14
   5  -2  -7   34.65    8.75
   5  -2  -7   32.78    7.34
  -5   2   8   77.29   11.75
   5  -2  -8   45.94    9.00
  -5   2   9  702.04   25.25
  -5   2  13   30.18    8.69
  -5   2  14   44.71   11.63
  -5   2  15    3.58    4.36
  -5   2  16    3.78    4.39
  -5   2  17    2.11    3.92
  -5   2  18   10.73    7.38
  -5   2  19   14.04    7.93
  -5   2  20   12.07    7.65
  -5   2  21   45.22   15.32
  -5   2  22   52.69   14.55
  -5   2  23   14.66    8.52
  -5   2  24    6.81    5.39
   5  -1  24    5.99    4.21
   5  -1  23    6.43    5.86
   5  -1  23   20.60   12.44
   5  -1  22   15.72    8.46
   5  -1  22   12.80   12.65
   5  -1  21    0.56    4.66
   5  -1  21   16.42   10.23
   5  -1  20    7.41    5.17
   5  -1  20   11.01    8.23
   5  -1  19    9.07    5.35
   5  -1  19   20.64   12.73
   5  -1  18    6.04    4.94
   5  -1  18   10.91    8.75
   5  -1  17   19.73    9.82
   5  -1  17   21.64   11.66
   5  -1  16   15.09    7.46
   5  -1  16   17.39    7.84
   5  -1  15   52.03   12.35
   5  -1  15   50.67   12.05
   5  -1  14   27.57    8.46
  -5   1 -14   17.39    5.53
   5  -1  14   29.13    9.88
   5  -1  13   53.21   11.25
  -5   1 -13   61.50   11.75
   5  -1  13   51.69   12.29
   5  -1  12   88.74   12.08
  -5   1 -12   76.16   13.83
   5  -1  12  121.74   18.41
   5  -1  11   12.36    7.62
  -5   1 -11    0.73    2.10
   5  -1  11    2.50    6.02
   5  -1  10    9.00    5.01
  -5   1 -10   10.93    3.23
   5  -1  10   14.82    7.09
   5  -1   9   79.50   11.62
  -5   1  -9   48.12    8.89
   5  -1   9   48.53   13.00
   5  -1   8    4.97    3.59
  -5   1  -8    5.43    2.50
   5  -1   8    9.61    5.84
   5  -1   7   61.68    7.92
  -5   1  -7   69.78    8.65
   5  -1   7   72.22   11.80
   5  -1   6  132.68    9.83
   5  -1   6  139.68   23.68
   5  -1   6  158.12   14.76
   5  -1   5  330.59   14.86
   5  -1   5  335.76   13.21
   5  -1   5  342.58   17.43
   5  -1   4   76.58   10.71
   5  -1   4   92.21   10.88
   5  -1   4   74.92   16.08
   5  -1   3  429.65   16.39
   5  -1   3  396.62   15.27
   5  -1   3  387.60   17.01
   5  -1   2  664.21   20.22
   5  -1   2  630.33   19.35
   5  -1   2  649.94   21.64
   5  -1   1    1.02    2.28
   5  -1   1    1.37    3.98
   5  -1   1    3.24    2.20
   5  -1   0   42.39    6.92
   5  -1   0   21.84    8.89
  -5   1   1    9.12    3.80
   5  -1  -1    8.05    3.30
   5  -1  -1    5.39    2.53
  -5   1   2  236.32   13.96
   5  -1  -2  239.34   13.66
   5  -1  -2  209.57   12.13
  -5   1   3  276.30   19.06
   5  -1  -3  270.76   18.33
   5  -1  -3  249.94   16.82
  -5   1   4  185.72   14.22
   5  -1  -4  186.63   14.21
   5  -1  -4  177.86   12.24
  -5   1   5  175.45   13.83
   5  -1  -5  191.48   14.06
   5  -1  -5  192.04   12.91
  -5   1   6   49.81    8.57
   5  -1  -6   30.10    7.44
   5  -1  -6   34.58    7.62
  -5   1   7   20.01    4.21
   5  -1  -7   12.17    4.78
   5  -1  -7   18.00    3.40
   5  -1  -8    3.19    3.08
   5  -1  -8    5.29    2.13
   5  -1  -9    5.15    2.03
  -5   1  11    1.11    4.56
  -5   1  12   38.75   11.81
  -5   1  13  116.14   16.51
  -5   1  14   23.76    8.06
  -5   1  15   72.98   13.99
  -5   1  16   13.62    7.46
  -5   1  17    8.87    4.48
  -5   1  18    8.60    4.97
  -5   1  19    9.44    4.26
  -5   1  20   12.90    5.92
  -5   1  21   24.65   10.82
  -5   1  22   -0.82    4.77
  -5   1  23   21.98    7.32
  -5   1  24   16.93    8.69
   5   0  24    9.72    6.76
   5   0  24    9.25    8.43
   5   0  23    0.68    4.65
   5   0  22    8.73    4.89
   5   0  22    3.38    6.33
   5   0  21   -0.59    4.70
   5   0  21    4.96    6.19
   5   0  20   11.25    7.04
   5   0  20   10.59    8.65
   5   0  19   -1.31    5.63
   5   0  19    7.99    8.85
   5   0  18    3.61    5.50
   5   0  18    9.42    6.25
   5   0  17   20.91   11.88
   5   0  17   32.51   10.88
   5   0  16   14.80   10.16
   5   0  16   14.77    9.56
   5   0  15   20.22    9.58
   5   0  15   14.82    6.97
   5   0  14    3.30    7.32
   5   0  14    5.82    7.51
   5   0  13   96.75   14.17
  -5   0 -13   70.91   13.16
   5   0  13   71.67   15.18
  -5   0 -12   71.19   13.33
   5   0  12  102.82   17.01
   5   0  11    5.66    4.04
  -5   0 -11   11.43    3.33
   5   0  11   25.44    9.06
   5   0  10    4.41    3.90
  -5   0 -10    2.28    2.44
   5   0  10    3.77    8.44
   5   0   9   47.23    9.95
  -5   0  -9   52.93   10.20
   5   0   8   37.11    9.04
  -5   0  -8   43.57    4.68
   5   0   7  140.16    9.98
  -5   0  -7  132.77    9.60
   5   0   6    5.39    3.62
  -5   0  -6    4.80    2.85
   5   0   5    7.18    2.98
   5   0   5    3.50    2.44
   5   0   5    6.41    4.01
   5   0   4   12.03    5.64
   5   0   4   17.82    4.53
   5   0   4    7.36    3.78
   5   0   3    1.36    2.23
   5   0   3    4.05    2.51
   5   0   3    8.60    4.60
   5   0   2   42.30    6.97
   5   0   2   37.61    6.95
   5   0   2   33.54    9.45
   5   0   1  118.83   14.86
   5   0   1  121.58   15.46
   5   0   1  107.42   23.16
   5   0   0    5.19    3.89
   5   0   0    1.92    2.82
   5   0   0    3.28    3.06
  -5   0   1  122.56   25.85
   5   0  -1  114.44   14.88
   5   0  -1  107.55   13.72
  -5   0   2   59.66   16.46
   5   0  -2   47.79    8.13
  -5   0   2   11.64    6.40
   5   0  -2   40.71    6.96
  -5   0   3    2.53    3.31
   5   0  -3    2.78    1.70
  -5   0   3    7.07    5.55
   5   0  -3    9.53    3.60
  -5   0   4   23.13    6.51
   5   0  -4    9.55    2.74
  -5   0   4    2.90    2.59
   5   0  -4   11.80    2.79
   5   0  -5   13.60    3.74
  -5   0   5    4.06    2.57
   5   0  -5    5.25    1.66
   5   0  -6    0.07    2.90
  -5   0   6    4.95    2.30
   5   0  -6    2.33    1.85
  -5   0   8   37.01   10.22
   5   0  -8   31.05    8.22
  -5   0   8    3.20    1.67
   5   0  -8   28.74    6.54
  -5   0   9    1.83    1.63
  -5   0  10    3.87    4.17
  -5   0  10    0.60    0.82
   5   0 -10    4.84    2.40
  -5   0  11    5.08    4.82
   5   0 -11    6.38    2.22
  -5   0  12   81.76    8.98
   5   0 -12   82.24    8.84
  -5   0  13  101.45   14.58
  -5   0  14    5.75    5.92
  -5   0  14    4.20    0.95
  -5   0  15   20.13    8.39
  -5   0  16    4.43    6.10
  -5   0  17   29.59    9.23
  -5   0  18    4.09    4.65
  -5   0  19    7.22    5.34
  -5   0  20   12.03    5.78
  -5   0  21    2.99    4.77
  -5   0  22    5.67    5.03
  -5   0  23    6.85    4.75
  -5   0  24   19.11    9.74
   5   1  24    9.80    7.00
   5   1  24   10.13    6.75
   5   1  23   11.30    7.30
   5   1  23    6.11    6.49
   5   1  22   10.52    5.24
   5   1  21   10.48    7.68
   5   1  21   28.55   11.96
   5   1  20   19.33    9.56
   5   1  20   17.18    8.59
   5   1  19   13.80    9.54
   5   1  19   19.52   11.05
   5   1  18    7.34    6.14
   5   1  18   20.30    9.36
   5   1  17   21.03   13.22
   5   1  17    3.58    5.75
   5   1  16    2.25    5.87
   5   1  16   16.74    9.25
   5   1  15   45.56   10.10
   5   1  15   50.06   11.86
   5   1  14   13.29    6.02
   5   1  14   17.78    7.25
   5   1  13  113.90   17.22
   5   1  13  156.45   18.60
   5   1  12   29.42   10.33
  -5  -1 -12   14.52    3.99
   5   1  11    0.77    4.59
  -5  -1 -11    1.76    2.35
   5   1  10   99.29   10.87
  -5  -1 -10   86.28    9.14
   5   1   9    3.48    3.91
  -5  -1  -9    1.69    3.08
   5   1   8   10.01    4.66
  -5  -1  -8    7.04    4.13
   5   1   7   22.08    6.12
  -5  -1  -7   33.65    8.44
   5   1   6   41.44    9.87
  -5  -1  -6   39.64    9.94
   5   1   5  183.21   13.39
   5   1   5  156.72   26.36
   5   1   4  207.68   23.31
   5   1   4  193.52   14.04
   5   1   4  166.38   13.32
   5   1   3  282.46   10.00
   5   1   3  292.62   10.12
   5   1   3  279.43   12.84
   5   1   2  241.38   14.78
   5   1   2  235.56   13.90
   5   1   2  228.12   34.92
   5   1   1   11.17    2.91
   5   1   1    9.00    4.07
  -5  -1  -1    8.10    7.56
   5   1   1    4.02    2.78
   5   1   0   31.24    6.00
   5   1   0   38.15    7.20
   5   1   0   22.65    4.47
   5   1  -1    0.93    2.47
  -5  -1   1    7.91    3.19
   5   1  -1    0.98    1.99
  -5  -1   2  646.50   24.82
   5   1  -2  675.39   22.28
  -5  -1   2  709.35   34.42
   5   1  -2  597.90   19.22
   5   1  -3  413.73   17.17
  -5  -1   3  474.03   19.66
   5   1  -3  423.55   16.39
   5   1  -4   95.66   12.04
   5   1  -4   75.70    9.26
   5   1  -5  311.62   15.24
   5   1  -5  308.91   12.34
  -5  -1   6  160.18   14.59
   5   1  -6  140.28   12.02
  -5  -1   6  143.70   10.89
   5   1  -6  140.28    9.88
  -5  -1   7   63.37   10.72
   5   1  -7   69.50   10.06
  -5  -1   7   77.70   10.24
   5   1  -7   73.31    8.58
  -5  -1   8    9.63    5.44
  -5  -1   8    5.19    2.00
   5   1  -8    3.35    2.43
  -5  -1   9   58.53    7.89
  -5  -1   9   57.32   14.29
   5   1  -9   47.80   13.02
  -5  -1  10    5.02    4.22
  -5  -1  10   14.79    5.27
   5   1 -10    3.97    2.87
  -5  -1  11   10.06    6.56
  -5  -1  11    3.25    2.25
   5   1 -11    6.24    2.80
  -5  -1  12   81.98    9.23
  -5  -1  12   82.18    9.23
   5   1 -12   91.50   10.88
  -5  -1  13   61.26   14.66
  -5  -1  13   60.61   10.96
   5   1 -13   57.22   10.59
  -5  -1  14   24.66    8.18
  -5  -1  14   21.18    5.35
   5   1 -14   25.33    5.42
  -5  -1  15   74.27   16.29
  -5  -1  15   60.32    9.19
   5   1 -15   49.98    7.74
  -5  -1  16   16.78    8.32
  -5  -1  16   13.64    4.60
  -5  -1  17   19.46   10.55
  -5  -1  17   27.73    5.53
  -5  -1  18    7.55    6.58
  -5  -1  18    2.38    1.22
  -5  -1  19   13.16    7.73
  -5  -1  19   14.45    3.26
  -5  -1  20    4.82    5.15
  -5  -1  20    2.70    1.31
  -5  -1  21    3.57    4.86
  -5  -1  22   12.79    7.15
  -5  -1  23    6.15    6.82
  -5  -1  24   14.70    8.52
   5   2  24   10.01    5.65
   5   2  24    5.16    5.63
   5   2  23   25.42    9.96
   5   2  23   16.62   10.27
   5   2  22   58.65   17.25
   5   2  21   38.37   12.76
   5   2  21   36.96   12.01
   5   2  20   15.06    8.89
   5   2  20   15.69    6.61
   5   2  19   18.99   11.47
   5   2  19   15.24    9.11
   5   2  18   14.27    8.21
   5   2  18   10.50    8.03
   5   2  17    1.05    6.25
   5   2  17    8.88    5.52
   5   2  16   10.32    8.52
   5   2  16    9.84    7.52
   5   2  15    6.53    6.25
   5   2  15    4.57    5.10
   5   2  14   24.48    9.53
   5   2  13   14.65    6.21
   5   2  12  424.85   32.45
   5   2  11  261.72   19.24
   5   2  10  177.41   16.92
  -5  -2 -10  166.56   14.57
   5   2   9  744.57   24.24
  -5  -2  -9  680.46   22.85
   5   2   8   64.74    8.92
  -5  -2  -8   66.96    8.84
   5   2   7   31.46    8.21
  -5  -2  -7   31.75    7.73
   5   2   6    7.81    4.94
   5   2   5   11.72    4.95
  -5  -2  -5    9.18    4.56
  -5  -2  -5    7.49    7.52
   5   2   4   25.74    8.09
   5   2   4   21.26    6.20
  -5  -2  -4   45.01   15.11
   5   2   4   22.58    7.69
   5   2   3   64.76   14.72
   5   2   3   65.73    9.72
  -5  -2  -3  114.94   24.03
   5   2   3   68.26   14.49
   5   2   2   42.02   15.47
   5   2   2   56.67    9.01
  -5  -2  -2   14.99    6.98
   5   2   2   50.76   10.07
   5   2   1   27.40    5.17
   5   2   1   31.39    9.01
  -5  -2  -1   40.81   10.66
   5   2   1   44.64    7.88
  -5  -2   0    3.31    2.44
   5   2  -1   84.22   11.23
   5   2  -1   94.16   13.02
   5   2  -1   99.79   12.92
   5   2  -2    0.36    2.57
  -5  -2   2    4.48    3.07
   5   2  -2    4.41    2.41
  -5  -2   3    9.82    3.88
   5   2  -3   16.63    4.65
  -5  -2   3   18.72    6.53
   5   2  -3   11.79    2.70
  -5  -2   4  105.45   17.33
   5   2  -4   68.96    9.87
  -5  -2   4   95.20   11.94
   5   2  -4   81.46    9.88
  -5  -2   5   22.62    9.97
  -5  -2   5   11.87    5.18
   5   2  -5    6.72    2.21
  -5  -2   6  200.95   17.15
   5   2  -6  174.43    9.13
  -5  -2   6  199.31   17.06
   5   2  -6  191.57   13.58
  -5  -2   7    2.58    4.27
  -5  -2   7    3.55    2.57
   5   2  -7    0.58    1.69
  -5  -2   8   91.09    9.35
  -5  -2   8   86.27   10.65
   5   2  -8   80.26    9.57
  -5  -2   9   11.03    5.03
  -5  -2   9   23.93    7.28
   5   2  -9   12.15    5.13
  -5  -2  10   98.16   14.94
  -5  -2  10  104.61   11.28
   5   2 -10   92.27   11.04
  -5  -2  11    5.22    6.60
  -5  -2  11    1.89    1.79
   5   2 -11    2.35    3.03
  -5  -2  12   17.72    7.00
  -5  -2  12   31.53    7.14
   5   2 -12   21.70    6.82
  -5  -2  13   75.26   17.41
  -5  -2  13   53.23    9.92
   5   2 -13   50.71   10.68
  -5  -2  14   10.80    5.15
  -5  -2  14   23.26    5.42
   5   2 -14   10.08    3.93
  -5  -2  15   19.60    9.69
  -5  -2  15   16.33    5.32
  -5  -2  16  116.03   12.90
  -5  -2  16  130.15   10.07
   5   2 -16  102.27    8.25
  -5  -2  17   40.55   12.07
  -5  -2  17   21.29    9.05
   5   2 -17    8.57    2.25
  -5  -2  18   27.46   10.39
  -5  -2  18   36.20   10.94
  -5  -2  19   13.26    8.66
  -5  -2  19    2.50    1.56
  -5  -2  20    3.49    4.87
  -5  -2  20    5.95    1.94
  -5  -2  21    8.20    5.48
  -5  -2  22   12.81    6.14
  -5  -2  23   16.12    7.54
  -5  -2  24   13.22    7.44
   5   3  24   15.09    9.37
   5   3  24   10.09    9.13
   5   3  23    7.94    6.11
   5   3  23   17.15    9.11
   5   3  22    5.63    6.24
   5   3  22    4.80    5.66
   5   3  21    0.27    6.19
   5   3  20   16.16    6.81
   5   3  20   14.81    9.48
   5   3  19   26.90   11.21
   5   3  19    4.02    7.21
   5   3  18    1.44    5.74
   5   3  18    3.50    5.29
   5   3  17    4.05    6.65
   5   3  17    4.12    5.50
   5   3  16   17.23    9.68
   5   3  15    2.31    5.95
   5   3  14    7.51    7.31
   5   3  13   26.42    7.94
   5   3  12   84.20   14.23
   5   3  11   38.08    9.57
   5   3  10   49.68   11.86
   5   3   9   42.54    9.53
  -5  -3  -9   30.52    9.15
   5   3   8   27.85    9.55
  -5  -3  -8   35.58    7.43
  -5  -3  -8   89.69   21.47
   5   3   7    7.65    4.22
  -5  -3  -7    4.16    4.88
  -5  -3  -7    2.10    6.43
   5   3   6   36.71    9.54
  -5  -3  -6   40.29    9.93
  -5  -3  -6  118.99   28.73
   5   3   5    1.84    5.67
  -5  -3  -5    5.95    3.14
  -5  -3  -5    7.47    6.67
   5   3   4   48.31   17.67
   5   3   4   66.99    9.60
  -5  -3  -4   73.58   23.28
   5   3   3  215.49   15.94
   5   3   3  206.82   16.28
  -5  -3  -3  206.20   24.13
   5   3   3  183.98   14.30
   5   3   2    3.43    3.06
   5   3   2   14.46    6.27
  -5  -3  -2    6.95    4.75
   5   3   2    5.84    2.89
   5   3  -1  216.07   16.08
   5   3  -1  209.13   17.02
   5   3  -1  192.83   14.38
   5   3  -2  185.01   14.64
  -5  -3   2  197.82   16.70
   5   3  -2  175.70   17.76
  -5  -3   3   10.88    6.71
   5   3  -3    1.75    3.29
  -5  -3   3    6.20    4.23
   5   3  -3    5.92    2.97
  -5  -3   4  221.53   44.07
   5   3  -4  178.21   13.78
  -5  -3   4  194.62   14.95
   5   3  -4  154.16   11.50
  -5  -3   5  110.64   25.14
   5   3  -5   95.06    9.14
  -5  -3   5  106.14   12.33
   5   3  -5  107.19    8.10
  -5  -3   6  239.79   19.75
  -5  -3   6  253.53   18.47
   5   3  -6  250.77   17.58
  -5  -3   7  230.93   19.50
  -5  -3   7  217.62   16.39
   5   3  -7  205.82   14.73
  -5  -3   8   10.72    6.93
  -5  -3   8    5.92    2.67
   5   3  -8    6.99    3.58
  -5  -3   9  134.28   14.09
  -5  -3   9  152.79   13.19
   5   3  -9  122.17    6.69
  -5  -3  10    6.30    5.06
  -5  -3  10    7.79    2.96
   5   3 -10   17.78    7.02
  -5  -3  11  125.36   14.43
  -5  -3  11  107.26   10.47
   5   3 -11  120.07   11.67
  -5  -3  12    9.16    7.73
  -5  -3  12    3.03    2.41
   5   3 -12    5.83    5.10
  -5  -3  13   12.20    9.23
  -5  -3  13    1.68    2.59
   5   3 -13    5.98    4.60
  -5  -3  14   22.53    7.66
  -5  -3  14   64.03   10.22
   5   3 -14   46.76   11.13
  -5  -3  15   17.79    9.32
  -5  -3  15    3.05    1.72
   5   3 -15    7.12    3.95
  -5  -3  16   11.40    5.46
  -5  -3  16   16.23    6.15
   5   3 -16    8.90    3.06
  -5  -3  17   14.38    7.48
  -5  -3  17   11.46    3.15
   5   3 -17    5.14    2.20
  -5  -3  18   12.21    6.19
  -5  -3  18   12.20    2.45
  -5  -3  19   33.06   12.21
  -5  -3  19   25.57    4.52
  -5  -3  20   14.05    7.71
  -5  -3  20    1.35    1.35
  -5  -3  21   27.25   10.46
  -5  -3  21   24.76    7.53
  -5  -3  22   14.24    7.09
  -5  -3  23    8.68    5.80
  -5  -3  24   16.96    9.83
   5   4  23    6.80    6.20
   5   4  23   20.54    9.48
   5   4  22    7.20    8.92
   5   4  22    7.20    5.70
   5   4  21    7.91    6.39
   5   4  21    0.68    5.03
   5   4  20    6.88    6.33
   5   4  20    2.47    5.21
   5   4  19   11.66    8.29
   5   4  19    7.85    6.66
   5   4  18   11.00    9.51
   5   4  18   -0.85    5.15
   5   4  17   21.55   10.10
   5   4  16    8.60    7.02
   5   4  15    8.88    8.57
   5   4  14   -1.13    5.62
   5   4  13   15.72    8.92
   5   4  12   14.05    7.35
   5   4  11  108.33   15.17
   5   4  10  101.62   13.27
   5   4   9    9.31    6.35
  -5  -4  -9    5.57    9.45
   5   4   8   11.12    4.80
  -5  -4  -8   40.30   18.67
   5   4   7   52.13   10.65
  -5  -4  -7   50.34   10.67
  -5  -4  -7   61.80   19.28
   5   4   6   34.61    9.61
  -5  -4  -6   38.35    9.89
  -5  -4  -6   51.35   17.74
   5   4   5  522.71   16.76
  -5  -4  -5  458.78   15.85
  -5  -4  -4    4.50    4.41
   5   4   3   33.71   13.14
   5   4   3   36.90    9.61
  -5  -4  -3   29.98   13.62
   5   4   2   80.20   20.78
   5   4   2   91.28   13.18
  -5  -4  -2  103.67   20.91
   5   4   2   93.11   12.52
   5   4   1   85.96   21.06
   5   4   1  130.59   12.93
  -5  -4  -1   76.89   26.64
   5   4   1  104.14    6.83
   5   4   0  213.24   15.99
   5   4   0  213.41   16.69
  -5  -4   0  230.23   18.51
   5   4   0  191.61   14.50
   5   4  -1    2.26    2.73
   5   4  -1   10.90    8.01
  -5  -4   1    7.48    4.06
   5   4  -1    4.81    3.25
   5   4  -2    5.39    2.91
   5   4  -2    7.30    6.67
   5   4  -2    5.52    3.23
  -5  -4   3   54.45   15.38
   5   4  -3   56.09    8.84
  -5  -4   3   63.01   17.56
   5   4  -3   57.40    7.79
  -5  -4   4    8.46    4.07
   5   4  -4    5.35    4.23
  -5  -4   4   -0.25    2.95
   5   4  -4    2.02    2.03
  -5  -4   5   42.59   15.25
  -5  -4   5   50.25    8.00
   5   4  -5   38.23    9.53
  -5  -4   6   55.53   13.40
  -5  -4   6   36.88    9.54
   5   4  -6   25.27   13.11
  -5  -4   7   22.82    8.00
  -5  -4   7   37.42    8.18
   5   4  -7   40.35    8.41
  -5  -4   8  131.30   15.38
  -5  -4   8  136.97   12.29
   5   4  -8  126.84   11.34
  -5  -4   9  313.31   18.06
  -5  -4   9  307.42   12.89
   5   4  -9  304.61   12.16
  -5  -4  10   51.72   12.37
  -5  -4  10   45.09    9.91
   5   4 -10   51.25   10.88
  -5  -4  11  121.40   17.93
  -5  -4  11  105.81   12.46
   5   4 -11  108.43   13.73
  -5  -4  12   10.24    6.24
  -5  -4  12   11.24    3.41
   5   4 -12    5.62    3.84
  -5  -4  13   12.27    5.47
  -5  -4  13   16.08    4.99
   5   4 -13   10.99    5.44
  -5  -4  14   13.11    6.33
  -5  -4  14   12.15    3.89
   5   4 -14   11.79    7.48
  -5  -4  15   67.51   15.17
  -5  -4  15   68.97   11.06
   5   4 -15   55.54   10.40
  -5  -4  16   12.39    7.31
  -5  -4  16    7.77    3.43
   5   4 -16    6.54    3.67
  -5  -4  17    8.16    7.82
  -5  -4  17    3.06    2.57
  -5  -4  18   10.37    5.91
  -5  -4  18    0.73    1.52
  -5  -4  19   11.97    7.01
  -5  -4  19    3.93    2.57
  -5  -4  20    8.21    5.25
  -5  -4  20    2.82    2.28
  -5  -4  21   15.24    7.24
  -5  -4  21   25.78    6.88
  -5  -4  22    9.86    7.79
  -5  -4  22    3.17    1.90
  -5  -4  23   11.58    8.33
  -5  -4  24   26.00   10.90
   5   5  23    4.05    6.37
   5   5  23    5.20    5.60
   5   5  22   15.23   11.08
   5   5  22    6.78    5.36
   5   5  21    9.14    6.86
   5   5  21    7.13    5.32
   5   5  20    6.71    6.71
   5   5  19   10.98    6.66
   5   5  18    9.21    7.17
   5   5  17   76.59   15.10
   5   5  16    0.59    5.50
   5   5  15   29.06    9.41
   5   5  14   10.02    5.75
   5   5  13    9.61    7.72
   5   5  12    6.60    5.85
   5   5  11    9.68    5.52
  -5  -5 -11   14.03   11.49
   5   5  10    8.40    5.25
  -5  -5 -10   18.82   15.20
   5   5   9   17.39    8.31
  -5  -5  -9   15.20    9.19
   5   5   8   22.73    6.76
  -5  -5  -8   31.45   12.54
   5   5   7  194.47   18.68
  -5  -5  -7  184.12   52.30
   5   5   6    9.58    5.45
  -5  -5  -6   -0.07    2.85
   5   5   5   40.88    9.81
  -5  -5  -5    9.43    6.18
   5   5   4   -0.63    4.36
  -5  -5  -4   -1.14    4.70
   5   5   3    6.97    4.36
   5   5   3    7.57    4.86
  -5  -5  -3    3.65    3.35
   5   5   2  105.53   20.48
   5   5   2  179.70   15.64
  -5  -5  -2  177.86   33.84
   5   5   1  106.73   20.75
   5   5   1  160.06   13.16
  -5  -5  -1  164.83   32.85
   5   5   0   17.68    3.46
   5   5   0   19.40    6.93
  -5  -5   0   20.30    7.87
   5   5   0    8.54    2.89
   5   5  -1   51.54    8.89
  -5  -5   1   44.91   14.45
   5   5  -1   41.94    9.91
   5   5  -2   16.19    5.52
  -5  -5   2    9.00    4.37
   5   5  -2    5.37    2.34
   5   5  -3   42.43   11.43
   5   5  -3   17.90    6.02
  -5  -5   4   26.69    8.98
  -5  -5   4   23.20    7.32
   5   5  -4   18.94    4.57
  -5  -5   5    0.87    3.75
  -5  -5   5    1.46    3.27
   5   5  -5    4.14    2.47
  -5  -5   6  685.03   44.55
  -5  -5   6  691.11   23.46
   5   5  -6  663.87   20.82
  -5  -5   7   75.87   18.66
  -5  -5   7   69.86    9.96
   5   5  -7   59.89    8.12
  -5  -5   8  201.93   31.45
  -5  -5   8  170.32   14.78
   5   5  -8  185.80   15.17
  -5  -5   9  527.27   33.75
  -5  -5   9  526.33   31.14
   5   5  -9  514.92   29.94
  -5  -5  10  318.95   25.63
  -5  -5  10  272.40   17.95
   5   5 -10  266.47   19.22
  -5  -5  11  404.94   33.72
  -5  -5  11  404.15   30.27
   5   5 -11  368.35   28.20
  -5  -5  12    9.40    5.74
  -5  -5  12   14.64    4.96
   5   5 -12   10.55    5.70
  -5  -5  13   45.20   13.02
  -5  -5  13   42.30    9.93
   5   5 -13   31.02    8.66
  -5  -5  14    5.82    7.61
  -5  -5  14    1.98    2.47
   5   5 -14    3.70    4.70
  -5  -5  15    6.59    5.37
  -5  -5  15    5.02    3.00
   5   5 -15    4.51    4.45
  -5  -5  16   54.89   14.64
  -5  -5  16   57.82   12.01
   5   5 -16   27.59    7.39
  -5  -5  17   23.92   11.53
  -5  -5  17   18.06    4.27
  -5  -5  18   47.62   12.64
  -5  -5  18   59.41   12.57
  -5  -5  19   19.15   10.36
  -5  -5  19   23.46    4.97
  -5  -5  20   39.62   14.27
  -5  -5  20   48.05    7.39
  -5  -5  21   29.98   10.17
  -5  -5  21   26.21    7.05
  -5  -5  22   33.64   10.84
  -5  -5  22   22.30    8.68
  -5  -5  23   14.94    8.38
  -5  -5  23   19.84    5.12
  -5  -5  24    5.13    6.64
   5   6  22   16.49   12.23
   5   6  22   16.18    9.89
   5   6  21   10.48    9.34
   5   6  21    6.32    5.14
   5   6  20    4.10    6.51
   5   6  19   19.06   10.80
   5   6  18   35.97   16.09
   5   6  17   15.25   11.11
   5   6  16   24.91   10.92
   5   6  15  112.61   16.39
   5   6  14    6.12    5.01
   5   6  13    7.15    6.50
   5   6  12    6.92    5.36
  -5  -6 -12   19.37   14.54
   5   6  11   11.52    7.64
  -5  -6 -11    7.56    9.95
   5   6  10   15.58    6.05
  -5  -6 -10   27.15   12.96
   5   6   9   36.42    9.91
  -5  -6  -9    6.90    5.18
   5   6   8  237.46   20.79
   5   6   7   50.27   12.47
  -5  -6  -7   64.66   19.29
   5   6   6  709.17   41.98
  -5  -6  -6  618.53   52.93
   5   6   5  547.84   21.43
  -5  -6  -5  562.95   24.91
   5   6   4   58.03   11.82
  -5  -6  -4   66.23   22.02
   5   6   3  564.33   22.42
  -5  -6  -3  538.25   22.84
   5   6   2   85.73   13.14
  -5  -6  -2  105.24   30.48
   5   6   1  348.14   16.09
  -5  -6  -1  317.56   13.67
   5   6   0    9.10    3.57
  -5  -6   0   10.03    4.82
   5   6  -1    7.02    7.61
  -5  -6   1    7.11    3.03
   5   6  -2   20.35    8.45
  -5  -6   2   19.15    4.88
   5   6  -3   61.88   10.49
   5   6  -4  139.88   14.88
   5   6  -4  112.37   12.84
  -5  -6   5   26.98   10.48
  -5  -6   5   19.30    6.82
   5   6  -5   24.25    7.59
  -5  -6   6   38.22   12.23
  -5  -6   6   33.22    8.03
   5   6  -6   26.91    8.33
  -5  -6   7   75.62   18.99
  -5  -6   7   71.52   14.55
   5   6  -7   24.68   10.83
  -5  -6   8    6.35    6.92
  -5  -6   8    9.67    3.82
   5   6  -8    7.31    2.79
  -5  -6   9   30.89   11.18
  -5  -6   9   36.77    9.41
   5   6  -9   22.39    7.69
  -5  -6  10  207.23   20.56
  -5  -6  10  196.38   16.66
  -5  -6  11  217.12   22.79
  -5  -6  11  187.90   15.90
   5   6 -11  109.60   13.25
  -5  -6  12   -0.23    5.23
  -5  -6  12    0.69    2.71
   5   6 -12    9.47    5.77
  -5  -6  13   93.78   13.55
  -5  -6  13   69.18   11.87
  -5  -6  14   20.77    8.81
  -5  -6  14   18.41    6.68
  -5  -6  15   27.62   12.01
  -5  -6  15    6.36    3.38
  -5  -6  16   15.73   10.06
  -5  -6  16    8.48    3.37
  -5  -6  17    1.09    5.36
  -5  -6  17   -0.07    1.74
  -5  -6  18   11.16    7.47
  -5  -6  18   17.02    7.87
  -5  -6  19   10.31    5.43
  -5  -6  19    9.84    4.16
  -5  -6  20  106.67   14.64
  -5  -6  20   69.61    8.52
  -5  -6  21   22.00    9.41
  -5  -6  21   10.94    3.79
  -5  -6  22   20.81   10.11
  -5  -6  22   19.21    7.99
  -5  -6  23    3.35    4.82
  -5  -6  23    3.31    2.50
  -5  -6  24    8.40    4.88
   5   7  22    9.94    9.10
   5   7  22    8.53    5.51
   5   7  21   11.51    7.05
   5   7  20    3.89    8.77
   5   7  19    0.41    6.11
   5   7  18    5.76    9.55
   5   7  17    1.60    6.33
   5   7  16    6.48    9.03
   5   7  15   10.01    6.13
   5   7  14    3.21    5.09
   5   7  13    8.60    7.21
  -5  -7 -13   14.59   13.37
   5   7  12    7.89    4.81
  -5  -7 -12   15.78   16.81
  -5  -7 -11   13.48    8.35
   5   7  10   24.27    7.19
  -5  -7 -10   33.78   15.83
   5   7   9    4.37    8.05
  -5  -7  -9   12.10    7.70
   5   7   8    5.78    5.85
  -5  -7  -8    9.34    5.67
   5   7   7   94.94   13.65
   5   7   6   29.59    7.91
  -5  -7  -6   75.41   22.02
   5   7   5   25.08    7.78
  -5  -7  -5   41.04   12.63
   5   7   4    2.76    5.37
  -5  -7  -4    4.79    4.78
   5   7   3   52.81   11.89
  -5  -7  -3   37.10   11.08
   5   7   2    8.52    5.82
  -5  -7  -2   14.82    5.94
   5   7   1    7.96    7.38
  -5  -7  -1    3.09    3.14
   5   7   0   62.31   12.25
  -5  -7   0   64.75   18.31
   5   7  -1   12.41    6.36
  -5  -7   1    8.92    6.42
   5   7  -2   25.36    9.63
  -5  -7   2   32.30    5.61
   5   7  -3  166.97   16.74
  -5  -7   3  144.57   14.14
   5   7  -4   73.45   11.62
   5   7  -5  106.91   13.19
  -5  -7   5  110.81   12.37
  -5  -7   6   36.80   11.85
  -5  -7   6   40.60   10.35
  -5  -7   7   17.38    8.27
  -5  -7   7    7.49    3.62
  -5  -7   8   10.15    4.00
  -5  -7   8    3.39    3.22
  -5  -7   9   11.00    5.33
  -5  -7   9   -0.75    2.67
  -5  -7  10   12.56    5.78
  -5  -7  10    8.52    3.96
  -5  -7  11    5.99    4.98
  -5  -7  11    0.17    2.65
  -5  -7  12   27.21    9.14
  -5  -7  12   10.72    3.97
  -5  -7  13   27.84    9.00
  -5  -7  13   11.19    4.33
  -5  -7  14   42.46   14.67
  -5  -7  14   39.42   11.95
  -5  -7  15   16.40    6.43
  -5  -7  15   27.58    7.37
  -5  -7  16   11.69    6.07
  -5  -7  16    2.37    3.94
  -5  -7  17   14.73    7.27
  -5  -7  17    9.14    4.75
  -5  -7  18    1.26    4.45
  -5  -7  18    2.58    2.37
  -5  -7  19    4.19    4.52
  -5  -7  19    1.25    2.13
  -5  -7  20   11.85    6.38
  -5  -7  20   -0.75    1.84
  -5  -7  21   10.05    5.02
  -5  -7  21    3.86    2.77
  -5  -7  22    9.63    5.50
  -5  -7  22    3.87    3.14
  -5  -7  23    6.92    5.48
  -5  -7  23    1.18    1.62
   5   8  21    5.52    6.56
   5   8  20   -2.18    6.35
   5   8  19   19.86   13.38
   5   8  18    6.53    6.03
   5   8  17    8.32    6.65
   5   8  16   20.87    8.77
   5   8  15    4.47    5.86
   5   8  14   12.91    6.42
  -5  -8 -14   72.91   29.07
   5   8  13   16.51    7.02
  -5  -8 -13   16.61   16.26
   5   8  12    4.11    5.53
  -5  -8 -12    4.86    3.92
   5   8  11   15.31    8.95
  -5  -8 -11   15.10   16.35
   5   8  10    8.95    7.89
  -5  -8 -10   10.80    6.15
   5   8   9  254.98   15.61
   5   8   8   19.63    9.14
  -5  -8  -8   12.01    7.84
   5   8   7    9.20    5.95
  -5  -8  -7   13.17    6.12
   5   8   6   48.80   11.75
  -5  -8  -6   50.95   14.66
   5   8   5    0.78    4.96
  -5  -8  -5    2.92    4.45
   5   8   4  110.17   13.82
  -5  -8  -4  124.78   32.74
   5   8   3    7.37    5.24
  -5  -8  -3   18.03   11.19
   5   8   2    9.92    7.21
  -5  -8  -2   13.24   13.30
   5   8   1   73.32   17.11
  -5  -8  -1   66.30   21.94
   5   8   0  130.09   16.44
  -5  -8   0  109.53   13.57
   5   8  -1   29.97   11.62
  -5  -8   1   19.64    6.49
   5   8  -2  168.50   17.50
  -5  -8   2  149.77   16.36
   5   8  -3  391.44   28.39
  -5  -8   3  338.44   23.34
   5   8  -4  148.59   15.81
   5   8  -5   30.89   12.08
   5   8  -6   82.66   13.84
  -5  -8   6   69.33   13.81
  -5  -8   7    7.62    4.72
  -5  -8   7    9.69    5.15
  -5  -8   8   14.61    4.61
  -5  -8   8    1.97    3.47
  -5  -8   9    5.76    4.06
  -5  -8   9    8.39    5.43
  -5  -8  10   58.94   17.10
  -5  -8  10   48.85   12.45
  -5  -8  11   12.69    6.90
  -5  -8  11    0.15    3.23
  -5  -8  12    9.48    6.89
  -5  -8  12    8.63    4.42
  -5  -8  13   63.60   18.60
  -5  -8  13   51.87   10.74
  -5  -8  14  179.96   19.34
  -5  -8  14  203.92   17.60
  -5  -8  15   35.82   11.23
  -5  -8  15   31.64    7.94
  -5  -8  16   67.10   16.42
  -5  -8  17   21.88    7.02
  -5  -8  17   24.45    5.85
  -5  -8  18   11.01    6.71
  -5  -8  18    5.05    3.35
  -5  -8  19    0.41    3.92
  -5  -8  19    0.03    1.90
  -5  -8  20    7.67    4.58
  -5  -8  20   15.42    6.12
  -5  -8  21   13.16    6.89
  -5  -8  21    2.88    2.86
  -5  -8  22    2.33    5.11
  -5  -8  22    2.63    2.28
  -5  -8  23   13.64    6.70
  -5  -8  23    4.61    2.86
   5   9  20    3.25    6.84
   5   9  19    7.76    6.68
   5   9  18   10.16    8.33
   5   9  17    5.65    5.97
   5   9  16   -0.54    5.53
   5   9  15    8.26    5.56
  -5  -9 -15   -5.18   11.31
   5   9  14    5.17    5.28
  -5  -9 -14   19.64   16.72
   5   9  13   24.07   11.35
  -5  -9 -13   11.96    7.71
   5   9  12   42.70   13.01
  -5  -9 -12    2.32    6.67
   5   9  11  193.94   21.42
   5   9  10   73.39   16.75
   5   9   9    4.84    5.93
  -5  -9  -9   12.12    6.25
   5   9   8  145.16   13.37
   5   9   7   30.54    8.34
  -5  -9  -7   58.49   18.76
   5   9   6   63.67   12.57
  -5  -9  -6   57.09   19.23
   5   9   5   11.40    5.36
  -5  -9  -5   10.26    5.58
   5   9   4    6.90    5.27
  -5  -9  -4   20.02   17.17
   5   9   3   67.63   16.56
  -5  -9  -3   57.70   18.27
   5   9   2    3.54    7.36
  -5  -9  -2    4.62    4.55
   5   9   1   25.36    9.18
  -5  -9  -1   22.82   12.15
   5   9   0   16.99    8.84
   5   9  -1   14.07    5.75
  -5  -9   1   23.33    9.44
   5   9  -2  267.39   23.37
  -5  -9   2  229.96   20.60
   5   9  -3   98.99   15.34
  -5  -9   3   99.66   14.30
   5   9  -4   13.12   10.06
  -5  -9   4    9.11    4.78
   5   9  -5  121.06   17.09
   5   9  -6   55.68   13.58
  -5  -9   6   38.28    9.45
   5   9  -7   27.53    8.87
  -5  -9   7   47.74   11.70
  -5  -9   8   -0.10    5.15
  -5  -9   8   15.65    5.29
  -5  -9   9   34.80   11.34
  -5  -9   9   45.42    9.22
  -5  -9  10   10.27    6.74
  -5  -9  10   18.10    7.55
  -5  -9  11   16.55    7.95
  -5  -9  11    4.60    3.69
  -5  -9  12   71.75   21.89
  -5  -9  12   51.52   11.47
  -5  -9  13  159.63   33.87
  -5  -9  13  134.66   13.31
  -5  -9  14   26.22   13.73
  -5  -9  14   24.06    8.46
  -5  -9  15  185.87   28.78
  -5  -9  15  173.28   14.98
  -5  -9  16   27.23    8.23
  -5  -9  16   21.84    5.99
  -5  -9  17   24.40    9.42
  -5  -9  17   49.48    8.96
  -5  -9  18   13.17    7.76
  -5  -9  18   10.03    4.81
  -5  -9  19    5.61    4.25
  -5  -9  19    2.21    2.61
  -5  -9  20   12.36    6.46
  -5  -9  20    1.20    2.61
  -5  -9  21    5.02    4.88
  -5  -9  21    3.67    2.60
  -5  -9  22   16.68    7.96
  -5  -9  22   32.41    9.48
   5  10  19   10.77    8.21
   5  10  18    5.99    6.18
   5  10  17   -1.28    5.13
   5  10  16   12.87    8.24
  -5 -10 -16   15.25   16.94
   5  10  15    0.12    4.98
  -5 -10 -15   13.52   14.82
   5  10  14   10.27    7.07
  -5 -10 -14   10.09    5.63
   5  10  13    9.24    7.60
  -5 -10 -13    8.15    4.96
   5  10  12   15.48    8.07
  -5 -10 -12    1.42    6.25
   5  10  11   41.01   13.19
  -5 -10 -11   32.92   15.14
   5  10  10   16.29    8.31
  -5 -10 -10   15.13   11.01
   5  10   9   43.67   11.72
   5  10   8   11.57    8.78
  -5 -10  -8   10.51    7.74
   5  10   7   37.03    9.40
  -5 -10  -7   40.85   13.49
   5  10   6    4.26    4.99
  -5 -10  -6   15.92   10.60
   5  10   5    4.21    4.63
  -5 -10  -5   13.65    6.66
   5  10   4   11.62    4.02
  -5 -10  -4   12.08    6.43
   5  10   3   72.93   14.39
  -5 -10  -3   45.78   15.66
   5  10   2  129.71   14.39
  -5 -10  -2  112.26   28.26
   5  10   1  123.11   14.08
  -5 -10  -1  100.76   17.10
   5  10   0   31.34    8.93
  -5 -10   0   26.60    9.54
   5  10  -1  192.00   18.39
  -5 -10   1  206.17   19.72
   5  10  -2   13.44    6.83
  -5 -10   2   10.52    7.32
   5  10  -3  126.49   15.69
  -5 -10   3  115.44   19.70
   5  10  -4    5.82    5.77
  -5 -10   4    9.78    6.92
   5  10  -5   82.14   15.77
  -5 -10   5   69.01   14.61
   5  10  -6   61.45   12.69
   5  10  -7   28.78    9.35
  -5 -10   7   49.86    7.49
   5  10  -8   34.98   10.55
  -5 -10   8   31.76    8.33
  -5 -10   9   92.15    9.80
  -5 -10  10   59.93   17.40
  -5 -10  10   70.63   14.27
  -5 -10  11   10.91    8.16
  -5 -10  11    6.35    3.42
  -5 -10  12    6.58    7.99
  -5 -10  12    4.48    4.55
  -5 -10  13    6.04    5.03
  -5 -10  13    2.60    3.26
  -5 -10  14    9.08    5.41
  -5 -10  14   18.75    6.06
  -5 -10  15   20.03   11.51
  -5 -10  15    4.64    3.70
  -5 -10  16   12.74    7.06
  -5 -10  16    4.47    3.40
  -5 -10  17    6.49    6.16
  -5 -10  17    4.35    4.09
  -5 -10  18   21.15   13.56
  -5 -10  18   19.14    7.24
  -5 -10  19    8.74    4.76
  -5 -10  19    3.73    2.65
  -5 -10  20    8.07    5.24
  -5 -10  20   10.06    4.17
  -5 -10  21    4.23    4.65
  -5 -10  21    4.10    3.75
   5  11  18   13.53    6.73
   5  11  17    6.77    5.63
   5  11  16    5.11    7.86
  -5 -11 -16   16.02   11.82
   5  11  15    2.57    7.29
  -5 -11 -15   21.42   15.01
   5  11  14    2.68    6.47
  -5 -11 -14    1.58    3.62
   5  11  13    2.84    5.17
  -5 -11 -13    8.60    7.13
   5  11  12    5.79    5.15
  -5 -11 -12   10.62    5.68
   5  11  11   26.82    7.42
  -5 -11 -11   13.10   12.40
   5  11  10   13.81    7.91
  -5 -11 -10    6.00    4.94
   5  11   9    6.22    5.39
  -5 -11  -9   13.20    6.83
   5  11   8   18.00    9.68
  -5 -11  -8   40.23   15.54
   5  11   7   15.10    9.19
  -5 -11  -7    5.53    5.84
   5  11   6    8.09    5.43
  -5 -11  -6   11.45    9.62
   5  11   5    6.40    7.28
  -5 -11  -5   14.08    9.00
   5  11   4   24.73    9.94
  -5 -11  -4    9.78    6.56
   5  11   3   -0.68    5.55
  -5 -11  -3    7.67    6.81
   5  11   2   14.04    6.85
  -5 -11  -2    8.81    6.92
   5  11   1    8.46    5.66
  -5 -11  -1    9.09    4.92
   5  11   0    7.50    5.85
  -5 -11   0    1.32    4.49
   5  11  -1   14.71    6.24
  -5 -11   1   23.42   10.11
   5  11  -2   16.63    8.97
  -5 -11   2    7.99    6.43
   5  11  -3    6.66    5.83
  -5 -11   3    4.79    6.22
   5  11  -4   -0.48    5.42
  -5 -11   4    1.78    4.24
   5  11  -5   27.88    8.23
  -5 -11   5   29.77    7.56
   5  11  -6   52.22   12.53
  -5 -11   6   46.67   10.47
   5  11  -7   25.10   11.18
   5  11  -8    8.37    8.83
  -5 -11   8   16.09    8.72
   5  11  -9   15.64    9.65
  -5 -11   9   19.70    9.95
   5  11 -10   27.00    8.51
  -5 -11  10   17.15    8.19
  -5 -11  11   37.18   14.69
  -5 -11  11   31.70    9.11
  -5 -11  12    6.89    4.44
  -5 -11  12    2.31    3.52
  -5 -11  13    6.80    4.70
  -5 -11  13    0.92    3.02
  -5 -11  14   31.61   13.29
  -5 -11  14   17.14    8.55
  -5 -11  15    4.29    5.17
  -5 -11  15    3.65    4.62
  -5 -11  16    8.01    5.08
  -5 -11  16    7.24    3.64
  -5 -11  17   20.89   12.05
  -5 -11  17   13.94    7.16
  -5 -11  18   50.05   30.88
  -5 -11  18   36.94    9.87
  -5 -11  19   11.07    6.05
  -5 -11  19   12.32    5.09
  -5 -11  20    9.15    6.85
  -5 -11  20    2.82    2.53
  -5 -11  21    7.57    9.70
  -5 -11  21    9.86    5.31
   5  12  17    5.72    6.67
  -5 -12 -17   11.27   10.80
   5  12  16    4.91    6.25
  -5 -12 -16   24.21   11.56
   5  12  15    6.81    5.68
  -5 -12 -15    8.21    9.23
   5  12  14    4.31    4.91
  -5 -12 -14    3.63    4.80
   5  12  13    8.44    7.62
  -5 -12 -13    9.69    9.79
   5  12  12   22.66    9.69
  -5 -12 -12    7.96    5.40
   5  12  11   11.78    4.55
  -5 -12 -11   14.92    9.73
   5  12  10   20.21   11.38
  -5 -12 -10    9.11    5.64
   5  12   9   10.91    5.63
  -5 -12  -9   26.31   10.28
   5  12   8    4.91    4.95
  -5 -12  -8    4.94    5.90
   5  12   7   10.06    6.30
  -5 -12  -7    5.03    5.51
   5  12   6    7.02    9.07
  -5 -12  -6    1.33    3.83
   5  12   5    5.22    6.27
  -5 -12  -5   10.70    6.73
   5  12   4    9.17    5.95
  -5 -12  -4    5.91    5.59
   5  12   3   22.64   11.44
  -5 -12  -3   23.52   12.98
   5  12   2   44.28   15.63
  -5 -12  -2   76.74   18.91
   5  12   1   14.62    7.61
  -5 -12  -1   57.28   14.85
   5  12   0  147.79   18.53
  -5 -12   0  103.96   12.55
   5  12  -1    9.43    5.66
  -5 -12   1    7.58    6.51
   5  12  -2   10.56    7.22
  -5 -12   2   14.36    7.98
   5  12  -3    6.74    5.72
  -5 -12   3   10.54    7.80
   5  12  -4   19.96   10.75
  -5 -12   4    8.16    6.03
  -5 -12   5   19.50    8.75
   5  12  -6   87.54   13.43
  -5 -12   6   53.11   12.67
   5  12  -7  206.53   21.26
   5  12  -8   87.74   13.42
  -5 -12   8   83.87   14.49
   5  12  -9   11.95    9.31
  -5 -12   9    5.77    4.87
   5  12 -10  261.47   23.78
  -5 -12  10  223.29   19.81
   5  12 -11    5.72   10.05
  -5 -12  12   27.89    7.26
  -5 -12  13   13.77    9.32
  -5 -12  13    5.24    4.99
  -5 -12  14    3.95    4.66
  -5 -12  14    8.42    5.03
  -5 -12  15   13.51    8.77
  -5 -12  15    6.01    3.65
  -5 -12  16   21.03   10.26
  -5 -12  16   15.00    7.53
  -5 -12  17   14.39    8.50
  -5 -12  17   14.54    7.27
  -5 -12  18   13.11    6.77
  -5 -12  18    6.96    5.61
  -5 -12  19   62.52   22.39
  -5 -12  19   63.16   17.53
  -5 -12  20   21.75   11.58
  -5 -12  20   30.29   10.30
   5  13  16   28.44   12.22
  -5 -13 -16   17.77   13.54
   5  13  15   15.31    9.83
  -5 -13 -15    4.70    5.53
   5  13  14    9.60    8.06
  -5 -13 -14    2.73    4.26
   5  13  13    6.99    5.89
  -5 -13 -13   18.84    9.65
   5  13  12   15.24    8.41
  -5 -13 -12    9.10   10.57
   5  13  11   10.75    5.25
  -5 -13 -11    2.44    4.15
   5  13  10    6.12    5.14
  -5 -13 -10    9.37    7.69
   5  13   9   63.09   12.16
   5  13   8    7.32    5.48
  -5 -13  -8   25.59    9.74
   5  13   7  102.85   14.25
  -5 -13  -7  109.05   26.40
   5  13   6  162.76   17.29
  -5 -13  -6  130.95   34.03
   5  13   5   59.40   15.94
  -5 -13  -5   34.67   16.17
   5  13   4  341.23   23.39
  -5 -13  -4  305.77   44.36
   5  13   3    7.80    9.10
  -5 -13  -3    8.76    7.58
   5  13   2   10.90    8.74
  -5 -13  -2   19.91   11.76
   5  13   1   20.26   12.00
  -5 -13  -1    8.09    7.99
   5  13   0    7.42    6.27
  -5 -13   0    4.85    6.86
   5  13  -1   18.29   11.21
  -5 -13   1   25.36    8.47
   5  13  -2    4.84    5.46
  -5 -13   2    7.37    4.82
   5  13  -3   23.79    9.43
  -5 -13   3   19.40   10.49
   5  13  -4   11.64    9.14
  -5 -13   4    5.90    4.78
   5  13  -5   16.79    9.50
  -5 -13   5    5.21    6.40
   5  13  -6   17.73    7.28
  -5 -13   6    7.76    6.24
   5  13  -7   16.31    9.71
  -5 -13   7   15.90    7.15
   5  13  -8   71.21   12.55
   5  13  -9   22.62    9.52
  -5 -13   9   22.57    6.61
   5  13 -10   20.22   12.16
  -5 -13  10    8.16    4.81
   5  13 -11   34.64   13.10
  -5 -13  11   57.78    9.63
   5  13 -12    4.24    6.30
  -5 -13  12   17.44    6.46
   5  13 -13    5.61    6.43
  -5 -13  13    7.86    4.83
  -5 -13  14   86.00   10.68
  -5 -13  15   11.35    8.92
  -5 -13  15    2.23    3.32
  -5 -13  16    9.63    6.82
  -5 -13  16    3.64    3.24
  -5 -13  17    5.01    6.17
  -5 -13  17    8.52    4.64
  -5 -13  18    7.01    6.56
  -5 -13  18   11.49    6.33
  -5 -13  19    6.46    6.15
  -5 -13  19   16.37    8.73
   5  14  14    9.23    5.96
  -5 -14 -14    7.36    8.31
   5  14  13   11.37    8.58
  -5 -14 -13    8.24    6.64
   5  14  12    3.56    5.30
  -5 -14 -12    5.50    8.65
   5  14  11    7.28    6.69
  -5 -14 -11    7.46    4.14
   5  14  10    3.34    5.23
  -5 -14 -10    4.47    7.05
   5  14   9   10.89    7.18
  -5 -14  -9   31.35   12.90
   5  14   8    8.87    6.82
  -5 -14  -8   14.13    9.24
   5  14   7   -0.39    5.08
  -5 -14  -7    1.91    5.91
   5  14   6    6.80    5.50
  -5 -14  -6    2.36    4.09
   5  14   5    3.15    5.46
  -5 -14  -5    5.00    4.01
   5  14   4   10.97    7.35
  -5 -14  -4   13.76    9.48
   5  14   3   -0.73    4.69
  -5 -14  -3   10.91    6.88
   5  14   2    8.06    5.62
  -5 -14  -2   10.79    5.96
   5  14   1    8.34    7.88
  -5 -14  -1    7.34    5.65
   5  14   0   18.21    7.31
  -5 -14   0    9.06    6.22
   5  14  -1   17.87    7.64
  -5 -14   1   17.43    9.23
   5  14  -2   11.02    9.23
  -5 -14   2   10.26    6.09
   5  14  -3   12.25   10.53
  -5 -14   3    0.78    4.73
   5  14  -4   25.94   11.60
  -5 -14   4   21.56    7.54
   5  14  -5    6.77    6.71
  -5 -14   5    7.34    4.93
   5  14  -6   19.87   10.06
  -5 -14   6   27.35    7.99
   5  14  -7    7.68    7.21
  -5 -14   7   15.44   10.47
   5  14  -8   14.90   11.63
  -5 -14   8    6.03    6.22
   5  14  -9   10.47    5.91
   5  14 -10   10.19    6.87
  -5 -14  10   21.16    9.60
   5  14 -11   25.71   11.23
  -5 -14  11   25.93    9.43
   5  14 -12   12.37   11.41
  -5 -14  12    6.69    5.58
   5  14 -13   19.15   12.10
  -5 -14  13   18.17    7.96
   5  14 -14    6.63    6.23
  -5 -14  14    7.01    6.70
   5  14 -15    6.88    6.33
  -5 -14  15    2.19    4.37
  -5 -14  16    5.53    5.51
  -5 -14  17    5.00    5.10
   5  15  12    8.25    7.86
  -5 -15 -12    3.63    4.65
   5  15  11    8.82    6.99
  -5 -15 -11    9.31    5.67
   5  15  10    5.96    6.75
  -5 -15 -10    9.55    6.79
   5  15   9   11.12    7.39
  -5 -15  -9    4.81    5.50
   5  15   8   13.34    5.55
  -5 -15  -8    2.62    3.40
   5  15   7    5.50    4.73
  -5 -15  -7   26.82   11.51
   5  15   6    5.86    4.93
  -5 -15  -6    8.55    7.88
   5  15   5   10.61    7.63
  -5 -15  -5   14.71    8.50
   5  15   4    3.66    6.70
  -5 -15  -4    5.90    3.77
   5  15   3    4.82    5.11
  -5 -15  -3    8.73    6.81
   5  15   2   22.13    8.84
  -5 -15  -2   59.28   13.77
   5  15   1   13.07    7.40
  -5 -15  -1   29.99   11.96
   5  15   0   18.91    9.43
  -5 -15   0   17.00    7.58
   5  15  -1   44.51   10.22
  -5 -15   1   34.75   12.94
   5  15  -2   13.58    8.07
  -5 -15   2    2.46    5.13
   5  15  -3   23.30    9.48
  -5 -15   3    5.58    5.55
   5  15  -4   69.57   14.96
  -5 -15   4   37.57   14.51
   5  15  -5    8.88    5.89
  -5 -15   5   20.37   10.11
   5  15  -6   21.16   11.58
  -5 -15   6   13.99    7.35
   5  15  -7    4.87    5.66
  -5 -15   7    0.91    4.41
   5  15  -8   20.68   10.58
  -5 -15   8    9.14    6.40
   5  15  -9   19.43    8.68
   5  15 -10   12.19    7.69
  -5 -15  10    5.98    4.65
   5  15 -11   34.86   11.04
  -5 -15  11   44.41   13.00
   5  15 -12    6.51    6.45
  -5 -15  12    5.76    4.71
   5  15 -13   30.51   14.88
  -5 -15  13   39.15   17.28
   5  15 -14   50.04   21.10
  -5 -15  14   47.70   19.82
   5  15 -15    5.70    8.66
  -5 -15  15    5.53    5.91
  -5 -15  16   33.83   10.74
   5  16  10    9.93    5.82
  -5 -16 -10    2.20    4.56
   5  16   9    6.57    5.19
  -5 -16  -9    2.00    6.18
   5  16   8    9.39    6.82
  -5 -16  -8    9.26    5.45
   5  16   7    2.43    4.81
  -5 -16  -7    7.74    5.82
   5  16   6    3.31    4.72
  -5 -16  -6   10.80    7.01
   5  16   5   28.56    7.42
  -5 -16  -5   38.31   15.05
   5  16   4    9.27    5.09
  -5 -16  -4   13.97    8.19
   5  16   3    9.56    5.02
  -5 -16  -3   16.76    9.68
   5  16   2   14.04    8.54
  -5 -16  -2    9.14    8.67
   5  16   1    1.56    4.75
  -5 -16  -1    0.61    4.57
   5  16   0   14.33    9.18
  -5 -16   0    8.47    6.77
   5  16  -1    1.31    5.02
  -5 -16   1    3.31    4.63
   5  16  -2   13.28    8.64
  -5 -16   2    4.90    4.99
   5  16  -3    6.09    5.63
  -5 -16   3   10.94    7.58
   5  16  -4   18.45    8.07
  -5 -16   4    8.69    5.84
   5  16  -5    6.86    5.61
  -5 -16   5    9.64    5.62
   5  16  -6   13.68   10.54
  -5 -16   6    1.08    5.04
   5  16  -7   45.35   14.91
  -5 -16   7   39.51   13.25
   5  16  -8    5.05    5.86
  -5 -16   8    1.68    5.51
   5  16  -9   25.39   11.53
  -5 -16   9   17.29    9.53
   5  16 -10   33.15   14.38
   5  16 -11   39.41   17.28
  -5 -16  11   51.46   20.37
   5  16 -12   21.42    9.27
  -5 -16  12   24.51    7.15
   5  16 -13   30.68   13.96
  -5 -16  13   10.54    5.00
  -5 -16  14   29.99   11.12
   5  17   8    2.14    4.86
  -5 -17  -8    1.86    5.04
   5  17   7   11.43    5.46
  -5 -17  -7   11.79    8.02
   5  17   6    6.08    6.71
  -5 -17  -6    0.60    4.04
   5  17   5   16.43    8.43
  -5 -17  -5   23.20   10.50
   5  17   4    1.88    4.97
  -5 -17  -4    1.07    4.06
   5  17   3   53.04   21.25
  -5 -17  -3   55.06   25.30
   5  17   2   45.95   18.54
  -5 -17  -2   41.56   17.72
   5  17   1   22.35    7.36
  -5 -17  -1   12.63    7.79
   5  17   0   60.08   16.32
  -5 -17   0   69.03   18.28
   5  17  -1    7.29    5.43
  -5 -17   1    7.41    5.62
   5  17  -2   18.63    8.28
  -5 -17   2   16.35    8.46
   5  17  -3    3.58    5.33
  -5 -17   3    4.75    4.72
   5  17  -4    7.74    5.81
  -5 -17   4    1.98    4.53
   5  17  -5    4.77    5.30
  -5 -17   5    7.97    7.13
   5  17  -6    4.10    5.76
  -5 -17   6    3.96    5.57
   5  17  -7   14.48    9.36
  -5 -17   7   23.28    9.24
   5  17  -8   18.41    8.68
  -5 -17   8   20.17    7.78
   5  17  -9   34.38   15.43
  -5 -17   9   18.10    6.68
  -5 -17  11    9.32    5.51
   5  18   3    4.73    5.23
  -5 -18  -3   11.85    6.42
   5  18   2    0.79    4.89
  -5 -18  -2    5.76    5.99
   5  18   1    6.76    5.34
  -5 -18  -1    3.68    5.70
   5  18   0    9.60    5.52
  -5 -18   0    1.62    5.51
   5  18  -1   13.33    7.40
  -5 -18   1   10.99    6.96
   5  18  -2    5.34    5.29
  -5 -18   2    5.82    4.86
   5  18  -3    4.74    5.05
  -5 -18   3    6.83    4.58
   5  18  -4   12.61    5.81
  -5 -18   4    6.42    4.89
   5  18  -5    0.84    5.13
  -5 -18   5   14.19    8.45
   5  18  -6   13.85    6.28
  -5 -18   6    4.41    5.44
  -5 -18   7    6.09    5.83
   6 -17   6   10.91    6.95
   6 -17   5   12.63    4.82
   6 -17   4    5.04    4.15
   6 -17   3   16.98    8.26
   6 -17   2   41.07   12.41
   6 -17   1    4.25    3.24
   6 -17   0    8.14    5.09
   6 -17  -1   10.99    4.41
   6 -17  -2    8.48    4.33
   6 -17  -3    5.62    4.24
   6 -16  10   23.58   11.88
   6 -16   9    8.59    9.88
   6 -16   8    2.10    6.36
   6 -16   7    7.22    5.37
   6 -16   6    7.53    5.16
   6 -16   5    5.76    7.06
   6 -16   4    5.49    4.21
   6 -16   3    0.29    3.73
   6 -16   2   48.82   23.08
   6 -16   1    6.67    4.04
   6 -16   0   16.06    7.11
   6 -16  -1   14.98    5.86
   6 -16  -2   12.53    4.97
   6 -16  -3    2.05    2.06
   6 -16  -4    1.62    2.06
   6 -15  13   12.87    8.69
   6 -15  12   27.36   15.09
   6 -15  11    7.97    7.63
   6 -15  10   33.10   16.36
   6 -15   9   31.94   15.39
   6 -15   8   12.21    7.04
   6 -15   7   10.44    8.78
   6 -15   6    2.77    6.02
   6 -15   5    4.88    6.09
   6 -15   4   14.05    7.83
   6 -15   3   11.93    4.70
   6 -15   2   24.01    8.82
   6 -15   1    9.02    6.33
   6 -15   0   16.06    7.61
   6 -15  -1   11.99    4.27
   6 -15  -2    5.06    3.55
   6 -15  -3   16.32    6.38
  -6  15   4    3.02    2.16
   6 -15  -4    2.64    2.94
  -6  15   5    4.48    3.01
   6 -15  -5    8.25    3.41
  -6  15   6    3.59    3.69
  -6  15   7    5.30    3.27
  -6  15   8    6.46    3.29
  -6  15   9    3.27    4.11
  -6  15  10    2.70    2.86
   6 -14  15   20.17   14.73
   6 -14  14    6.83    9.01
   6 -14  13   12.47    8.81
   6 -14  12    2.15    8.08
   6 -14  11   17.18    9.88
   6 -14  10   10.26    9.36
   6 -14   9   38.30   14.30
   6 -14   8    5.82    7.61
   6 -14   7   35.19   12.40
   6 -14   6   15.85   12.54
   6 -14   5   12.19    6.65
   6 -14   4    4.55    5.84
   6 -14   3   15.13    6.80
   6 -14   2   18.63    8.27
   6 -14   1    8.91    5.61
   6 -14  -1   26.59   10.67
  -6  14   2    5.91    1.76
   6 -14  -2   13.85    4.68
  -6  14   3   36.35    8.96
   6 -14  -3   35.65    9.87
  -6  14   4    4.11    2.29
   6 -14  -4    5.64    2.80
  -6  14   5   63.18    7.91
   6 -14  -5   54.46    6.78
  -6  14   6    2.27    2.58
   6 -14  -6    3.75    2.48
  -6  14   7   17.40    6.46
  -6  14   8    6.78    3.41
  -6  14   9    3.47    2.91
  -6  14  10    9.03    5.42
  -6  14  11    4.19    3.04
  -6  14  12    9.81    4.54
   6 -13  17   10.15   14.00
   6 -13  16    8.27   10.38
   6 -13  15   17.20    9.89
   6 -13  14    7.99    9.37
   6 -13  13   30.76   13.76
   6 -13  12    7.75    8.52
   6 -13  11   18.41    9.97
   6 -13  10    9.83    8.55
   6 -13   9    7.36    8.64
   6 -13   8    0.19    8.28
   6 -13   7    8.06    8.03
   6 -13   6   25.00   11.10
   6 -13   5   41.58   14.73
   6 -13   4    0.59    6.39
   6 -13   3    8.26    5.81
   6 -13   2    1.40    4.58
   6 -13   1   17.23    9.70
   6 -13   0    3.28    3.63
  -6  13   1   20.78    8.38
   6 -13  -1   22.61    6.66
  -6  13   2   47.38    5.36
   6 -13  -2   43.22   14.41
  -6  13   3   37.54   10.92
   6 -13  -3   31.70   11.17
  -6  13   4    4.85    2.49
   6 -13  -4    3.21    2.88
  -6  13   5   27.18    9.02
   6 -13  -5   17.29    5.95
  -6  13   6    3.27    2.07
   6 -13  -6    4.24    2.53
  -6  13   7    6.22    4.05
  -6  13   8   18.84    7.43
  -6  13   9    2.92    2.53
  -6  13  10    1.70    2.58
  -6  13  11   24.31   10.45
  -6  13  12   14.37    7.13
  -6  13  13    7.84    4.09
  -6  13  14   15.68    8.09
   6 -12  18    4.70   10.89
   6 -12  17   21.65   16.44
   6 -12  16    2.32   10.89
   6 -12  15   23.20   16.57
   6 -12  14   17.67   10.67
   6 -12  13   25.16   10.06
   6 -12  12   28.51   11.75
   6 -12  11   24.40   15.05
   6 -12  10   -5.05    9.41
   6 -12   9   12.31    8.60
   6 -12   8   16.39   12.56
   6 -12   7    5.13    7.23
   6 -12   6    9.06    8.27
   6 -12   5   20.55    8.93
   6 -12   4    8.53    6.55
   6 -12   3    4.83    5.40
   6 -12   2    4.80    5.16
   6 -12   1    2.54    4.66
   6 -12   0    8.55    5.86
  -6  12   1    1.75    1.29
   6 -12  -1    9.37    4.97
  -6  12   2   48.13    9.92
   6 -12  -2   40.65   11.99
  -6  12   3    6.04    2.30
   6 -12  -3    8.97    3.42
  -6  12   4   12.52    2.93
   6 -12  -4   23.03    7.53
  -6  12   5    6.08    2.73
   6 -12  -5    5.05    2.65
  -6  12   6    2.15    1.98
   6 -12  -6    4.05    2.32
  -6  12   7    7.36    3.80
   6 -12  -7    4.20    2.03
  -6  12   8    2.98    3.95
  -6  12   9    3.27    3.55
  -6  12  10    2.32    2.63
  -6  12  11   37.83   10.22
  -6  12  12   37.47   10.57
  -6  12  13    0.97    3.90
  -6  12  14   30.47   12.74
  -6  12  15   -1.95    3.10
   6 -11  19   28.26   18.23
   6 -11  18   22.57   16.94
   6 -11  17   13.96   12.31
   6 -11  16   -2.73   10.01
   6 -11  15   11.14   10.25
   6 -11  14   71.09   19.58
   6 -11  13   11.92   10.11
   6 -11  12   28.83   12.99
   6 -11  11    7.49    9.93
   6 -11  10   12.15    9.86
   6 -11   9    5.18    8.81
   6 -11   8   43.17   13.26
   6 -11   7   -2.09    8.44
   6 -11   6   27.65   12.91
   6 -11   5   18.23   13.57
   6 -11   4   18.18   10.13
   6 -11   3    3.91    6.74
   6 -11   2    0.32    5.44
   6 -11   1    6.66    6.36
   6 -11   0  114.23   13.38
  -6  11   1    5.60    1.56
   6 -11  -1    3.48    1.51
   6 -11  -1    2.56    3.81
  -6  11   2    1.43    1.52
   6 -11  -2    3.57    1.41
   6 -11  -2    2.19    3.97
  -6  11   3    4.79    2.13
   6 -11  -3    5.28    3.40
  -6  11   3    1.20    1.46
  -6  11   4   22.72    9.68
   6 -11  -4   24.40    6.53
  -6  11   5   23.51    7.60
   6 -11  -5   22.55    3.81
  -6  11   6   13.61    4.58
   6 -11  -6    9.19    2.84
  -6  11   7   17.85    5.10
   6 -11  -7   13.38    3.31
  -6  11   8   -1.16    2.44
   6 -11  -8    1.68    1.10
  -6  11   9    7.44    3.97
  -6  11  10   11.35    3.78
  -6  11  11   11.10    4.62
  -6  11  12    5.88    4.81
  -6  11  13   -1.22    3.44
  -6  11  14    6.59    4.65
  -6  11  15   15.40    7.78
  -6  11  16    1.20    4.09
  -6  11  17   10.13    7.66
   6 -10  20    6.58   11.87
   6 -10  19   13.33   12.22
   6 -10  18   16.22   16.73
   6 -10  17   18.20   12.37
   6 -10  16   13.23   11.61
   6 -10  15   -5.86    9.45
   6 -10  14    3.89    9.80
   6 -10  13    0.81   10.71
   6 -10  12    1.35   10.55
   6 -10  11    3.63   10.17
   6 -10  10   14.73   10.10
   6 -10   9    2.16    8.63
   6 -10   8    3.89    8.48
   6 -10   7    6.22    8.43
   6 -10   6   20.71   14.80
   6 -10   5   83.09   20.57
   6 -10   4   29.49   15.47
   6 -10   3   69.08   18.04
   6 -10   2   41.55   14.65
   6 -10   1   58.35   13.82
   6 -10   0    3.32    4.38
  -6  10   1   28.61    8.20
   6 -10  -1   34.84   11.67
  -6  10   2   28.22    8.33
   6 -10  -2   20.42    7.63
   6 -10  -2   28.20    9.71
  -6  10   3   36.52   10.66
   6 -10  -3   39.11   11.41
   6 -10  -3   21.32    8.04
  -6  10   4   24.22    9.06
   6 -10  -4   14.85    5.14
   6 -10  -4   21.17    8.50
  -6  10   5   33.35    7.44
   6 -10  -5    5.38    2.44
   6 -10  -5   22.37    9.76
  -6  10   6   35.74    7.94
   6 -10  -6   28.26    7.28
  -6  10   7   14.53    5.68
   6 -10  -7   12.41    4.17
  -6  10   8   42.37   10.08
   6 -10  -8   20.89    3.46
  -6  10   9  103.52   10.45
  -6  10  10    4.41    4.30
  -6  10  11   28.94    6.72
  -6  10  12   13.96    5.65
  -6  10  13    3.61    4.66
  -6  10  14   10.25    4.98
  -6  10  15    8.28    6.40
  -6  10  16    5.02    6.75
  -6  10  17    4.84    4.26
  -6  10  18    5.62    5.85
   6  -9  20   21.00   12.71
   6  -9  19   18.33   14.80
   6  -9  18   10.92    9.99
   6  -9  17    8.20   14.10
   6  -9  16   23.07   16.30
   6  -9  15   10.60   10.27
   6  -9  14   40.56   16.86
   6  -9  13   10.40   11.34
   6  -9  12   40.56   15.88
   6  -9  11    3.60   10.95
   6  -9  10    8.20    9.47
   6  -9   9   26.88   12.93
   6  -9   8    0.60    8.38
   6  -9   7   19.81   12.23
   6  -9   6    4.32   10.26
   6  -9   5   20.87   10.73
   6  -9   4   14.67   12.60
   6  -9   3   96.43   15.51
   6  -9   2   30.75   12.05
   6  -9   1  223.27   17.65
   6  -9   0   13.92    3.38
   6  -9   0   12.90   12.03
   6  -9  -1    3.96    1.23
   6  -9  -1   13.14    7.50
  -6   9   2    3.43    1.48
   6  -9  -2    2.49    1.75
   6  -9  -2    3.05    3.78
  -6   9   3    4.86    2.52
   6  -9  -3    1.31    1.87
   6  -9  -3    7.23    3.57
  -6   9   4    8.75    2.82
   6  -9  -4    3.21    1.52
   6  -9  -4   14.99    5.28
  -6   9   5   13.57    5.22
   6  -9  -5    3.55    2.15
   6  -9  -5    4.83    2.38
  -6   9   6   27.58    8.93
   6  -9  -6   15.75    5.68
   6  -9  -6   19.73    9.92
   6  -9  -6   19.23    7.84
  -6   9   7   92.06   17.01
   6  -9  -7   78.81   13.58
  -6   9   8   32.44    8.65
  -6   9   9  258.84   21.93
  -6   9  10   13.84    5.04
  -6   9  12   20.85    9.78
  -6   9  13    4.33    3.51
  -6   9  14   21.54    8.16
  -6   9  15    8.74    5.40
  -6   9  16   11.92    5.97
  -6   9  17   14.58    7.82
  -6   9  18   18.11    8.52
  -6   9  19   23.64    9.22
   6  -8  21    4.27   10.97
   6  -8  20   34.70   19.37
   6  -8  19   30.44   15.91
   6  -8  18    9.22   10.16
   6  -8  17    4.54    9.87
   6  -8  16   43.47   15.93
   6  -8  15   13.26   12.32
   6  -8  14    1.01   11.07
   6  -8  13   29.82   14.11
   6  -8  12   19.79   13.96
   6  -8  11   55.60   16.95
   6  -8  10   20.22   16.13
   6  -8   9   10.32    8.95
   6  -8   8   57.08   13.87
   6  -8   7   19.37   15.70
   6  -8   6   26.80   10.50
   6  -8   5    6.42    9.06
   6  -8   4   16.86   12.75
   6  -8   3    6.59    8.52
   6  -8   2   21.65   11.57
   6  -8   1  186.54   19.82
  -6   8   0    8.80    2.24
   6  -8   0    6.56    1.21
   6  -8   0   22.25   13.60
  -6   8   1   21.83    4.45
   6  -8  -1   16.04    4.11
   6  -8  -1   16.91    7.34
  -6   8   2  140.06   11.07
   6  -8  -2  140.64   11.09
   6  -8  -2  130.04   12.82
  -6   8   3    6.49    2.83
   6  -8  -3    5.98    1.95
   6  -8  -3    9.47    6.27
  -6   8   4   25.90    6.21
   6  -8  -4    9.85    2.25
   6  -8  -4   30.84   11.90
   6  -8  -4   28.36    7.93
  -6   8   5   46.81    8.32
   6  -8  -5   46.23    8.02
   6  -8  -5   18.16    8.31
   6  -8  -5   53.73    8.74
  -6   8   6    5.05    3.23
   6  -8  -6    5.32    2.48
   6  -8  -6    4.45    1.73
  -6   8   7    6.93    3.91
   6  -8  -7    3.08    2.88
   6  -8  -7    3.78    1.39
   6  -8  -7    4.22    1.18
  -6   8   8   31.95   10.21
  -6   8   9    4.00    4.21
  -6   8  10   14.35    6.18
  -6   8  11    3.42    2.70
  -6   8  12   20.77    6.34
  -6   8  13    3.73    4.11
  -6   8  14    7.07    4.56
  -6   8  15   55.87   12.62
  -6   8  16    1.79    3.85
  -6   8  17   20.42    9.16
  -6   8  18   14.38    6.58
  -6   8  19   11.91    8.61
   6  -7  22    1.43    9.89
   6  -7  21    5.66    9.72
   6  -7  20   18.51   13.83
   6  -7  19    4.53    9.82
   6  -7  18   12.76   10.60
   6  -7  17   -4.80    9.33
   6  -7  16   15.67   10.52
   6  -7  15   25.31   15.86
   6  -7  14    2.85   10.58
   6  -7  13   33.86   13.36
   6  -7  12   -2.13   10.31
   6  -7  11    5.89    9.55
   6  -7  10   24.97   11.74
   6  -7   9   11.80   14.78
   6  -7   8  126.69   15.03
   6  -7   7   16.84   14.56
   6  -7   6  112.43   22.73
   6  -7   5   25.82   13.60
   6  -7   4    6.57    8.66
   6  -7   3   39.90   14.75
   6  -7   2   38.31   13.08
   6  -7   1   27.11   12.63
  -6   7   0   14.52    3.86
  -6   7   1   20.17    5.48
   6  -7  -1   17.51    4.82
   6  -7  -1   13.17    6.80
  -6   7   2   55.37   10.18
   6  -7  -2   61.71   11.15
   6  -7  -2   71.76   23.32
   6  -7  -2   74.17   16.01
  -6   7   3    5.89    2.82
   6  -7  -3    7.35    2.92
   6  -7  -3    4.74    3.14
   6  -7  -3    6.45    4.30
  -6   7   4   89.69   13.67
   6  -7  -4   84.74   13.33
   6  -7  -4   88.92   15.08
   6  -7  -4   95.74   15.07
  -6   7   5   16.47    5.24
   6  -7  -5    9.18    3.08
   6  -7  -5   16.95    6.33
   6  -7  -5   18.43    5.55
  -6   7   6   66.23   10.79
   6  -7  -6   50.41   11.87
   6  -7  -6   40.13   11.28
   6  -7  -6   52.34   11.11
  -6   7   7    3.61    3.74
   6  -7  -7    0.19    1.93
  -6   7   8    4.44    4.83
  -6   7   9   56.40   12.05
  -6   7  10    3.73    3.85
  -6   7  11    2.53    2.90
  -6   7  12   10.26    5.31
  -6   7  13    3.94    4.05
  -6   7  14   10.86    5.55
  -6   7  15   11.36    4.53
  -6   7  16   18.64    6.25
  -6   7  17   14.63    7.88
  -6   7  18    6.34    5.20
  -6   7  19   30.72   14.79
  -6   7  20    4.82    6.66
   6  -6  22   12.65   13.95
   6  -6  21   13.04   14.17
   6  -6  20   11.26    9.70
   6  -6  19   14.89   10.43
   6  -6  18   21.15    6.89
   6  -6  18    4.13    8.75
   6  -6  17    1.69    1.50
   6  -6  17    1.30    8.05
   6  -6  16   20.63    8.49
   6  -6  16   18.47   12.24
   6  -6  15   22.84    6.87
   6  -6  15   23.23   15.97
   6  -6  14    3.08    1.52
  -6   6 -14    1.81    1.23
   6  -6  14   19.36   16.54
   6  -6  13    2.12    1.18
   6  -6  13    0.32   10.00
   6  -6  12    8.83   10.07
   6  -6  11   13.74   13.36
   6  -6  10   20.40   14.55
   6  -6   9   52.05   16.11
   6  -6   8   34.63   16.18
   6  -6   7   15.98   13.83
   6  -6   6    6.03    9.13
   6  -6   5   21.90    9.99
   6  -6   4   14.54    7.52
   6  -6   3   13.42   10.73
   6  -6   2   19.50   12.01
   6  -6   1   83.61    7.32
   6  -6   1   81.14    3.05
   6  -6   1  100.85   14.76
  -6   6   0   47.56   10.96
   6  -6   0   48.58    9.51
   6  -6   0   84.81   28.67
   6  -6   0   28.66    9.72
  -6   6   1   83.71   12.04
   6  -6  -1   82.44    8.47
   6  -6  -1  143.79   37.46
   6  -6  -1   58.39   14.19
  -6   6   2  127.25   14.14
   6  -6  -2  118.22   13.35
   6  -6  -2   88.33   24.13
   6  -6  -2   99.27   13.98
  -6   6   3  111.43   13.19
   6  -6  -3   91.69   11.95
   6  -6  -3   86.07   18.77
   6  -6  -3   98.15   13.36
  -6   6   4   36.38    8.15
   6  -6  -4   28.52    7.09
   6  -6  -4   28.44   11.06
   6  -6  -4   34.67    8.57
  -6   6   5   10.95    4.00
   6  -6  -5    7.42    4.46
   6  -6  -5    3.11    1.72
   6  -6  -5    4.28    3.39
  -6   6   6   28.51    7.06
   6  -6  -6   23.23    5.99
   6  -6  -6   22.42    5.91
   6  -6  -6   25.01    5.17
  -6   6   7   11.85    3.61
   6  -6  -7    8.48    3.88
  -6   6   8    1.78    2.76
  -6   6   9   16.11    6.20
  -6   6  10    4.29    4.08
  -6   6  11   15.61    6.92
  -6   6  12   23.63    6.67
  -6   6  13   64.27   14.24
  -6   6  14   26.26    9.84
  -6   6  15   65.38   10.57
  -6   6  16    9.51    4.65
  -6   6  17   -0.27    4.87
  -6   6  18    7.78    7.30
  -6   6  19    4.58    4.62
  -6   6  20    9.75    6.77
  -6   6  21   14.68    8.14
   6  -5  22    8.95   13.41
   6  -5  21    2.33    9.33
   6  -5  20    2.49    2.12
   6  -5  20   11.19    9.37
   6  -5  19    5.58    3.31
   6  -5  19   15.89   13.19
   6  -5  18   22.41    7.55
   6  -5  18    7.94    8.52
   6  -5  17   42.19   12.24
   6  -5  17   71.27   18.59
   6  -5  16   78.86    7.51
   6  -5  16  130.92   19.18
   6  -5  15    3.48    2.09
   6  -5  15   10.95   10.07
   6  -5  14   25.29    5.35
  -6   5 -14   26.60    5.53
   6  -5  14   40.48   12.37
   6  -5  13    4.02    1.90
  -6   5 -13    2.91    1.43
   6  -5  13    1.56    9.86
   6  -5  12    2.98    1.43
   6  -5  12   11.31    9.75
   6  -5  11    6.22    1.50
   6  -5  11    2.29    8.85
   6  -5  10    2.98    0.94
   6  -5  10    1.26    9.71
   6  -5   9   37.63   16.01
   6  -5   8   21.07   15.59
   6  -5   7  210.00   21.52
   6  -5   6   13.56    8.67
   6  -5   5   30.44   12.27
   6  -5   4   17.84    8.71
   6  -5   3   48.24   15.11
   6  -5   3   22.48    8.72
   6  -5   2    9.45    1.71
   6  -5   2    6.07    1.16
   6  -5   2   17.82    7.81
   6  -5   2   18.56   10.63
   6  -5   1    6.22    2.79
   6  -5   1    6.95    2.10
   6  -5   1    2.81    2.15
   6  -5   1   12.22    8.96
  -6   5   0    2.34    1.53
   6  -5   0    0.89    1.74
   6  -5   0    7.02    4.34
   6  -5   0   13.10    8.27
  -6   5   1   13.68    3.26
   6  -5  -1    9.80    4.14
   6  -5  -1    6.13    2.97
   6  -5  -1    1.46    5.26
  -6   5   2   34.04    7.42
   6  -5  -2   22.26    6.71
   6  -5  -2   28.05    8.58
   6  -5  -2   13.82    4.00
  -6   5   3   58.06   11.66
   6  -5  -3   46.64    9.80
   6  -5  -3   45.75   14.80
   6  -5  -3   71.97   15.26
  -6   5   4  112.29   11.67
   6  -5  -4   98.39   10.55
   6  -5  -4  101.98   12.39
   6  -5  -4  102.11   11.72
  -6   5   5  154.49   13.07
   6  -5  -5  153.35   13.87
   6  -5  -5  129.69   17.20
   6  -5  -5  153.61   13.10
  -6   5   6    7.56    3.71
   6  -5  -6    9.19    4.26
   6  -5  -6    2.98    1.33
   6  -5  -6    4.09    2.66
  -6   5   7    8.52    3.54
   6  -5  -7   12.52    4.72
  -6   5   8   41.53   10.43
  -6   5   9   14.03    4.02
  -6   5  10    0.18    3.05
  -6   5  11   22.10   10.04
  -6   5  12   13.11    5.43
  -6   5  13   72.20    7.78
  -6   5  14    6.68    4.63
  -6   5  15   71.20   10.01
  -6   5  16    3.37    4.41
  -6   5  17    4.02    4.71
  -6   5  18   14.65    8.35
  -6   5  19   17.97    8.76
  -6   5  20    3.58    4.76
  -6   5  21   13.06    6.97
   6  -4  23   21.52   14.04
   6  -4  22   12.13    4.22
   6  -4  22   37.86   18.97
   6  -4  21    8.92    5.07
   6  -4  21   17.12   12.55
   6  -4  20   13.81    5.68
   6  -4  20   17.37   10.99
   6  -4  19    3.25    3.29
   6  -4  19   10.25    7.41
   6  -4  18    9.29    3.45
   6  -4  18   19.75   10.86
   6  -4  17    8.97    2.97
   6  -4  17    6.95    9.85
   6  -4  16    3.30    2.05
   6  -4  16   19.94   10.28
   6  -4  15    1.47    1.98
  -6   4 -15    3.79    2.04
   6  -4  15   18.17   12.54
   6  -4  14    7.61    3.57
  -6   4 -14    4.50    2.37
   6  -4  14   12.67    9.89
   6  -4  13    1.69    1.72
  -6   4 -13    3.81    2.07
   6  -4  13    7.21    9.19
   6  -4  12   10.23    3.09
  -6   4 -12    5.13    1.78
   6  -4  12   23.95   13.51
   6  -4  11    5.00    2.61
   6  -4  11   10.57    7.52
   6  -4  10   10.73    3.12
   6  -4  10   14.94    4.33
   6  -4  10   18.86    9.32
   6  -4   9   93.75   10.13
   6  -4   9  107.56   12.15
   6  -4   9  104.29   16.79
   6  -4   8    3.58    1.26
   6  -4   8    2.50    1.76
   6  -4   8    5.84    8.24
   6  -4   7  205.21   14.58
   6  -4   7  247.37   24.48
   6  -4   6   17.35    4.22
   6  -4   6   13.15    1.98
   6  -4   6   26.46   10.98
   6  -4   5    3.89    1.56
   6  -4   5    3.53    1.56
   6  -4   5    0.79    5.75
   6  -4   4    9.62    1.93
   6  -4   4   15.10    3.86
   6  -4   4   11.90    7.89
   6  -4   3  106.32    9.92
   6  -4   3  106.41    9.26
   6  -4   3   88.05   24.96
   6  -4   3  122.98   13.93
   6  -4   2   12.57    2.95
   6  -4   2   22.87    6.42
   6  -4   2   13.55    4.83
   6  -4   1   17.67    5.45
   6  -4   1   28.84    8.33
   6  -4   1   20.94   11.08
   6  -4   1   23.35    8.22
   6  -4   0    6.39    3.00
   6  -4   0    4.89    4.00
   6  -4   0   10.73    5.47
  -6   4   1    4.11    1.87
   6  -4  -1    4.29    2.50
   6  -4  -1    3.02    1.64
   6  -4  -1   10.38    7.93
  -6   4   2    3.66    3.15
   6  -4  -2    5.01    2.78
   6  -4  -2    8.18    3.58
   6  -4  -2    7.45    5.94
  -6   4   3  146.48   13.11
   6  -4  -3  126.98   11.36
   6  -4  -3  118.08   15.64
   6  -4  -3  146.20   13.91
  -6   4   4    5.51    2.69
   6  -4  -4   10.34    4.21
   6  -4  -4   12.51    3.92
   6  -4  -4   10.99    5.29
  -6   4   5  102.08   11.18
   6  -4  -5   84.02    9.52
   6  -4  -5   80.65    4.13
   6  -4  -5   84.16   10.16
  -6   4   6  124.92   12.04
   6  -4  -6  106.47   12.16
   6  -4  -6  109.36    9.55
   6  -4  -6  108.55   10.41
  -6   4   7   13.33    4.10
   6  -4  -7   10.83    4.73
   6  -4  -7    7.26    1.38
   6  -4  -7    8.17    1.62
  -6   4   8   16.87    5.80
  -6   4   9   31.54    8.10
  -6   4  10    8.39    4.96
  -6   4  11    4.39    5.40
  -6   4  12   25.27   11.05
  -6   4  14    4.33    4.10
  -6   4  15   33.09   11.14
  -6   4  16   19.27   10.39
  -6   4  17    9.30    6.54
  -6   4  18    4.62    4.43
  -6   4  19   12.43    7.83
  -6   4  20   26.27   12.37
  -6   4  21   32.58   14.30
  -6   4  22   11.81    7.24
   6  -3  23   38.93   11.92
   6  -3  23   43.57   17.05
   6  -3  22   18.54    5.47
   6  -3  22   21.16    8.58
   6  -3  21    8.03    4.45
   6  -3  21   17.10   12.74
   6  -3  20   17.07    7.08
   6  -3  20   17.75   11.77
   6  -3  19    1.01    2.76
   6  -3  19   -5.99    7.16
   6  -3  18   36.56   11.77
   6  -3  18   17.36   12.14
   6  -3  17    5.57    4.19
   6  -3  17    1.71    8.32
   6  -3  16    8.16    3.07
   6  -3  16   21.90   12.40
   6  -3  15   12.32    5.40
  -6   3 -15    6.39    2.74
   6  -3  15   48.22   15.87
   6  -3  14    7.72    4.55
  -6   3 -14    8.05    2.57
   6  -3  14   11.77    7.13
   6  -3  13   10.49    5.14
  -6   3 -13    5.07    2.09
   6  -3  13   21.58   12.09
   6  -3  12    9.37    3.40
  -6   3 -12    4.83    2.16
   6  -3  12   13.02    8.99
   6  -3  11    8.99    5.26
   6  -3  11   12.56    8.09
   6  -3  10   12.01    4.37
   6  -3  10   14.31    9.44
   6  -3   9   10.07    3.43
   6  -3   9   22.97   11.28
   6  -3   8   15.62    4.41
   6  -3   8   10.08    3.43
   6  -3   8   13.22    9.89
   6  -3   7   75.06   14.05
   6  -3   7   78.68    4.94
   6  -3   7   73.05   16.10
   6  -3   6    1.88    1.32
   6  -3   6    4.65    2.07
   6  -3   6   12.65    8.49
   6  -3   5    0.64    1.02
   6  -3   5    2.46    1.36
   6  -3   5    4.77    7.40
   6  -3   4  196.46   14.81
   6  -3   4  208.46   15.65
   6  -3   4  232.92   20.46
   6  -3   3    3.95    2.17
   6  -3   3    4.72    2.40
   6  -3   3    3.35    2.92
   6  -3   3   -0.08    5.44
   6  -3   2   19.19    5.81
   6  -3   2   22.07    6.65
   6  -3   2   16.50    7.34
   6  -3   2    8.22    4.10
   6  -3   1    2.67    1.68
   6  -3   1    3.86    2.38
   6  -3   1    4.36    2.41
   6  -3   1    2.10    3.92
   6  -3   0   72.32    8.70
   6  -3   0   45.14   14.41
   6  -3   0   56.66   11.37
  -6   3   1   29.68   10.94
   6  -3  -1   17.40    5.63
   6  -3  -1   12.90    6.48
   6  -3  -1   24.72    8.85
  -6   3   2   33.42    9.53
   6  -3  -2   15.06    4.20
   6  -3  -2   13.46    5.06
   6  -3  -2   22.63    7.35
  -6   3   3  178.74   15.01
   6  -3  -3  155.93   12.99
   6  -3  -3  154.62   19.33
   6  -3  -3  168.38   13.71
  -6   3   4    2.28    3.83
   6  -3  -4    5.25    2.66
   6  -3  -4    1.90    1.28
   6  -3  -4    6.20    3.54
  -6   3   5  178.88   15.64
   6  -3  -5  153.69   13.46
   6  -3  -5  174.08   13.81
   6  -3  -5  172.98   14.31
  -6   3   6  337.75   22.07
   6  -3  -6  325.49   21.01
   6  -3  -6  316.64   17.97
   6  -3  -6  342.60   20.07
  -6   3   7    9.70    5.64
   6  -3  -7    8.98    5.32
   6  -3  -7    5.14    1.57
   6  -3  -7    3.23    2.44
  -6   3   8   64.41   13.15
  -6   3   9    7.17    6.01
  -6   3  10   32.04    9.36
  -6   3  11    5.43    4.04
  -6   3  12    4.47    3.57
  -6   3  13   72.68   15.27
  -6   3  14    5.53    4.27
  -6   3  15   53.86   13.15
  -6   3  16   34.40   13.09
  -6   3  17    5.56    4.69
  -6   3  18   18.84    8.43
  -6   3  19    3.78    6.29
  -6   3  20    7.62    4.91
  -6   3  21   14.78    7.33
  -6   3  22    9.20    7.15
   6  -2  23    1.03    3.10
   6  -2  23   11.71   11.64
   6  -2  22    4.21    3.58
   6  -2  22    5.99    8.28
   6  -2  21    4.30    3.47
   6  -2  21   14.96    8.88
   6  -2  20   25.26    6.42
   6  -2  20   27.35   11.10
   6  -2  19   11.69    5.09
   6  -2  19   23.41   10.17
   6  -2  18    6.56    3.72
   6  -2  18    7.93    6.61
   6  -2  17    8.23    3.64
   6  -2  17   13.70    9.54
   6  -2  16    5.08    3.54
   6  -2  16    2.95    7.38
   6  -2  15   98.84   11.46
  -6   2 -15   57.69   12.46
   6  -2  15  107.89   17.58
   6  -2  14    8.27    4.61
  -6   2 -14    5.79    2.59
   6  -2  14    4.52   10.07
   6  -2  13    7.50    5.29
  -6   2 -13    0.08    1.54
   6  -2  13    9.95    6.13
   6  -2  12   16.41    6.39
  -6   2 -12   20.23    6.48
   6  -2  12   13.57    5.68
   6  -2  11    7.76    4.64
  -6   2 -11    3.71    1.71
   6  -2  11   10.86    9.28
   6  -2  10   92.61   12.15
  -6   2 -10   75.65   13.78
   6  -2  10   89.44   14.53
   6  -2   9   77.23   14.59
   6  -2   9   55.24   12.71
   6  -2   8    1.37    1.38
   6  -2   8    3.38    2.11
   6  -2   8    9.49    4.16
   6  -2   7   19.37    6.60
   6  -2   7   14.32    4.30
   6  -2   7   20.94    7.89
   6  -2   6   16.62    4.58
   6  -2   6   24.37    6.60
   6  -2   6   38.13   12.56
   6  -2   5   19.78    5.74
   6  -2   5   24.66    7.21
   6  -2   5   26.38    9.24
   6  -2   4   65.82    7.92
   6  -2   4   72.98    8.36
   6  -2   4   68.94   11.42
   6  -2   3  108.01   11.62
   6  -2   3  104.99   11.28
   6  -2   3   70.09   22.93
   6  -2   3  122.03   10.22
   6  -2   2  104.28   11.25
   6  -2   2   96.55   10.66
   6  -2   2   86.30   20.30
   6  -2   2  119.05   14.82
   6  -2   1   97.40   10.83
   6  -2   1   93.03   10.66
   6  -2   1   63.99   20.09
   6  -2   1   90.33   11.37
   6  -2   0   55.69   10.10
   6  -2   0   56.79   10.29
   6  -2   0   46.05   17.32
   6  -2   0   59.04    8.08
  -6   2   1    4.89    3.22
   6  -2  -1    3.98    2.41
   6  -2  -1    3.35    2.74
   6  -2  -1    4.13    4.66
  -6   2   2   61.85   15.16
   6  -2  -2   37.01    7.29
   6  -2  -2   34.14   11.33
   6  -2  -2   51.47    9.94
  -6   2   3    3.80    2.53
   6  -2  -3    7.66    3.39
   6  -2  -3    6.10    3.34
   6  -2  -3    3.22    2.41
  -6   2   4   31.04    9.43
   6  -2  -4   16.82    5.75
   6  -2  -4   28.21    8.03
   6  -2  -4   39.69    7.91
  -6   2   5   39.94    8.81
   6  -2  -5   25.93    7.84
   6  -2  -5   37.72    6.90
   6  -2  -5   39.87    7.73
  -6   2   6   96.69   10.93
   6  -2  -6   65.70   13.81
   6  -2  -6   67.62   12.69
   6  -2  -6   76.57   14.49
  -6   2   7   43.03   10.72
   6  -2  -7   33.33    8.36
   6  -2  -7   46.22    8.98
   6  -2  -7   39.95    8.18
  -6   2   8  101.18   13.61
   6  -2  -8  107.92   11.29
   6  -2  -8  104.24   11.20
  -6   2   9   13.59    6.22
  -6   2  10  135.16   14.02
  -6   2  11  198.93   17.93
  -6   2  12    9.63    4.41
  -6   2  13   37.26   12.66
  -6   2  14   87.24   18.60
  -6   2  15   10.45    5.46
  -6   2  16   42.80   11.28
  -6   2  17   14.20    8.37
  -6   2  18   19.43    8.41
  -6   2  23    9.60    7.40
   6  -1  23    9.16    5.63
   6  -1  23    8.12   10.89
   6  -1  22   28.89   12.62
   6  -1  22   18.16    9.19
   6  -1  21    6.92    4.04
   6  -1  21    6.72    7.48
   6  -1  20    5.85    4.08
   6  -1  20    0.98    6.58
   6  -1  19   38.25   12.93
   6  -1  19   34.66   14.45
   6  -1  18    6.01    4.50
   6  -1  18    6.67    6.02
   6  -1  17    0.05    3.93
   6  -1  17    7.31    7.42
   6  -1  16   10.01    7.06
   6  -1  16    9.78    7.14
   6  -1  15   10.94    5.35
   6  -1  15    4.70    6.67
   6  -1  14   37.56   12.65
  -6   1 -14   21.97    8.73
   6  -1  14   29.50   11.48
   6  -1  13   16.50    7.45
  -6   1 -13    6.76    2.91
   6  -1  13    9.56    6.80
   6  -1  12  207.22   18.91
  -6   1 -12  141.24    8.30
   6  -1  12  207.36   15.14
   6  -1  11    5.30    3.39
  -6   1 -11    2.73    1.91
   6  -1  11    1.91    6.19
   6  -1  10   13.52    4.05
  -6   1 -10   12.48    2.93
   6  -1  10   16.45    7.68
   6  -1   9    3.01    2.66
  -6   1  -9    3.67    2.46
   6  -1   9    6.65    5.95
   6  -1   8    5.91    2.01
   6  -1   8   10.14    4.40
   6  -1   8    4.39    5.92
   6  -1   7    5.69    2.27
   6  -1   7    7.69    3.13
   6  -1   7   23.16    9.68
   6  -1   6    0.83    1.81
   6  -1   6    5.39    3.26
   6  -1   6    6.33    7.48
   6  -1   5    3.23    2.42
   6  -1   5    5.17    2.90
   6  -1   5    7.04    4.73
   6  -1   4   44.82    8.31
   6  -1   4   48.55    8.98
   6  -1   3  193.20   15.48
   6  -1   3  205.67   16.20
   6  -1   3  139.62   26.06
   6  -1   2   39.18    8.06
   6  -1   2   36.40    7.84
   6  -1   2   24.81   10.02
   6  -1   1  192.57   15.62
   6  -1   1  183.33   15.22
   6  -1   1  154.35   27.53
   6  -1   0  207.36   15.26
   6  -1   0  212.10   16.01
   6  -1   0  195.73   17.62
  -6   1   1    4.37    3.35
   6  -1  -1    1.98    1.90
   6  -1  -1    4.76    2.80
  -6   1   2   44.31   12.22
   6  -1  -2   34.42    7.17
   6  -1  -2   24.68    7.23
  -6   1   3   67.13   18.21
   6  -1  -3   53.15   10.02
   6  -1  -3   69.49    8.50
  -6   1   4    2.67    2.88
   6  -1  -4    3.15    2.34
   6  -1  -4    4.04    2.42
  -6   1   5    5.13    3.09
   6  -1  -5    8.62    2.73
  -6   1   6   11.66    3.85
   6  -1  -6   13.07    3.90
   6  -1  -6    6.98    1.80
  -6   1   7    9.23    4.18
   6  -1  -7    7.22    1.64
  -6   1   8  140.84   14.83
   6  -1  -8  163.41   12.50
  -6   1   9   54.98   12.27
   6  -1  -9   46.54    9.49
   6  -1  -9   44.92    9.01
  -6   1  10   12.24    4.31
  -6   1  11   22.93    6.67
  -6   1  12    9.68    6.62
  -6   1  13   37.28   10.04
  -6   1  14    9.47    4.73
  -6   1  15    6.97    4.96
  -6   1  18   12.81    8.98
  -6   1  19   10.94    5.49
  -6   1  20    6.54    5.61
  -6   1  21    7.61    6.09
  -6   1  22    6.83    7.81
  -6   1  23   17.13   10.62
   6   0  23    4.03    4.54
   6   0  23   14.71   10.73
   6   0  22    2.36    4.27
   6   0  22    4.50    6.05
   6   0  21    4.34    4.57
   6   0  21    7.08    8.85
   6   0  20    2.93    4.91
   6   0  20    4.57    6.86
   6   0  19   16.26    7.48
   6   0  19   37.47   16.32
   6   0  18    5.08    4.66
   6   0  18   -1.56    5.32
   6   0  17    4.62    4.58
   6   0  17    0.35    6.44
   6   0  16    2.67    4.90
   6   0  16    1.20    6.47
   6   0  15    7.81    4.99
   6   0  15   25.18    9.56
   6   0  14    3.95    6.32
   6   0  14    7.46    6.16
   6   0  13    3.78    4.58
   6   0  13    7.25    6.14
   6   0  12   14.62    6.16
  -6   0 -12    8.77    3.30
   6   0  12    9.19    6.24
   6   0  11    2.47    3.63
  -6   0 -11    4.49    3.03
   6   0  11    7.18    8.06
   6   0  10   77.52   15.05
  -6   0 -10   66.22   12.72
   6   0  10   96.82   15.16
   6   0   9  178.94   15.38
  -6   0  -9  164.26   13.76
   6   0   8   30.80    7.13
  -6   0  -8   35.10    8.04
   6   0   7   11.59    4.91
   6   0   7   13.62    4.12
   6   0   6   15.36    5.47
   6   0   6   29.41    7.47
   6   0   5   36.12   13.72
   6   0   5   49.51    9.48
   6   0   4    2.54    1.90
   6   0   4    7.43    3.76
   6   0   3  252.19    8.93
   6   0   3  283.11   12.30
   6   0   2   15.13    3.99
   6   0   2   52.61   10.47
   6   0   2   14.27    4.97
   6   0   1   38.95    9.58
   6   0   1   28.45    7.95
   6   0   1   29.67   10.71
   6   0   0  161.73   11.36
   6   0   0  178.53   14.18
   6   0   0  187.17   14.64
   6   0  -1   36.47    9.05
   6   0  -1   34.55    9.11
   6   0  -1   23.42    6.05
  -6   0   2   26.40   10.03
   6   0  -2   16.56    6.21
   6   0  -2   12.62    3.59
  -6   0   3  264.92   19.07
   6   0  -3  249.99    9.69
   6   0  -3  254.29    8.60
  -6   0   4   14.20    6.11
   6   0  -4   11.92    4.83
   6   0  -4    3.73    2.35
  -6   0   5   37.83    8.06
   6   0  -5   35.04    7.29
  -6   0   5    4.35    5.21
   6   0  -5   48.68    8.94
  -6   0   6   20.60    6.75
  -6   0   6    5.77    4.32
   6   0  -6   18.68    6.99
  -6   0   7   10.29    4.64
  -6   0   7    7.37    3.28
   6   0  -7   12.28    2.69
  -6   0   8   43.64   11.07
  -6   0   8    4.61    5.66
   6   0  -8   25.51    7.56
  -6   0  10    6.49    2.97
  -6   0  11    5.06    5.55
  -6   0  11    1.69    1.84
   6   0 -12    4.40    1.24
  -6   0  15   27.84    8.69
  -6   0  16    0.84    4.17
  -6   0  17    2.35    4.05
  -6   0  18   -0.44    4.50
  -6   0  19   17.27    6.12
  -6   0  20    6.70    7.84
  -6   0  21    2.50    5.40
  -6   0  22    2.79    5.22
  -6   0  23    1.00    4.82
   6   1  23    0.48    4.62
   6   1  23    5.87    6.17
   6   1  22   -1.79    4.66
   6   1  22   10.98    6.63
   6   1  21    6.27    5.29
   6   1  21    2.71    8.89
   6   1  20    9.78    7.47
   6   1  20    6.10    6.52
   6   1  19   10.41    5.74
   6   1  19   15.18    8.22
   6   1  18    5.86    8.20
   6   1  18   -3.08    5.39
   6   1  17   18.95   10.78
   6   1  17   16.18    9.33
   6   1  16   42.41   12.63
   6   1  16   27.92   12.83
   6   1  15    6.20    6.91
   6   1  15    2.57    6.63
   6   1  14   12.29    5.30
   6   1  14   14.99    7.97
   6   1  13   26.98    7.38
   6   1  13   30.19    8.89
   6   1  12    6.89    5.32
   6   1  12    5.87    5.47
   6   1  11   12.40    5.20
  -6  -1 -11    8.17    2.96
   6   1  10    7.60    3.83
  -6  -1 -10    9.27    3.05
  -6  -1  -9   51.87   10.98
  -6  -1  -8  142.06   13.22
   6   1   7    3.04    2.35
   6   1   7    6.71    3.14
   6   1   6    5.34    2.70
   6   1   6    9.62    4.48
   6   1   5    9.40    3.50
   6   1   5   10.13    3.37
   6   1   4    7.28    4.10
   6   1   4    4.38    4.78
   6   1   3   62.20    8.04
   6   1   3   63.88    9.22
   6   1   2   29.50    8.73
   6   1   2   41.95    8.71
   6   1   2   17.78    5.77
   6   1   1    3.96    2.92
   6   1   1    5.28    2.98
  -6  -1  -1    3.70   12.43
   6   1   1    3.55    3.22
   6   1   0  170.38   12.23
  -6  -1   2   33.10    9.41
   6   1  -2   37.14    7.62
  -6  -1   2    1.27    4.63
   6   1  -2   24.18    7.24
  -6  -1   4   78.44   23.36
   6   1  -4   49.38    9.89
  -6  -1   4    9.36    4.83
   6   1  -4   41.50    7.87
  -6  -1   5   12.95    8.34
  -6  -1   5    3.86    2.67
   6   1  -5    1.85    2.12
  -6  -1   6    4.42    4.53
  -6  -1   6    0.99    1.91
   6   1  -6    5.66    3.17
  -6  -1   7   12.78    6.06
  -6  -1   7    5.09    3.25
   6   1  -7   11.61    2.48
  -6  -1   8    6.97    6.05
  -6  -1   8    3.71    2.19
   6   1  -8    1.36    1.98
  -6  -1   9    8.24    3.18
  -6  -1   9    0.10    1.34
   6   1  -9    3.91    3.23
  -6  -1  10    2.20    1.53
   6   1 -10   13.66    3.04
  -6  -1  11    3.73    1.33
   6   1 -11    7.73    4.21
   6   1 -12  183.21    8.10
  -6  -1  13   23.34    9.54
   6   1 -13   11.73    3.47
  -6  -1  14   28.10   10.46
  -6  -1  15    8.87    6.33
  -6  -1  16    4.28    4.40
  -6  -1  17   10.71    6.77
  -6  -1  18   14.94    9.64
  -6  -1  19   51.46   12.79
  -6  -1  20    2.68    5.78
  -6  -1  21    9.36    6.35
  -6  -1  22   10.39    5.95
  -6  -1  23    2.59    5.33
   6   2  22   17.71    9.41
   6   2  22    5.12    6.58
   6   2  21    6.50    5.03
   6   2  21    6.33    6.71
   6   2  20   26.50   11.59
   6   2  20   17.81    8.85
   6   2  19   48.98   10.28
   6   2  19   64.77   15.46
   6   2  18   14.10    7.26
   6   2  18    9.14    5.53
   6   2  17   11.23    5.07
   6   2  17   31.22   13.23
   6   2  16   60.64   15.84
   6   2  16   70.03   18.56
   6   2  15   13.67    8.95
   6   2  15   29.44    9.98
   6   2  14   64.84   14.59
   6   2  13   28.44   10.08
   6   2  12    2.96    5.77
   6   2  11  229.13   20.17
   6   2  10  141.33   13.77
   6   2   9    1.67    3.71
  -6  -2  -9    5.83    4.12
   6   2   8   98.44   12.39
  -6  -2  -8   87.68   11.34
   6   2   7   50.20   11.75
   6   2   6   60.80   25.06
   6   2   6   85.21    9.62
   6   2   5   24.08    9.95
   6   2   5   48.06    6.67
   6   2   4   24.24    9.04
   6   2   4   32.61    8.35
   6   2   3    1.75    2.16
   6   2   3    5.02    5.39
  -6  -2  -3   13.51   13.86
   6   2   2   34.50    7.02
   6   2   2   47.32   10.20
   6   2   1    7.98    2.79
   6   2   1    7.37    3.59
  -6  -2  -1    7.54    5.55
   6   2   1    2.12    1.53
   6   2   0   36.70    7.43
   6   2   0   57.57   11.13
  -6  -2   0    3.43    3.83
   6   2   0   55.17   10.50
  -6  -2   3  135.12   33.70
  -6  -2   3    4.52    4.28
  -6  -2   4   96.50   24.86
  -6  -2   4   -0.20    2.73
  -6  -2   5   31.05   12.76
  -6  -2   5    2.62    1.90
   6   2  -5   25.98    7.63
  -6  -2   6   30.18    9.87
   6   2  -6   30.91    6.80
  -6  -2   7   19.57    8.82
   6   2  -7   17.65    7.39
  -6  -2   8    8.23    3.09
   6   2  -8    5.89    3.30
  -6  -2   9   73.27   22.38
   6   2  -9   63.92   11.62
  -6  -2  10   97.94   16.36
  -6  -2  10  103.08   19.20
   6   2 -10   68.42   12.55
  -6  -2  11    3.40    5.05
  -6  -2  11    4.15    2.38
   6   2 -11   -0.26    2.68
  -6  -2  12   19.83    8.52
  -6  -2  12   22.59    9.88
   6   2 -12   13.26    4.82
  -6  -2  13    6.10    4.78
  -6  -2  13    7.17    2.42
   6   2 -13    3.84    2.32
  -6  -2  14   19.34    8.95
  -6  -2  14    3.67    1.74
   6   2 -14    4.92    2.45
  -6  -2  15  105.32   14.47
  -6  -2  15   69.00   20.58
  -6  -2  16    2.93    5.13
  -6  -2  16    3.60    1.40
  -6  -2  17   13.09    5.47
  -6  -2  17    7.00    2.67
  -6  -2  18   17.63   10.49
  -6  -2  18    9.64    2.94
  -6  -2  19   37.15   15.44
  -6  -2  20   16.13    9.52
  -6  -2  21    6.57    6.20
  -6  -2  22   17.62    8.04
  -6  -2  23   18.75   10.30
   6   3  22    2.46    5.67
   6   3  22    2.81    6.38
   6   3  21   11.84    6.22
   6   3  21    9.86    7.18
   6   3  20   15.20    8.53
   6   3  20    9.43    6.47
   6   3  19    9.40    7.53
   6   3  19   10.12    8.17
   6   3  18   16.69    7.24
   6   3  18    4.22    5.70
   6   3  17   10.36    7.07
   6   3  17    3.07    7.48
   6   3  16   19.81    6.72
   6   3  16   26.23   10.07
   6   3  15   52.18   12.93
   6   3  14    4.46    5.86
   6   3  13   58.44   12.84
   6   3  12   10.43    5.99
   6   3  11    6.77    4.56
   6   3  10   33.64   10.50
   6   3   9    3.60    4.27
   6   3   8   59.05   13.07
   6   3   7    3.90    4.40
   6   3   6  356.36   22.86
   6   3   5  136.52   32.81
   6   3   5  191.38   16.80
   6   3   4    5.37    3.09
   6   3   4    8.37    4.13
  -6  -3  -4    6.47    5.10
  -6  -3  -3    2.23    4.32
   6   3   2   12.64    3.48
   6   3   2   25.43    8.66
  -6  -3  -2    7.77    4.31
   6   3   1   23.42    7.41
   6   3   1   23.92    9.30
   6   3   0   44.55    8.74
  -6  -3   0    0.88    3.19
   6   3  -1    0.17    2.27
   6   3  -1    4.62    4.13
  -6  -3   1    7.03    4.94
   6   3  -1    5.69    3.23
   6   3  -2   23.71    7.74
  -6  -3   2   -0.38    3.37
   6   3  -2   17.18    5.49
  -6  -3   3    5.05    4.64
   6   3  -3    2.17    2.01
  -6  -3   4  190.67   16.43
   6   3  -4  193.05   15.42
  -6  -3   5    4.76    2.45
   6   3  -5    3.12    2.26
  -6  -3   6    3.61    2.26
   6   3  -6    4.68    2.23
  -6  -3   7   87.18   19.47
  -6  -3   7   97.17   22.70
   6   3  -7   62.64   12.21
  -6  -3   8    9.77    5.65
  -6  -3   8   10.57    4.14
   6   3  -8    9.89    2.63
  -6  -3   9   27.35    9.67
  -6  -3   9   17.40    7.26
   6   3  -9    9.26    3.11
  -6  -3  10   15.22    7.81
  -6  -3  10   15.26    5.68
   6   3 -10   13.03    4.67
  -6  -3  11   30.30   11.09
  -6  -3  11    8.73    3.18
   6   3 -11   12.43    4.80
  -6  -3  12   12.75    7.73
  -6  -3  12    9.35    3.44
   6   3 -12    8.15    4.04
  -6  -3  13    7.78    4.99
  -6  -3  13    6.23    2.81
   6   3 -13    4.06    2.67
  -6  -3  14   10.12    4.56
  -6  -3  14    3.16    1.69
   6   3 -14    2.99    2.48
  -6  -3  15   12.71    6.44
  -6  -3  15   16.16    5.75
  -6  -3  16   15.00    6.32
  -6  -3  16   20.72    4.60
  -6  -3  17    7.61    5.80
  -6  -3  17    1.98    1.34
  -6  -3  18   57.98   11.61
  -6  -3  18   32.94    9.67
  -6  -3  19    0.63    5.24
  -6  -3  19    3.90    2.26
  -6  -3  20   21.78   10.39
  -6  -3  21   17.12    8.78
  -6  -3  22   30.47   13.88
  -6  -3  23   49.19   15.57
   6   4  22    3.15    5.74
   6   4  21   29.35   14.17
   6   4  21   21.84    6.83
   6   4  20    4.76    5.67
   6   4  20   10.40    9.31
   6   4  19   13.84    7.76
   6   4  19   30.17   12.80
   6   4  18   10.89    9.64
   6   4  18    4.52    7.16
   6   4  17    4.45    5.79
   6   4  16   16.33    9.47
   6   4  15   32.91   11.64
   6   4  14    2.45    4.37
   6   4  13    4.70    4.84
   6   4  12   20.95    9.35
   6   4  11    2.20    4.22
   6   4  10    1.38    3.99
   6   4   9    7.49    4.19
   6   4   8   15.51    4.84
  -6  -4  -8   10.17    9.04
   6   4   7   13.84    4.44
  -6  -4  -7   23.37   16.75
   6   4   6  123.53   15.95
  -6  -4  -5    1.21    5.90
   6   4   4    8.13    4.31
  -6  -4  -4    9.42    4.49
  -6  -4  -3    8.63    4.78
   6   4   2   15.95    8.17
  -6  -4  -2    5.14    3.94
   6   4   1    5.59    3.93
  -6  -4  -1    6.70    3.93
   6   4   0   10.68    5.95
   6   4  -1   31.43    7.57
  -6  -4   1   24.93   11.22
   6   4  -2   21.59    7.95
  -6  -4   2   18.36    8.34
   6   4  -2   17.10    5.74
   6   4  -3  118.00   13.02
  -6  -4   3  122.03   33.30
   6   4  -3  103.93   10.53
  -6  -4   4   12.93    5.70
  -6  -4   4   13.70    5.46
   6   4  -4    7.55    3.52
  -6  -4   5    4.12    4.64
  -6  -4   5    3.70    2.56
   6   4  -5    1.88    1.74
  -6  -4   6   39.89   12.06
  -6  -4   6   25.89   10.36
   6   4  -6   23.85    6.56
  -6  -4   7  228.83   47.61
  -6  -4   7  193.86   21.36
   6   4  -7  183.02   14.45
  -6  -4   8    5.38    3.86
  -6  -4   8    5.89    3.92
   6   4  -8    7.33    3.62
  -6  -4   9  106.01   16.27
  -6  -4   9   89.23   11.36
   6   4  -9   92.06   11.32
  -6  -4  10   15.97    8.06
  -6  -4  10   17.23    5.22
   6   4 -10    6.43    2.83
  -6  -4  11    6.89    5.12
  -6  -4  11    4.60    2.92
   6   4 -11    8.18    3.91
  -6  -4  12    5.68    4.97
  -6  -4  12    9.14    2.83
   6   4 -12    5.47    3.08
  -6  -4  13    6.80    7.10
  -6  -4  13    2.46    2.13
   6   4 -13    5.87    4.14
  -6  -4  14    1.08    5.07
  -6  -4  14    2.38    2.08
   6   4 -14    3.34    2.84
  -6  -4  15   14.59    8.87
  -6  -4  15    5.10    2.62
  -6  -4  16   12.83    5.64
  -6  -4  17    6.63    6.21
  -6  -4  17   11.99    3.19
  -6  -4  18    9.66    6.43
  -6  -4  18    8.02    2.73
  -6  -4  19    7.26    6.00
  -6  -4  19    1.84    2.12
  -6  -4  20   20.59   10.44
  -6  -4  20   21.42    7.04
  -6  -4  21    2.88    5.61
  -6  -4  22   40.29   16.91
  -6  -4  23    4.60    6.16
   6   5  21   12.57    8.02
   6   5  21    6.07    6.29
   6   5  20    1.59    5.89
   6   5  20   13.86    9.54
   6   5  19    8.08    8.19
   6   5  19   14.86    9.55
   6   5  18   18.91    8.19
   6   5  17   16.99    9.47
   6   5  16    3.56    5.30
   6   5  15   70.75   17.26
   6   5  14   10.05    6.51
   6   5  13   70.81    9.43
   6   5  12    6.90    5.01
   6   5  11   18.95    8.44
   6   5  10    5.50    4.90
  -6  -5 -10    7.12   11.49
   6   5   9   14.20    6.95
  -6  -5  -9   60.99   38.86
   6   5   8   60.54   11.60
  -6  -5  -8   -2.04    7.07
   6   5   7   11.10    3.81
  -6  -5  -7    9.67    7.46
   6   5   6    1.13    5.14
  -6  -5  -6   11.05    8.00
   6   5   5  158.69   14.58
   6   5   4  122.16   13.53
   6   5   3   62.66   14.09
  -6  -5  -3   52.43   25.28
   6   5   2   38.54   10.75
  -6  -5  -2    3.56    4.80
   6   5   1   17.95    7.78
  -6  -5  -1   -0.60    4.27
   6   5   0   14.68    7.73
   6   5  -1   13.40    7.46
  -6  -5   1   10.48    5.42
   6   5  -2   29.76    9.89
  -6  -5   2   18.38    9.96
   6   5  -3   54.07   13.73
  -6  -5   3   35.48   14.15
   6   5  -4    7.40    3.80
  -6  -5   4   28.31   11.57
  -6  -5   5   21.44    8.72
  -6  -5   5   19.78    8.12
  -6  -5   6   11.20    6.21
  -6  -5   6   16.47    6.42
   6   5  -6    7.86    2.55
  -6  -5   7  184.38   38.23
  -6  -5   7  201.85   17.34
  -6  -5   8   10.18    6.53
  -6  -5   8    4.38    4.23
   6   5  -8    4.65    3.13
  -6  -5   9   57.04   20.93
  -6  -5   9   45.73   10.99
   6   5  -9   34.34    8.56
  -6  -5  10    9.06    7.64
  -6  -5  10    3.74    3.83
   6   5 -10    3.19    3.28
  -6  -5  11    2.54    4.57
  -6  -5  11   14.44    5.73
   6   5 -11    4.17    4.03
  -6  -5  12    6.69    6.58
  -6  -5  12    7.26    3.11
   6   5 -12   10.21    4.54
  -6  -5  13    7.24    6.65
  -6  -5  13    1.50    1.93
   6   5 -13    1.33    2.88
  -6  -5  14   25.99    9.42
  -6  -5  14   37.56    8.24
  -6  -5  15    2.44    5.27
  -6  -5  15   14.44    5.12
  -6  -5  16  112.31   16.57
  -6  -5  16  121.52   10.64
  -6  -5  17   74.47   16.71
  -6  -5  17   68.02    8.45
  -6  -5  18    9.14    5.25
  -6  -5  18    8.02    2.95
  -6  -5  19   11.56    8.31
  -6  -5  19    5.51    2.69
  -6  -5  20   15.77    8.67
  -6  -5  20   10.50    3.27
  -6  -5  21    0.53    5.83
  -6  -5  22    9.54    7.92
   6   6  21   19.73   12.77
   6   6  20    8.27    8.63
   6   6  19    9.79    8.60
   6   6  18   12.86    8.43
   6   6  17    8.77    7.75
   6   6  16    3.82    5.45
   6   6  15   48.05   11.42
   6   6  14   29.68   10.29
   6   6  13   62.52   15.97
   6   6  12   14.05    7.78
   6   6  11    8.02    6.12
  -6  -6 -11   33.01   18.62
   6   6  10    9.07    5.24
  -6  -6 -10   16.32   14.85
   6   6   9    7.98    5.11
  -6  -6  -9   25.10   13.71
   6   6   8    4.48    5.14
  -6  -6  -8   16.62    8.06
   6   6   7   14.57    6.61
  -6  -6  -7    5.98    7.18
   6   6   6   24.94    7.97
  -6  -6  -6   20.71   10.29
   6   6   5    2.39    5.47
  -6  -6  -5   -0.37    5.97
   6   6   4   37.32    9.67
  -6  -6  -3   14.26    6.47
   6   6   2  121.89   15.87
  -6  -6  -2  104.46   26.10
   6   6   1   79.56   11.32
  -6  -6  -1  104.78   20.80
   6   6   0   50.65   11.87
  -6  -6   0   39.15   11.62
   6   6  -1   93.06   12.76
   6   6  -2   27.46    9.26
  -6  -6   2    9.64    4.62
   6   6  -3   11.11    5.93
  -6  -6   3   16.26    8.93
   6   6  -4   10.54    5.32
  -6  -6   4   17.06    8.43
   6   6  -5   40.56   11.38
  -6  -6   5   46.37   15.47
  -6  -6   6   11.05    5.78
  -6  -6   6   12.11    4.93
  -6  -6   7   12.81    7.14
  -6  -6   7    7.12    3.36
  -6  -6   8   20.58    7.47
  -6  -6   8   30.97    7.99
  -6  -6   9   52.14   16.72
  -6  -6   9   52.43   12.72
  -6  -6  10   18.72    8.09
  -6  -6  10   13.34    5.30
  -6  -6  11    2.97    3.17
  -6  -6  12   17.10    9.11
  -6  -6  12    2.82    4.16
  -6  -6  13    7.97    6.77
  -6  -6  13    5.63    4.18
  -6  -6  14   10.21    5.61
  -6  -6  14    9.90    3.98
  -6  -6  15   10.31    6.34
  -6  -6  15   28.20    8.80
  -6  -6  16   26.20    8.99
  -6  -6  16   42.68   12.75
  -6  -6  17   11.29    5.89
  -6  -6  17    2.91    3.60
  -6  -6  18   39.14   15.08
  -6  -6  18   23.86    7.82
  -6  -6  19    7.45    5.85
  -6  -6  19    7.97    2.82
  -6  -6  20    6.75    6.11
  -6  -6  20    6.87    3.85
  -6  -6  21   19.86    6.78
  -6  -6  21    9.93    3.86
  -6  -6  22   19.25    9.51
   6   7  20   12.55    8.78
   6   7  19   30.13   15.09
   6   7  18    6.80    8.90
   6   7  17    8.28    6.15
   6   7  16    9.35    8.00
   6   7  15   19.15    9.26
   6   7  14    3.85    4.63
   6   7  13    0.63    4.91
   6   7  12    2.21    4.38
  -6  -7 -12   30.55   20.76
   6   7  11    6.67    4.47
  -6  -7 -11   16.79   17.70
   6   7  10    3.99    4.50
  -6  -7 -10   10.25    5.86
   6   7   9   52.40   13.02
  -6  -7  -9    7.43    6.95
   6   7   8    1.82    5.02
  -6  -7  -8   27.85   11.05
   6   7   7    5.54    5.21
  -6  -7  -7    2.74    3.99
   6   7   6   65.74   12.50
  -6  -7  -5    6.68    4.01
  -6  -7  -4    1.25    3.84
   6   7   3    5.02    5.35
  -6  -7  -3   12.80    8.77
   6   7   2   72.09   16.71
  -6  -7  -2   53.11   15.00
   6   7   1   18.79    8.92
  -6  -7  -1   16.57    7.26
   6   7   0   25.08    9.14
  -6  -7   0   24.80   10.16
   6   7  -1   76.11   16.55
   6   7  -2   54.75   12.57
  -6  -7   2   45.73   16.06
   6   7  -3   43.15   11.53
  -6  -7   3   67.46   21.42
   6   7  -4   13.94    6.26
  -6  -7   4    5.14    3.93
   6   7  -5   17.37    6.73
  -6  -7   5   13.05    5.74
  -6  -7   6  102.84   16.84
  -6  -7   7   11.06    5.24
  -6  -7   7    7.14    5.34
  -6  -7   8  134.76   29.55
  -6  -7   8  120.59    9.96
  -6  -7   9    9.85    6.22
  -6  -7   9    9.32    4.26
  -6  -7  10   22.19   11.48
  -6  -7  10   16.74    6.79
  -6  -7  11    9.22    6.18
  -6  -7  11   16.21    6.72
  -6  -7  12    5.67    4.61
  -6  -7  12    4.44    3.44
  -6  -7  13   33.97   13.47
  -6  -7  13   32.28    8.28
  -6  -7  14    4.94    6.49
  -6  -7  14    3.54    3.07
  -6  -7  15   16.82    9.17
  -6  -7  15   13.26    7.16
  -6  -7  16    7.20    5.82
  -6  -7  16    8.02    3.79
  -6  -7  17    4.33    8.30
  -6  -7  17    1.63    2.57
  -6  -7  18    5.19    7.82
  -6  -7  18    5.99    3.76
  -6  -7  19    6.99    5.49
  -6  -7  19    4.48    3.48
  -6  -7  20   36.51   16.34
  -6  -7  20   18.96    5.07
  -6  -7  21    2.30    5.16
  -6  -7  21    1.83    2.04
  -6  -7  22    8.26    5.49
   6   8  19    7.08    6.43
   6   8  18    8.22    6.15
   6   8  17    6.52    6.00
   6   8  16    9.02    5.68
   6   8  15   62.52   13.80
   6   8  14    6.27    5.66
   6   8  13   11.58    6.03
  -6  -8 -13   -5.66   11.27
   6   8  12   19.40    8.18
  -6  -8 -12   34.13   22.48
   6   8  11   11.83    6.78
  -6  -8 -11    6.38    6.15
   6   8  10   26.74    9.99
  -6  -8 -10    4.23    7.74
   6   8   9   16.22    8.34
  -6  -8  -9   11.46   10.82
   6   8   8   32.20   11.84
  -6  -8  -8   37.36   19.18
   6   8   7    7.13    6.12
  -6  -8  -7    6.46    6.21
   6   8   6    6.95    4.63
  -6  -8  -6    6.60    5.19
  -6  -8  -5   -0.33    4.02
   6   8   4   28.12    8.61
  -6  -8  -4   40.28   25.58
   6   8   3   11.04    6.82
  -6  -8  -3   11.08    8.35
   6   8   2  154.96   15.64
  -6  -8  -2  186.34   46.15
   6   8   1   14.59    6.57
  -6  -8  -1   22.24   10.68
   6   8   0   13.84    7.19
  -6  -8   0   15.89    7.81
   6   8  -1  198.66   19.77
  -6  -8   1  163.07   37.43
   6   8  -2    7.68    5.85
   6   8  -3   14.51    7.11
  -6  -8   3    9.22    3.72
   6   8  -4   23.43   10.18
  -6  -8   4    4.93    4.01
   6   8  -5    3.88    4.64
  -6  -8   5   10.09    5.55
   6   8  -6   49.20   10.77
  -6  -8   6   48.36    9.57
   6   8  -7    5.96    5.41
  -6  -8   7    7.43    4.31
  -6  -8   8  110.77   22.79
  -6  -8   8  122.39   11.14
  -6  -8   9    8.96    5.60
  -6  -8   9    4.96    3.75
  -6  -8  10    5.66    4.06
  -6  -8  10   11.70    4.91
  -6  -8  11   95.84   17.69
  -6  -8  11   86.14   10.15
  -6  -8  12    8.29    4.82
  -6  -8  12    5.54    3.17
  -6  -8  13   21.25    9.51
  -6  -8  14    6.51    4.73
  -6  -8  14    7.13    3.29
  -6  -8  15   16.43   10.18
  -6  -8  15    9.76    4.65
  -6  -8  16   31.48   13.65
  -6  -8  16   12.11    4.37
  -6  -8  17    7.63    5.65
  -6  -8  17   10.42    3.88
  -6  -8  18   21.31    8.24
  -6  -8  18   25.03    8.66
  -6  -8  19   18.77    7.63
  -6  -8  19   15.81    6.36
  -6  -8  20   16.26    9.16
  -6  -8  20    7.93    4.32
  -6  -8  21   14.72    8.72
  -6  -8  21    5.62    3.25
   6   9  19    9.45    6.27
   6   9  18   13.91    8.32
   6   9  17    5.97    7.55
   6   9  16    3.52    5.10
   6   9  15   14.15    8.56
   6   9  14   11.21    5.52
  -6  -9 -14    0.54   10.30
   6   9  13   10.90    7.47
  -6  -9 -13   22.54   14.88
   6   9  12   28.94    8.49
  -6  -9 -12   17.60   13.56
   6   9  11   10.95    7.06
  -6  -9 -11   24.85   13.19
   6   9  10   17.83    8.89
  -6  -9 -10    5.65    9.03
   6   9   9  250.98   23.46
  -6  -9  -9  178.41   58.65
   6   9   8   22.60   11.24
  -6  -9  -8   12.33   11.16
   6   9   7   72.91   15.56
   6   9   6   25.76   11.29
  -6  -9  -6    0.64    5.78
   6   9   5   14.07    8.11
  -6  -9  -5   16.19    8.22
   6   9   4    8.94    4.13
  -6  -9  -4    9.04    5.38
   6   9   3    7.17    6.33
  -6  -9  -3   17.75   10.43
   6   9   2    5.79    4.84
  -6  -9  -2    3.49    3.60
   6   9   1   22.44    9.54
  -6  -9  -1   29.75   11.53
   6   9   0   17.08    8.36
  -6  -9   0   10.67    6.05
   6   9  -1  194.98   14.11
  -6  -9   1  191.32   27.18
   6   9  -2   44.84   10.28
  -6  -9   2   40.10   13.09
   6   9  -3   94.93   10.50
   6   9  -4   11.84    7.59
  -6  -9   4   27.23    9.21
   6   9  -5   59.77   12.56
  -6  -9   5   47.60   10.84
   6   9  -6    4.27    5.18
  -6  -9   6    5.17    3.77
   6   9  -7   10.25    5.61
  -6  -9   7   10.52    5.39
   6   9  -8   20.48   12.25
  -6  -9   8    2.55    3.62
  -6  -9   9    0.96    2.99
  -6  -9   9    5.68    3.75
  -6  -9  10    4.40    5.13
  -6  -9  10   22.60   11.32
  -6  -9  11   19.03    7.66
  -6  -9  11   13.15    5.98
  -6  -9  12   45.21   16.38
  -6  -9  12   63.91   15.09
  -6  -9  13   14.19    9.70
  -6  -9  13   25.08    6.18
  -6  -9  14   55.12   16.03
  -6  -9  15    4.11    4.32
  -6  -9  15    6.64    4.25
  -6  -9  16   20.36   10.75
  -6  -9  16   28.54    9.50
  -6  -9  17    3.64    4.46
  -6  -9  17    4.84    3.17
  -6  -9  18    6.56    3.49
  -6  -9  18    2.62    2.71
  -6  -9  19   28.59   15.60
  -6  -9  19   21.11    5.44
  -6  -9  20    7.68    5.24
  -6  -9  20    5.71    3.68
   6  10  18    3.90    6.27
   6  10  17    3.20    5.45
   6  10  16   27.52   12.53
   6  10  15    8.58    6.85
  -6 -10 -15    6.64   16.89
   6  10  14   12.28    8.46
  -6 -10 -14   12.41   14.61
   6  10  13    3.08    4.80
  -6 -10 -13    8.46    9.45
   6  10  12   24.13   10.69
  -6 -10 -12   10.81    8.23
   6  10  11   13.99    9.08
  -6 -10 -11   12.14    8.39
   6  10  10    9.25    8.85
  -6 -10 -10   10.97    7.75
  -6 -10  -9    4.22    3.62
   6  10   8   22.20    8.08
  -6 -10  -8    4.51    4.53
   6  10   7   15.18    7.52
  -6 -10  -7    7.39    4.51
   6  10   6   24.37    7.85
  -6 -10  -6   46.02   17.53
   6  10   5   37.24   11.97
  -6 -10  -5   38.81   10.71
   6  10   4   17.93    9.39
  -6 -10  -4   20.01   11.46
   6  10   3   23.69   11.12
  -6 -10  -3   57.19   18.53
   6  10   2   22.69    9.44
  -6 -10  -2   38.65   16.16
   6  10   1   46.75   13.80
  -6 -10  -1   48.26   16.22
   6  10   0    2.55    5.30
  -6 -10   0   13.96    8.58
   6  10  -1   48.97   11.90
  -6 -10   1   77.53   27.56
   6  10  -2   54.05   14.49
  -6 -10   2   59.62   13.40
   6  10  -3   67.05   15.22
   6  10  -4   30.96   11.27
  -6 -10   4   23.44   10.10
   6  10  -5   98.05   12.18
  -6 -10   5   97.25   19.15
   6  10  -6   10.24    7.52
  -6 -10   6   14.34    7.47
   6  10  -7    8.82    6.77
  -6 -10   7    8.29    4.29
   6  10  -8    3.33    6.76
  -6 -10   8    3.96    3.80
   6  10  -9   16.21    8.61
  -6 -10   9   10.21    4.12
  -6 -10  10    8.38    4.33
  -6 -10  11    3.10    2.87
  -6 -10  11   16.38    6.37
  -6 -10  12    4.51    4.44
  -6 -10  12    7.81    4.17
  -6 -10  13    5.84    6.05
  -6 -10  13    3.49    3.48
  -6 -10  14    7.87    6.60
  -6 -10  14    5.52    3.42
  -6 -10  15    5.74    4.59
  -6 -10  15    2.87    4.12
  -6 -10  16    7.93    5.93
  -6 -10  16    6.45    4.29
  -6 -10  17   16.70   10.14
  -6 -10  17   18.67    6.42
  -6 -10  18    6.85    5.02
  -6 -10  18    6.41    3.64
  -6 -10  19    3.34    6.03
  -6 -10  19    3.44    3.04
  -6 -10  20   15.05   10.20
  -6 -10  20    6.29    4.49
   6  11  16   -1.50    5.19
  -6 -11 -16   32.59   22.19
   6  11  15   10.34    5.17
  -6 -11 -15   31.89   23.25
   6  11  14    5.15    4.87
  -6 -11 -14   28.95   20.74
   6  11  13    4.41    5.02
  -6 -11 -13   20.62   11.41
   6  11  12   15.29    7.30
  -6 -11 -12   14.20    8.51
   6  11  11    7.04    4.76
  -6 -11 -11    2.65    4.60
   6  11  10   11.36    7.30
  -6 -11 -10    0.42    5.99
   6  11   9    6.70    6.89
  -6 -11  -9   24.00   11.60
   6  11   8    2.21    4.70
  -6 -11  -8    4.45    4.61
   6  11   7   18.26    7.28
  -6 -11  -7    9.11    6.74
   6  11   6    7.84    5.02
  -6 -11  -6   22.26    9.46
   6  11   5   20.17    8.39
  -6 -11  -5   24.05   14.62
   6  11   4   22.57   11.32
  -6 -11  -4   22.06   12.70
   6  11   3    3.06    5.25
  -6 -11  -3    6.87    5.22
   6  11   2    8.75    5.65
  -6 -11  -2    2.47    4.06
   6  11   1    9.78    7.30
  -6 -11  -1    5.57    4.67
   6  11   0  127.17   16.99
  -6 -11   0  104.62   23.86
   6  11  -1   12.60    8.52
  -6 -11   1   10.26    5.07
   6  11  -2   17.05   10.40
  -6 -11   2   13.51    7.57
   6  11  -3   11.92    6.80
  -6 -11   3   17.08    9.19
   6  11  -4   46.31   12.12
   6  11  -5   17.32   13.73
  -6 -11   5   14.00    7.43
   6  11  -6   20.44   11.08
  -6 -11   6   18.36    9.26
   6  11  -7   20.41   10.78
  -6 -11   7   23.96   10.18
   6  11  -8   59.26   15.79
   6  11  -9   16.15    9.59
  -6 -11   9    2.33    3.84
   6  11 -10   -0.64    5.83
  -6 -11  10    5.19    3.66
   6  11 -11    5.80    8.40
  -6 -11  11    6.89    5.05
  -6 -11  12   38.60   12.70
  -6 -11  13   22.67   10.83
  -6 -11  13   14.69    5.71
  -6 -11  14   72.88   20.39
  -6 -11  14   77.65   10.83
  -6 -11  15    2.55    4.67
  -6 -11  15    6.29    5.00
  -6 -11  16    7.60    5.24
  -6 -11  16   -0.59    3.00
  -6 -11  17   15.77   10.70
  -6 -11  17   15.60    7.21
  -6 -11  18   10.59    6.22
  -6 -11  18    3.26    4.14
  -6 -11  19   10.80    8.09
  -6 -11  19    2.58    3.20
   6  12  15    4.23    6.22
  -6 -12 -15    5.46   12.02
   6  12  14   30.20   14.64
  -6 -12 -14    0.54    7.27
   6  12  13    3.25    5.22
  -6 -12 -13    5.47    7.08
   6  12  12   13.22    5.77
  -6 -12 -12   27.03   15.54
   6  12  11   38.84   12.26
  -6 -12 -11   -0.57    4.62
   6  12  10    5.22    6.65
  -6 -12 -10    2.50    5.45
   6  12   9    7.31    5.08
  -6 -12  -9    3.65    4.10
   6  12   8    4.66    4.74
  -6 -12  -8   14.49    7.08
   6  12   7    6.07    4.70
  -6 -12  -7   14.57   10.20
   6  12   6    1.21    4.97
  -6 -12  -6    5.10    5.94
   6  12   5    9.61    7.50
  -6 -12  -5    4.49    3.51
   6  12   4   13.63    5.72
  -6 -12  -4   31.10   14.24
   6  12   3   15.63    7.40
  -6 -12  -3   10.78    7.36
   6  12   2   32.29   11.74
  -6 -12  -2   55.12   19.49
   6  12   1    7.35    6.04
  -6 -12  -1    8.45    5.21
   6  12   0   12.48    4.76
  -6 -12   0    4.12    3.97
   6  12  -1    9.49    6.63
  -6 -12   1   18.13    8.73
   6  12  -2    9.48    6.09
  -6 -12   2    9.99    6.77
   6  12  -3    8.02    6.28
  -6 -12   3    6.36    4.44
   6  12  -4   15.72    7.26
  -6 -12   4    5.31    4.31
   6  12  -5   26.13   11.81
   6  12  -6    6.48    9.07
  -6 -12   6    4.19    4.67
   6  12  -7    6.31    6.32
  -6 -12   7    3.26    4.35
   6  12  -8   23.59   10.62
  -6 -12   8    9.49    5.07
   6  12  -9   12.16    6.19
  -6 -12   9   29.79   10.91
   6  12 -10    6.44    5.60
  -6 -12  10   10.12    5.69
   6  12 -11    5.63    5.18
  -6 -12  11    6.74    4.95
   6  12 -12   41.54   14.19
  -6 -12  12   54.33   10.00
  -6 -12  13   36.72   12.35
  -6 -12  14   12.72    6.72
  -6 -12  14    7.52    4.09
  -6 -12  15   10.95    6.33
  -6 -12  15    9.21    5.92
  -6 -12  16    5.86    5.91
  -6 -12  16    8.86    6.92
  -6 -12  17   19.50   10.59
  -6 -12  18   13.64    7.88
  -6 -12  18    3.75    3.25
   6  13  14   25.33   11.62
  -6 -13 -14    4.71    5.11
   6  13  13   10.15    6.20
  -6 -13 -13    6.55   10.47
   6  13  12   10.96    6.42
  -6 -13 -12    2.25    6.63
   6  13  11   16.18    7.64
  -6 -13 -11    2.98   10.74
   6  13  10   12.70    7.78
  -6 -13 -10   12.19    7.47
   6  13   9    2.43    6.86
  -6 -13  -9   16.75   10.28
   6  13   8   14.91    7.24
  -6 -13  -8    7.07    5.03
   6  13   7    1.09    4.80
  -6 -13  -7    5.43    5.03
   6  13   6   11.24    7.31
  -6 -13  -6    6.02    6.72
   6  13   5   19.24    9.03
  -6 -13  -5   47.50   14.69
   6  13   4    4.52    5.28
  -6 -13  -4    6.44    5.20
   6  13   3    9.57    5.38
  -6 -13  -3   37.19   17.52
   6  13   2   40.58   13.95
  -6 -13  -2   53.83   19.57
   6  13   1   25.19    7.92
  -6 -13  -1   28.68   14.06
   6  13   0   10.41    7.02
  -6 -13   0   11.66    8.68
   6  13  -1    3.63    4.89
  -6 -13   1    0.40    5.05
   6  13  -2   12.24    8.57
  -6 -13   2    8.79    5.04
   6  13  -3   13.39    8.80
  -6 -13   3    4.81    4.76
   6  13  -4    6.01    5.38
  -6 -13   4    4.58    4.84
   6  13  -5   35.27   12.44
   6  13  -6   32.14   12.67
  -6 -13   6   29.57    8.08
   6  13  -7    4.68    5.16
  -6 -13   7    2.74    4.25
   6  13  -8   21.35    9.82
  -6 -13   8   13.30    6.89
   6  13  -9    4.72    7.27
  -6 -13   9    9.13    5.43
   6  13 -10    4.07    5.72
  -6 -13  10    8.35    5.48
   6  13 -11    2.45    5.66
  -6 -13  11   12.16    9.34
   6  13 -12    2.25    5.09
  -6 -13  12    1.87    4.21
   6  13 -13   13.18    5.88
  -6 -13  13   21.63    9.30
   6  13 -14    5.19    5.66
  -6 -13  14    7.89    5.17
  -6 -13  15   16.90    7.38
  -6 -13  16    5.66    5.53
   6  14  12   23.61   11.47
  -6 -14 -12   16.15    9.40
   6  14  11   10.80    6.08
  -6 -14 -11    8.08    7.88
   6  14  10   11.86    5.82
  -6 -14 -10    4.94    5.11
   6  14   9    5.22    5.29
  -6 -14  -9    9.24    7.36
   6  14   8   12.31    5.28
  -6 -14  -8    8.00    6.13
   6  14   7    9.32    5.28
  -6 -14  -7    6.63    6.26
   6  14   6   11.90    7.02
  -6 -14  -6    9.72    9.34
   6  14   5   60.23   11.52
  -6 -14  -5   61.30   15.54
   6  14   4   10.77    7.05
  -6 -14  -4   10.02    7.08
   6  14   3   47.05   13.46
  -6 -14  -3   50.88   16.54
   6  14   2   25.42   10.54
  -6 -14  -2   14.13    8.96
   6  14   1   35.75   13.21
  -6 -14  -1   54.91   17.71
   6  14   0   19.86   10.19
  -6 -14   0   10.31    6.31
  -6 -14   1   14.28    6.52
   6  14  -2   16.73    5.49
  -6 -14   2   19.32    8.80
   6  14  -3    4.87    5.07
  -6 -14   3    9.97    7.86
   6  14  -4    3.63    4.94
  -6 -14   4   -0.76    4.91
   6  14  -5   12.21    7.45
  -6 -14   5   15.96    6.77
   6  14  -6   11.06    5.43
   6  14  -7   51.81   10.88
  -6 -14   7   30.79   10.80
   6  14  -8    9.28    7.33
  -6 -14   8   30.20    9.95
   6  14  -9   15.70    7.67
  -6 -14   9   35.30   13.28
   6  14 -10    9.95    7.23
  -6 -14  10    8.81    4.82
   6  14 -11    8.40    6.02
  -6 -14  11    4.42    6.30
   6  14 -12    5.37    5.79
  -6 -14  12    8.93    6.79
   6  14 -13    7.67    7.99
  -6 -14  13    9.95    6.80
   6  14 -14    3.22    5.33
  -6 -14  14    4.63    4.27
   6  14 -15   14.15    8.87
  -6 -14  15    1.22    3.78
   6  15  10   11.87    8.32
  -6 -15 -10    8.29    5.82
   6  15   9   14.27    8.72
  -6 -15  -9    2.25    4.15
   6  15   8    6.81    5.70
  -6 -15  -8    6.33    3.92
   6  15   7    2.80    4.87
  -6 -15  -7   13.33    8.85
   6  15   6    3.78    5.23
  -6 -15  -6    4.49    6.57
   6  15   5    6.23    7.56
  -6 -15  -5    6.37    3.99
   6  15   4    9.53    7.29
  -6 -15  -4    6.97    5.65
   6  15   3   18.16    7.76
  -6 -15  -3   28.54   10.65
   6  15   2   28.77   10.12
  -6 -15  -2   26.45   13.21
   6  15   1   23.87   10.67
  -6 -15  -1   39.26   19.26
   6  15   0   21.52    8.37
  -6 -15   0   19.92    9.91
   6  15  -1    1.48    4.36
  -6 -15   1    1.08    4.97
   6  15  -2   17.94    9.77
  -6 -15   2   10.87    6.34
   6  15  -3   18.14    8.86
  -6 -15   3   17.08    9.51
   6  15  -4   27.91    9.80
  -6 -15   4   13.91    9.31
   6  15  -5   21.98   10.46
  -6 -15   5    9.91    7.94
   6  15  -6    6.35    5.19
  -6 -15   6   14.39    8.31
   6  15  -7    6.05    6.92
  -6 -15   7   14.27    6.77
   6  15  -8   10.45    7.36
  -6 -15   8    3.72    5.01
   6  15  -9   12.47    5.73
  -6 -15   9   30.68   13.36
   6  15 -10   23.58    9.60
  -6 -15  10   22.49    7.38
   6  15 -11   14.63    9.05
  -6 -15  11    3.52    4.66
   6  15 -12   46.57   15.44
  -6 -15  12   27.22   11.65
   6  15 -13    6.97    6.32
  -6 -15  13    8.99    6.65
   6  16   7   -0.84    5.80
  -6 -16  -7   11.45    5.50
   6  16   6   15.75    9.61
  -6 -16  -6    0.59    7.03
   6  16   5    6.20    7.64
  -6 -16  -5    2.41    5.48
   6  16   4    4.63    5.36
  -6 -16  -4    9.56    6.00
   6  16   3   15.06    8.85
  -6 -16  -3   -0.06    4.77
   6  16   2    3.60    5.19
  -6 -16  -2   11.10    5.15
   6  16   1   14.87    8.60
  -6 -16  -1    5.52    6.01
   6  16   0   16.58    8.91
  -6 -16   0   12.35    5.98
   6  16  -1    4.44    5.28
  -6 -16   1    9.48    7.69
   6  16  -2   45.34   18.52
  -6 -16   2   65.82   25.88
   6  16  -3   -0.28    5.05
  -6 -16   3    4.02    5.70
   6  16  -4    5.94    5.27
  -6 -16   4    6.51    6.00
   6  16  -5   14.63    8.59
  -6 -16   5   18.95    8.63
   6  16  -6   15.40    9.74
  -6 -16   6    3.56    5.50
   6  16  -7    9.06    7.08
   6  16  -8    5.26    5.70
  -6 -16   8   11.02    6.08
   6  16  -9    0.36    5.19
  -6 -16   9   12.07    7.91
   6  16 -10   17.97   10.17
  -6 -16  10   12.45    5.24
   6  16 -11   11.45    8.02
  -6 -16  11   15.33    8.36
   6  17   3   11.28    7.88
  -6 -17  -3    6.86    5.68
   6  17   2    0.47    5.04
  -6 -17  -2   22.25   11.93
   6  17   1    2.63    5.11
  -6 -17  -1    5.06    6.02
   6  17   0   17.42    9.17
  -6 -17   0   12.73    6.30
   6  17  -1   13.79    7.46
  -6 -17   1   16.33    9.26
   6  17  -2   40.54   12.90
  -6 -17   2   47.41   17.41
   6  17  -3   13.36    7.73
  -6 -17   3   10.51    7.16
   6  17  -4   18.92   10.02
  -6 -17   4   10.51    5.52
   6  17  -5    8.07    5.49
  -6 -17   5    6.45    5.17
   6  17  -6   17.14   10.76
  -6 -17   6    7.20    5.55
   6  17  -7    5.18    5.32
   7 -16   2    1.77    3.33
   7 -16   1    2.65    4.20
   7 -15   9    7.61    6.95
   7 -15   8    2.61    6.13
   7 -15   7   12.96    9.30
   7 -15   6    6.21    5.73
   7 -15   5    5.63    7.53
   7 -15   4    5.73    6.45
   7 -15   3   13.01    6.31
   7 -15   2   13.79    7.27
   7 -15   1    6.62    4.70
   7 -15   0    6.48    4.28
   7 -15  -1    5.19    3.36
   7 -15  -2    2.17    3.30
   7 -14  11   26.73   14.95
   7 -14  10   14.22   12.86
   7 -14   9   20.18   11.81
   7 -14   8   -1.70    7.09
   7 -14   7   16.54   12.50
   7 -14   6   22.03   12.12
   7 -14   5   24.86   12.01
   7 -14   3   12.16    6.81
   7 -14   2   22.22    9.63
   7 -14   1   13.49    6.63
   7 -14   0    3.53    3.08
   7 -14  -1    9.22    3.14
   7 -14  -2    0.31    1.29
   7 -14  -3    7.54    3.63
   7 -13  14    5.88    8.54
   7 -13  13   15.47   13.53
   7 -13  12    5.77    8.90
   7 -13  11   35.10   17.66
   7 -13  10    5.22    8.42
   7 -13   9    3.41    7.40
   7 -13   8   22.35   12.38
   7 -13   7    3.08    7.50
   7 -13   6   15.32   11.73
   7 -13   5   16.38   11.00
   7 -13   4    2.03    6.10
   7 -13   3    2.11    5.45
   7 -13   2   13.16    8.04
   7 -13   1   16.15    9.19
   7 -13   0   11.89    5.74
   7 -13  -1   16.37    7.26
   7 -13  -2   -0.26    2.24
   7 -13  -3    3.51    2.10
  -7  13   6   24.17    9.03
  -7  13   7    3.24    2.62
  -7  13   8   17.93    4.78
  -7  13   9    3.36    3.08
  -7  13  10    9.19    4.45
  -7  13  11    5.28    3.93
   7 -12  15   26.71   15.35
   7 -12  14   -2.38    9.37
   7 -12  13    9.82    9.07
   7 -12  12   10.65    8.99
   7 -12  11   21.93   16.88
   7 -12  10   11.65    8.85
   7 -12   9   16.43    9.85
   7 -12   8    3.36    6.99
   7 -12   7   61.19   12.00
   7 -12   6   14.66    9.83
   7 -12   5    0.42    5.96
   7 -12   4    9.03    6.22
   7 -12   3    5.25    5.82
   7 -12   2   11.48    7.01
   7 -12   1   10.17    4.55
   7 -12   0    2.18    4.02
   7 -12  -1    9.32    4.40
   7 -12  -2    4.65    3.77
  -7  12   3    0.06    0.82
   7 -12  -3    7.41    2.47
  -7  12   4   17.49    3.14
   7 -12  -4   12.24    3.06
  -7  12   5    3.06    2.03
   7 -12  -5    0.51    1.25
  -7  12   6   12.48    5.88
  -7  12   7    1.70    2.04
  -7  12   8    3.75    2.82
  -7  12   9   20.51    8.84
  -7  12  10   20.26    5.59
  -7  12  11    6.12    4.61
  -7  12  12    7.83    4.39
  -7  12  13   19.33    8.68
   7 -11  16    4.41   10.71
   7 -11  15   17.38   10.53
   7 -11  14    1.21    9.54
   7 -11  13    8.51    9.63
   7 -11  12    9.07    9.55
   7 -11  11   16.17   11.12
   7 -11  10   28.40   15.56
   7 -11   9    9.31    9.10
   7 -11   8   31.63   12.38
   7 -11   7   53.72   12.03
   7 -11   6   23.78    9.20
   7 -11   5   11.49    7.65
   7 -11   4    7.69    6.28
   7 -11   3   27.56   10.90
   7 -11   2    9.91    6.11
   7 -11   1    9.76    8.83
   7 -11   0   17.25    9.36
   7 -11  -1   21.45    7.12
  -7  11   2  117.94   10.23
  -7  11   3   24.00    4.28
   7 -11  -3   26.56    6.49
  -7  11   4   22.95    4.42
   7 -11  -4   28.65   13.95
  -7  11   5    4.74    2.53
   7 -11  -5    4.79    2.48
  -7  11   6    3.99    2.60
  -7  11   7   16.11    4.42
  -7  11   8   11.75    3.96
  -7  11   9   21.12    7.86
  -7  11  10   10.24    5.09
  -7  11  11    5.73    2.89
  -7  11  12    7.21    3.56
  -7  11  13    2.07    3.35
  -7  11  14    3.61    3.37
   7 -10  17    2.91   11.61
   7 -10  16    0.08   10.90
   7 -10  15   12.44   10.10
   7 -10  14    8.49    9.59
   7 -10  13    8.29    9.21
   7 -10  12   17.66   11.06
   7 -10  11   18.99   11.71
   7 -10  10    1.98    9.67
   7 -10   9   22.12   12.30
   7 -10   8    7.82    8.09
   7 -10   7   28.35   11.21
   7 -10   6   24.07   14.25
   7 -10   5   23.76   13.36
   7 -10   4   30.13   15.51
   7 -10   3   19.32   10.53
   7 -10   2   14.92    9.42
   7 -10   1    1.61    5.54
   7 -10   0   23.53   11.11
   7 -10  -1    7.05    4.17
  -7  10   2    2.76    1.57
   7 -10  -2    3.83    3.00
  -7  10   3   43.39    9.01
   7 -10  -3   27.27    8.80
  -7  10   4    3.71    2.44
   7 -10  -4    7.62    3.07
  -7  10   5   22.31    4.76
   7 -10  -5   15.65    3.43
  -7  10   6    6.49    3.18
   7 -10  -6    5.79    2.09
  -7  10   7   22.90    5.61
  -7  10   8    4.14    2.93
  -7  10   9    8.92    4.33
  -7  10  10    1.85    2.39
  -7  10  11    6.83    3.02
  -7  10  12    5.27    4.84
  -7  10  13    8.46    4.57
  -7  10  14   -0.05    3.23
  -7  10  15   22.14    8.44
   7  -9  18   15.76   17.57
   7  -9  17   15.41   11.98
   7  -9  16   15.42   11.21
   7  -9  15   36.18   16.34
   7  -9  14   16.05   11.19
   7  -9  13    5.68   10.54
   7  -9  12   47.47   14.94
   7  -9  11    5.28   14.02
   7  -9  10   40.47   18.00
   7  -9   9   18.09   14.71
   7  -9   8   16.57   13.29
   7  -9   7   37.03   11.42
   7  -9   6   14.16   12.96
   7  -9   5   14.70   12.27
   7  -9   4    5.26    7.76
   7  -9   3    4.57    7.47
   7  -9   2    7.40    6.45
   7  -9   1    6.55    6.20
   7  -9   0   13.39    8.52
  -7   9   1    0.59    0.72
   7  -9  -1    1.44    1.18
   7  -9  -1   11.28    8.12
  -7   9   2    3.97    1.69
   7  -9  -2    0.30    3.80
   7  -9  -2    6.18    3.62
  -7   9   3    2.08    1.71
   7  -9  -3    5.03    3.99
  -7   9   4    7.94    2.70
   7  -9  -4    2.42    3.04
  -7   9   5    0.56    1.50
   7  -9  -5    3.22    2.12
  -7   9   6    9.02    3.33
   7  -9  -6    6.89    2.40
  -7   9   7    5.00    2.33
  -7   9   8   19.82    9.14
  -7   9   9    2.47    2.81
  -7   9  10   11.06    4.20
  -7   9  11    5.15    4.28
  -7   9  12   15.78    7.15
  -7   9  13   11.20    5.45
  -7   9  14    6.06    3.60
  -7   9  15    3.79    3.22
  -7   9  16    2.16    3.39
   7  -8  19   15.52   16.43
   7  -8  18   16.03   16.14
   7  -8  17   64.81   28.28
   7  -8  16   26.80   14.47
   7  -8  15   23.09   12.36
   7  -8  14    9.21    9.99
   7  -8  13   16.66   13.13
   7  -8  12    2.63   10.13
   7  -8  11   24.24   10.82
   7  -8  10   14.74   13.57
   7  -8   9    7.41    8.53
   7  -8   8    4.62    7.99
   7  -8   7   19.16   12.04
   7  -8   6   52.23   15.29
   7  -8   5    5.45    7.89
   7  -8   4   14.08    8.82
   7  -8   3   38.70   13.31
   7  -8   2   18.27    9.91
   7  -8   1    9.83    6.34
   7  -8   0    2.95    0.67
   7  -8   0    2.38    0.66
   7  -8   0   11.47    8.10
  -7   8   1    4.30    1.94
   7  -8  -1    2.02    1.21
   7  -8  -1    8.78    8.41
   7  -8  -1   18.35   10.82
  -7   8   2    6.59    2.15
   7  -8  -2    6.16    1.97
   7  -8  -2   13.72    5.94
   7  -8  -2    7.23    6.12
  -7   8   3    6.38    2.36
   7  -8  -3    3.05    1.81
   7  -8  -3    3.33    1.88
   7  -8  -3    2.87    3.66
  -7   8   4    4.73    2.92
   7  -8  -4    4.49    2.30
   7  -8  -4    1.16    2.02
   7  -8  -4    7.25    4.13
  -7   8   5    6.40    3.26
   7  -8  -5    2.85    2.01
  -7   8   6    3.39    2.89
   7  -8  -6    4.37    1.74
  -7   8   7    8.26    4.29
  -7   8   8   10.57    3.59
  -7   8   9   17.58    8.41
  -7   8  10   43.58   13.45
  -7   8  11    2.56    3.32
  -7   8  12    7.06    4.91
  -7   8  13   11.01    4.97
  -7   8  14    8.48    4.88
  -7   8  15   17.75    7.97
  -7   8  16    5.75    4.52
  -7   8  17    4.70    5.96
   7  -7  20   12.82   11.34
   7  -7  19   19.76   12.70
   7  -7  18    7.51   10.24
   7  -7  17   19.20   12.16
   7  -7  16    1.15    9.50
   7  -7  15   15.47   14.32
   7  -7  14   -1.96    9.16
   7  -7  13   29.36   14.47
   7  -7  12   22.12   14.36
   7  -7  11    8.86    9.14
   7  -7  10    9.99    8.61
   7  -7   9    3.74    7.69
   7  -7   8   13.56   11.36
   7  -7   7    8.25    8.22
   7  -7   6  106.38   19.56
   7  -7   5   43.20   16.24
   7  -7   4  178.68   18.86
   7  -7   3   69.65   16.75
   7  -7   2   15.06   10.83
   7  -7   1   11.23    9.26
   7  -7   0   24.19    6.85
   7  -7   0   25.62    7.25
   7  -7   0   20.79    8.07
   7  -7   0    9.22    5.72
  -7   7   1    7.84    2.56
   7  -7  -1    5.22    1.26
   7  -7  -1    6.16    3.57
   7  -7  -1    5.52    5.50
  -7   7   2    2.99    1.69
   7  -7  -2    6.76    2.20
   7  -7  -2    1.54    2.48
   7  -7  -2    4.86    4.67
  -7   7   3   11.69    3.23
   7  -7  -3   11.44    2.73
   7  -7  -3    3.73    1.93
   7  -7  -3   12.05    5.67
  -7   7   4    3.29    3.74
   7  -7  -4    3.87    2.63
   7  -7  -4    2.01    2.07
   7  -7  -4    6.58    4.24
  -7   7   5   23.82    9.56
   7  -7  -5   12.84    3.37
   7  -7  -5   12.26    4.76
   7  -7  -5   23.12    9.49
  -7   7   6  153.86   13.76
   7  -7  -6  126.25   10.09
   7  -7  -6  124.71    9.59
  -7   7   7   93.92   10.11
  -7   7   8   72.33    7.40
  -7   7   9   10.77    4.09
  -7   7  10    4.20    3.20
  -7   7  11   20.65    9.65
  -7   7  13   40.78    8.57
  -7   7  14    3.49    3.61
  -7   7  15    8.51    5.84
  -7   7  16   12.17    6.13
  -7   7  17    5.55    4.11
  -7   7  18    0.96    3.62
   7  -6  20    9.33   10.77
   7  -6  19   40.37   20.63
   7  -6  18   30.50   15.65
   7  -6  17   24.58   12.94
   7  -6  16   18.19   10.87
   7  -6  15    3.85    8.93
   7  -6  14   17.44   11.56
   7  -6  13   30.36   15.97
   7  -6  12    8.93   10.16
   7  -6  11   11.88    9.06
   7  -6  10   33.73   12.87
   7  -6   9    5.12    7.46
   7  -6   8   32.44   13.09
   7  -6   7   11.77    9.01
   7  -6   6   32.25   10.14
   7  -6   5   16.11    9.01
   7  -6   4   13.05   13.52
   7  -6   3    7.46    9.80
   7  -6   2    1.94    6.22
   7  -6   1   63.51    9.41
   7  -6   1   55.14    8.18
   7  -6   1   52.92   12.56
   7  -6   0  112.24    5.55
   7  -6   0  101.43    5.19
   7  -6   0   42.82   17.50
   7  -6   0  139.34   14.78
  -7   6   1    4.06    2.20
   7  -6  -1    6.93    2.81
   7  -6  -1    2.93    2.77
   7  -6  -1    2.57    5.16
  -7   6   2    8.27    2.96
   7  -6  -2    1.74    1.84
   7  -6  -2    4.51    3.14
   7  -6  -2   14.43    7.36
  -7   6   3  155.17    8.26
   7  -6  -3  132.10   14.30
   7  -6  -3  162.56   10.50
  -7   6   4    4.02    2.50
   7  -6  -4    4.63    2.73
   7  -6  -4    3.09    1.86
   7  -6  -4   18.84    8.34
  -7   6   5   88.56   16.32
   7  -6  -5   43.99   17.18
   7  -6  -5   75.59   14.24
  -7   6   6    6.35    3.02
   7  -6  -6    1.16    2.08
   7  -6  -6    3.40    1.33
   7  -6  -6    1.95    1.27
  -7   6   7   45.36    5.96
  -7   6   8    2.95    3.10
  -7   6   9  146.23   14.12
  -7   6  10   10.26    3.73
  -7   6  11   37.41    7.09
  -7   6  12    5.99    4.49
  -7   6  13    3.95    3.72
  -7   6  14    3.59    3.51
  -7   6  15   20.65   10.13
  -7   6  16    6.64    4.29
  -7   6  17   14.57    7.63
  -7   6  18    6.28    4.45
  -7   6  19    8.10    4.89
   7  -5  20   21.13   15.51
   7  -5  19   -0.90    8.92
   7  -5  18   21.74   14.43
   7  -5  17   20.84   13.66
   7  -5  16   10.02   11.08
   7  -5  15    1.40    8.18
   7  -5  14   88.49   18.72
   7  -5  13    3.10    1.42
   7  -5  13    5.87    9.28
   7  -5  12    2.60    1.13
   7  -5  12   -3.14    9.12
   7  -5  11   18.68   10.02
   7  -5  10  122.89   20.20
   7  -5   9    5.76    7.62
   7  -5   8  156.16   17.65
   7  -5   7   15.65   10.11
   7  -5   6  228.98   17.52
   7  -5   5   63.83   15.35
   7  -5   4    6.65    7.23
   7  -5   3   11.41    1.48
   7  -5   3   18.91   10.69
   7  -5   2    3.87    1.40
   7  -5   2    3.45    6.12
   7  -5   1    4.04    2.11
   7  -5   1    3.70    1.74
   7  -5   1   13.07    7.29
   7  -5   0   11.19    2.70
   7  -5   0   14.00    3.04
   7  -5   0    9.29    4.18
   7  -5   0    8.26    5.99
  -7   5   1    1.95    1.49
   7  -5  -1    2.40    1.95
   7  -5  -1    0.69    1.85
   7  -5  -1    4.27    4.73
  -7   5   2    5.31    2.99
   7  -5  -2    8.53    3.31
   7  -5  -2    4.36    4.17
  -7   5   3   14.55    4.88
   7  -5  -3    9.12    3.05
   7  -5  -3   11.13    4.55
   7  -5  -3    8.46    5.84
  -7   5   4    4.35    3.13
   7  -5  -4    2.24    4.16
   7  -5  -4    2.78    1.87
   7  -5  -4    3.84    4.95
  -7   5   5   79.94   12.94
   7  -5  -5   40.78    7.94
   7  -5  -5   67.99   10.46
   7  -5  -5   74.26   12.72
  -7   5   6    8.17    3.26
   7  -5  -6    5.01    3.22
   7  -5  -6    7.36    1.83
   7  -5  -6    4.50    2.65
  -7   5   7   65.44   13.56
   7  -5  -7   66.63   11.35
   7  -5  -7   27.77    9.56
  -7   5   8   39.14   12.83
  -7   5   9    6.52    4.37
  -7   5  10    5.47    3.92
  -7   5  11    3.79    3.34
  -7   5  12    3.69    4.01
  -7   5  13    3.50    4.17
  -7   5  14   53.13   11.06
  -7   5  15   16.86    5.80
  -7   5  16   18.11    7.95
  -7   5  17   22.10    9.61
  -7   5  18    9.39    5.39
  -7   5  19   14.12    9.27
   7  -4  21   13.56    9.46
   7  -4  20   29.60   16.10
   7  -4  19    5.07    8.20
   7  -4  18   20.94   11.86
   7  -4  17    2.15    8.45
   7  -4  16    4.16    2.80
   7  -4  16   11.90    8.38
   7  -4  15    7.05    2.43
   7  -4  15   12.70   12.20
   7  -4  14    3.37    1.94
   7  -4  14   17.76   14.14
   7  -4  13   60.66   12.27
   7  -4  13   84.96   16.89
   7  -4  12   14.34    5.02
   7  -4  12   26.78   11.86
   7  -4  11  112.01    9.25
   7  -4  11  111.36   15.41
   7  -4  10   66.15   11.52
   7  -4  10   79.89   13.91
   7  -4  10   77.95   17.43
   7  -4   9   95.84   16.34
   7  -4   9   94.80   16.24
   7  -4   9  127.81   18.44
   7  -4   8   61.15    8.97
   7  -4   8   68.71   13.91
   7  -4   7    9.52    1.61
   7  -4   7   13.37    3.59
   7  -4   7   14.56   10.43
   7  -4   6    7.44    1.38
   7  -4   6    7.45    1.67
   7  -4   6    9.68    6.46
   7  -4   5   11.82    1.84
   7  -4   5   15.64    3.85
   7  -4   5   17.63    7.10
   7  -4   4    2.34    1.48
   7  -4   4    1.57    1.33
   7  -4   4    8.08    5.48
   7  -4   3    3.98    1.70
   7  -4   3    2.76    1.27
   7  -4   3    6.25    5.43
   7  -4   2   52.69   11.49
   7  -4   2   53.59   11.83
   7  -4   2   69.08   13.69
   7  -4   1  110.23   16.14
   7  -4   1  116.39   16.97
   7  -4   1  120.50   10.63
   7  -4   0    9.70    2.50
   7  -4   0   25.15    5.68
   7  -4   0   12.66    5.68
   7  -4   0   12.97    5.25
   7  -4  -1   62.28   10.03
   7  -4  -1   36.56   16.50
   7  -4  -1   74.63   14.26
  -7   4   2   28.47    9.10
   7  -4  -2   25.76    6.20
   7  -4  -2   16.55    7.34
   7  -4  -2   14.85    5.76
  -7   4   3  152.43   14.78
   7  -4  -3  146.28   12.72
   7  -4  -3  122.34   16.73
   7  -4  -3  173.34   14.98
  -7   4   4   17.04    5.85
   7  -4  -4   13.39    3.29
   7  -4  -4    8.77    2.10
   7  -4  -4   20.21    6.96
  -7   4   5   19.38    6.92
   7  -4  -5    5.74    2.73
   7  -4  -5    8.33    2.07
  -7   4   6   26.73    5.55
   7  -4  -6   17.36    6.11
   7  -4  -6   22.64    6.64
   7  -4  -6   21.88    7.17
  -7   4   7   17.16    7.28
   7  -4  -7    8.03    1.84
   7  -4  -7    6.93    1.84
  -7   4   8   14.79    6.44
  -7   4   9    5.24    2.99
  -7   4  10    9.10    3.71
  -7   4  11    4.13    3.64
  -7   4  12    8.28    5.96
  -7   4  13   65.36   10.96
  -7   4  14    4.97    4.33
  -7   4  15    4.51    4.30
  -7   4  16    9.36    6.37
  -7   4  17    7.21    5.37
  -7   4  18   13.87    8.29
  -7   4  19   15.76    7.68
  -7   4  20   22.70   10.16
   7  -3  21    4.33    8.76
   7  -3  20    1.04    8.13
   7  -3  19    1.84    2.53
   7  -3  19    3.15    8.04
   7  -3  18    5.60    3.52
   7  -3  18   29.61   13.09
   7  -3  17    5.93    3.41
   7  -3  17   23.03   12.66
   7  -3  16    6.43    4.51
   7  -3  16   22.97   12.19
   7  -3  15    4.48    3.00
   7  -3  15   12.69    9.68
   7  -3  14    6.60    3.10
   7  -3  14   21.76    7.94
   7  -3  13   43.75    9.81
   7  -3  13   39.17   11.98
   7  -3  12    9.29    3.65
   7  -3  12   13.24    7.86
   7  -3  11    3.71    1.95
   7  -3  11    4.80    2.52
   7  -3  11   10.81    9.27
   7  -3  10   87.80   15.35
   7  -3  10  117.99    9.71
   7  -3  10   91.80   19.15
   7  -3   9   30.21    5.29
   7  -3   9   32.24    7.14
   7  -3   9   11.85    7.19
   7  -3   8    5.21    1.51
   7  -3   8    9.56    3.12
   7  -3   8   18.82   10.49
   7  -3   7   51.16    8.13
   7  -3   7   49.45    4.22
   7  -3   7   54.10   11.29
   7  -3   6   21.31    2.97
   7  -3   6   21.36    2.84
   7  -3   6   32.70   11.17
   7  -3   5    4.89    1.84
   7  -3   5    7.89    2.06
   7  -3   5   12.27    7.50
   7  -3   4    4.50    1.98
   7  -3   4    3.79    1.47
   7  -3   4    6.59    4.84
   7  -3   3    1.79    1.58
   7  -3   3    4.17    2.49
   7  -3   3    9.42    6.40
   7  -3   2    3.29    2.14
   7  -3   2    7.00    2.70
   7  -3   2    4.41    4.68
   7  -3   1   31.59    7.06
   7  -3   1   42.47    9.63
   7  -3   1   16.86    8.44
   7  -3   1   26.42    7.29
   7  -3   0  155.17   12.53
   7  -3   0  182.10   14.77
   7  -3   0   89.06   28.27
   7  -3   0  195.91   17.45
   7  -3  -1   24.74    6.86
   7  -3  -1   19.16    7.93
   7  -3  -1   31.72    8.96
  -7   3   2   27.91    9.33
   7  -3  -2   19.06    6.45
   7  -3  -2    7.10    2.80
   7  -3  -2   24.32    7.82
  -7   3   3   44.50   14.07
   7  -3  -3   19.98    6.41
   7  -3  -3   20.39    5.75
   7  -3  -3   37.48    9.54
  -7   3   4   89.06   14.41
   7  -3  -4   77.89   12.81
   7  -3  -4   72.57   11.10
   7  -3  -4   99.90   15.66
  -7   3   5   -0.17    2.81
   7  -3  -5    1.22    2.14
   7  -3  -5    4.36    2.03
   7  -3  -5    3.84    3.62
  -7   3   6    3.74    3.25
   7  -3  -6    2.91    1.48
   7  -3  -6    2.84    2.87
  -7   3   7    8.70    5.57
   7  -3  -7    1.89    1.02
   7  -3  -7    5.46    2.25
  -7   3   8    6.13    3.26
   7  -3  -8    1.16    1.05
  -7   3   9    7.83    4.99
  -7   3  10   13.48    7.11
  -7   3  11   36.84    9.98
  -7   3  12   89.18   10.39
  -7   3  13   21.42    6.19
  -7   3  14   27.89    8.05
  -7   3  15    4.59    4.54
  -7   3  16   28.86   11.73
  -7   3  17   24.25   10.50
  -7   3  18    9.21    6.90
  -7   3  19   11.94    5.86
  -7   3  20    2.88    4.57
   7  -2  21   16.76   12.10
   7  -2  20    5.59    3.35
   7  -2  20    6.00    7.78
   7  -2  19    7.13    3.17
   7  -2  19    8.93    7.58
   7  -2  18   24.40    8.74
   7  -2  18   36.93   12.31
   7  -2  17    7.84    4.34
   7  -2  17   16.37    8.91
   7  -2  16    8.37    4.20
   7  -2  16   16.60    6.41
   7  -2  15    2.27    2.88
   7  -2  15   13.29    8.82
   7  -2  14    3.65    2.95
   7  -2  14    4.55    6.08
   7  -2  13   33.79   10.85
  -7   2 -13   11.31    2.83
   7  -2  13   22.82   11.04
   7  -2  12   14.38    5.51
   7  -2  12   24.39   10.24
   7  -2  11    2.34    2.09
   7  -2  11    6.70    3.45
   7  -2  11    9.07    8.53
   7  -2  10    3.77    2.60
   7  -2  10    2.87    2.99
   7  -2  10    6.90    5.39
   7  -2   9   15.36    5.72
   7  -2   9    7.08    2.78
   7  -2   9   13.90    6.62
   7  -2   8   33.70    6.00
   7  -2   8   59.68   10.10
   7  -2   8   69.59   14.11
   7  -2   7   58.00   12.64
   7  -2   7   48.83   11.05
   7  -2   7   45.35   13.54
   7  -2   6    8.61    2.36
   7  -2   6    5.55    2.10
   7  -2   6   11.66    5.35
   7  -2   5   12.72    3.16
   7  -2   5   12.28    3.06
   7  -2   5   19.43    8.69
   7  -2   4    5.93    2.27
   7  -2   4   11.42    2.83
   7  -2   4   11.63    6.62
   7  -2   3    2.54    1.67
   7  -2   3    3.89    2.63
   7  -2   3    1.95    5.89
   7  -2   2    4.20    1.52
   7  -2   2    8.18    2.96
   7  -2   2    6.00    4.78
   7  -2   1   39.30    8.78
   7  -2   1   36.44    8.54
   7  -2   1   33.68    8.91
   7  -2   0    4.86    2.72
   7  -2   0    8.68    3.05
   7  -2   0    4.46    2.88
   7  -2   0    2.57    4.97
   7  -2  -1   38.43    8.75
   7  -2  -1   57.38   11.93
   7  -2  -1   21.71    8.35
   7  -2  -1   61.72   13.15
  -7   2   2    4.86    2.99
   7  -2  -2    6.75    2.86
   7  -2  -2    3.81    2.61
   7  -2  -2    2.97    3.18
  -7   2   3   38.62   12.35
   7  -2  -3   27.68    7.29
   7  -2  -3   30.80    7.14
   7  -2  -3   25.28    7.57
  -7   2   4   27.29    8.48
   7  -2  -4   11.97    2.93
   7  -2  -4    9.33    2.81
   7  -2  -4   23.18    5.76
  -7   2   5    6.34    3.27
   7  -2  -5    6.57    3.34
   7  -2  -5    5.70    1.71
   7  -2  -5    7.38    2.85
  -7   2   6    5.76    3.31
   7  -2  -6    1.37    1.52
   7  -2  -6    3.07    3.02
  -7   2   7   10.97    4.49
   7  -2  -7   11.08    3.05
   7  -2  -7   22.30    6.80
  -7   2   8    3.03    3.44
   7  -2  -8    1.18    1.09
   7  -2  -8    2.18    1.67
  -7   2   9   78.43   14.58
  -7   2  10   10.27    7.47
  -7   2  11   42.26   10.89
  -7   2  12    3.84    3.75
  -7   2  13   17.48    5.51
  -7   2  14   17.83    9.46
  -7   2  15   16.60    9.60
  -7   2  16    0.79    4.95
  -7   2  17    5.20    4.74
  -7   2  18    5.46    4.64
  -7   2  19    8.73    5.20
  -7   2  20    2.62    4.28
  -7   2  21   18.40    9.20
   7  -1  21    3.12    4.65
   7  -1  21    7.57    7.02
   7  -1  20    7.39    4.68
   7  -1  20   14.46   10.03
   7  -1  19    4.80    4.96
   7  -1  19    5.50    8.15
   7  -1  18    1.27    3.43
   7  -1  18    2.32    6.11
   7  -1  17    7.28    5.08
   7  -1  17   10.65    6.34
   7  -1  16   74.31   12.09
   7  -1  16   56.48   13.42
   7  -1  15    9.06    4.47
   7  -1  15   16.77   11.06
   7  -1  14   32.74   10.86
   7  -1  14   34.98   13.59
   7  -1  13    5.25    4.29
   7  -1  13    0.55    5.65
   7  -1  12    2.23    2.86
  -7   1 -12    1.63    1.96
   7  -1  12    6.95    5.96
   7  -1  11    3.81    2.95
   7  -1  11    6.84    5.78
   7  -1  10   42.34   19.14
   7  -1  10   88.19   16.68
   7  -1  10   68.91   15.26
   7  -1   9    3.56    2.06
   7  -1   9   11.10    5.84
   7  -1   9    2.07    5.13
   7  -1   8    8.61    3.07
   7  -1   8    7.63    3.40
   7  -1   8   13.73    6.75
   7  -1   7    0.91    1.54
   7  -1   7    3.11    3.19
   7  -1   7    1.27    5.52
   7  -1   6   92.70   14.10
   7  -1   6  101.54   15.23
   7  -1   6   95.36   16.60
   7  -1   5   16.70    4.85
   7  -1   5   33.99    8.28
   7  -1   5   35.23   11.00
   7  -1   4   30.97    7.17
   7  -1   4   34.64    8.31
   7  -1   4   30.35    8.33
   7  -1   3    3.49    2.53
   7  -1   3    5.19    3.24
   7  -1   3    6.26    4.39
   7  -1   2   46.50   10.08
   7  -1   2   38.22    8.91
   7  -1   1    3.39    2.05
   7  -1   1   12.54    4.55
   7  -1   0    1.14    2.50
   7  -1   0    5.97    2.99
   7  -1   0    1.91    2.28
   7  -1  -1   23.33    7.08
   7  -1  -1   35.62    8.73
   7  -1  -1   14.11    3.91
   7  -1  -2   10.52    3.31
   7  -1  -2    5.63    2.67
  -7   1   3   12.69    5.74
   7  -1  -3    2.38    3.03
   7  -1  -3    9.27    2.50
  -7   1   4    3.65    2.47
   7  -1  -4    4.67    3.34
   7  -1  -4    6.54    2.53
  -7   1   5   16.72    8.10
   7  -1  -5    3.63    1.93
  -7   1   6    3.61    3.01
   7  -1  -6    8.20    2.35
   7  -1  -6    1.79    2.41
  -7   1   7   40.23   10.86
   7  -1  -7   28.66    6.52
  -7   1   8   26.50   10.79
   7  -1  -8    8.10    1.70
   7  -1  -8   10.28    2.23
  -7   1   9  108.76   11.00
   7  -1  -9   95.80    4.39
   7  -1  -9   96.41    4.84
  -7   1  10    3.57    4.01
  -7   1  11   38.15   13.29
  -7   1  12   24.63    9.54
  -7   1  13   28.11   10.43
  -7   1  15    5.32    5.30
  -7   1  16    5.30    6.38
  -7   1  17   16.91    8.71
  -7   1  18   14.74    7.38
  -7   1  19   59.28   15.69
  -7   1  20   19.24    7.70
  -7   1  21    3.46    5.47
   7   0  21    3.27    5.06
   7   0  21   11.96    8.44
   7   0  20    3.82    3.97
   7   0  20   15.14    9.98
   7   0  19   16.65    6.74
   7   0  19    5.08    5.80
   7   0  18    1.28    4.00
   7   0  18   -0.29    5.48
   7   0  17   12.20    7.13
   7   0  17   11.74    8.19
   7   0  16    4.13    3.90
   7   0  16   12.07    6.31
   7   0  15    5.22    3.78
   7   0  15    8.47    6.73
   7   0  14   38.03    9.81
   7   0  14   75.15   14.25
   7   0  13   29.71   10.57
   7   0  13   36.91    9.32
   7   0  12   84.08   10.15
   7   0  12   76.67   12.33
   7   0  11   28.99    9.54
  -7   0 -11   23.55    9.22
   7   0  11   51.26   14.66
   7   0  10    6.41    3.19
   7   0  10    3.23    3.05
   7   0  10    1.79    5.33
   7   0   9    4.66    2.80
   7   0   9    1.83    2.73
   7   0   9   -0.01    4.70
   7   0   8   27.72    9.89
   7   0   8   43.53    8.50
   7   0   8   25.28   10.35
   7   0   7  177.31   21.21
   7   0   7  224.78   17.88
   7   0   6    6.58    2.68
   7   0   6    8.10    3.91
   7   0   5   21.32    3.51
   7   0   5   19.58    5.86
   7   0   4   30.60    7.39
   7   0   4   47.89   10.75
   7   0   3   92.29   11.35
   7   0   3  110.99   13.67
   7   0   2  139.65   16.29
   7   0   2  148.34    7.65
   7   0   1   32.19    7.64
   7   0   1   43.54   10.36
   7   0   0    1.04    2.11
   7   0  -1   30.59    7.50
   7   0  -1   42.61   10.34
   7   0  -1   18.15    6.03
   7   0  -2  125.68   14.89
   7   0  -2  158.95   14.65
   7   0  -2  123.34   14.26
  -7   0   3  130.15   29.55
   7   0  -3   84.92   11.17
   7   0  -3   98.42   12.08
  -7   0   4   61.74   15.60
   7   0  -4   43.01    9.33
  -7   0   5   26.31    8.71
   7   0  -5   18.41    5.03
  -7   0   6   11.77    4.90
   7   0  -6    7.11    2.07
  -7   0   7  225.46   20.65
   7   0  -7  173.81   13.32
  -7   0   8   33.10    8.62
  -7   0   9    2.40    4.02
   7   0  -9    1.92    1.87
  -7   0  10   -0.43    3.63
   7   0 -10    8.17    2.46
  -7   0  11   39.49   12.93
   7   0 -11   36.91   10.65
   7   0 -12   67.29   12.77
  -7   0  13   45.86   12.01
  -7   0  14   67.84   17.66
  -7   0  15    9.04    5.82
  -7   0  16    2.08    4.24
  -7   0  17   11.52    6.85
  -7   0  18    1.93    4.72
  -7   0  19   12.53    5.72
  -7   0  20    4.61    5.75
  -7   0  21    8.83    6.43
   7   1  21   11.43    6.63
   7   1  21   16.86   10.15
   7   1  20   15.30    8.07
   7   1  20   14.48    9.66
   7   1  19   42.01   11.57
   7   1  19   26.07   12.09
   7   1  18   19.44    9.39
   7   1  18   18.65    8.70
   7   1  17    6.88    6.27
   7   1  17   15.50    8.16
   7   1  16    6.47    4.19
   7   1  16    5.84    7.70
   7   1  15   11.02    5.62
   7   1  15    2.92    5.31
   7   1  14    8.69    5.10
   7   1  14    5.19    6.06
   7   1  13   26.27    8.59
   7   1  13   22.55    6.65
   7   1  12   19.60    9.76
   7   1  12   33.15   11.65
   7   1  11   39.00   12.63
   7   1  11   35.13   13.68
   7   1  10    5.23    4.25
   7   1   9   51.66   15.96
   7   1   9   93.99    7.13
   7   1   8    5.93    3.17
   7   1   8   11.42    5.11
   7   1   7   32.25   11.39
   7   1   7   34.25    8.47
   7   1   6    2.96    2.02
   7   1   6   15.78    6.44
   7   1   5   10.57    3.04
   7   1   5    8.14    3.02
   7   1   4    3.48    2.24
   7   1   4    8.22    3.02
   7   1   3    4.17    3.05
   7   1   3   11.69    3.84
   7   1   2    5.31    2.39
   7   1   2   15.27    3.41
   7   1   1   21.89    6.93
   7   1   1   26.01    7.74
   7   1   0    3.95    2.31
   7   1   0    4.85    5.29
   7   1  -1    6.26    3.25
   7   1  -1    9.23    4.27
   7   1  -1    7.80    3.38
   7   1  -2   35.74    9.12
  -7  -1   2    8.35    9.62
   7   1  -2   24.76    7.26
  -7  -1   3    6.84    4.84
  -7  -1   3    1.13    6.65
   7   1  -3    3.80    2.61
  -7  -1   4   39.09   13.95
  -7  -1   4    9.44    6.34
   7   1  -4   18.79    5.97
  -7  -1   5   33.19   11.16
  -7  -1   5    6.97    9.66
   7   1  -5   26.14    5.92
  -7  -1   6   -0.59    4.97
  -7  -1   7   10.98    8.69
  -7  -1   7    4.09    4.19
   7   1  -7    4.69    2.39
  -7  -1   8    4.96    3.97
  -7  -1   8    2.12    2.64
   7   1  -8    6.58    1.85
  -7  -1   9    5.40    3.97
  -7  -1   9   -0.11    1.84
   7   1  -9    1.50    1.83
  -7  -1  10    4.44    2.69
  -7  -1  11    2.17    4.63
  -7  -1  11    3.56    2.25
   7   1 -11    0.77    1.56
  -7  -1  12    5.61    4.63
  -7  -1  12    3.01    3.13
  -7  -1  13    1.87    5.15
  -7  -1  13    3.59    1.72
  -7  -1  14   62.04   15.39
  -7  -1  15    6.88    5.41
  -7  -1  16   73.80   14.62
  -7  -1  17   14.47    7.83
  -7  -1  21   16.69   10.13
   7   2  21    7.34    5.23
   7   2  21   23.53    9.07
   7   2  20    5.56    4.80
   7   2  20   10.71    8.34
   7   2  19   24.18    8.38
   7   2  19    7.64    6.17
   7   2  18    0.81    4.53
   7   2  18   11.70    7.84
   7   2  17    2.23    4.78
   7   2  17    4.55    7.36
   7   2  16    7.77    5.88
   7   2  16    1.02    5.88
   7   2  15   17.03    9.19
   7   2  15    7.19    5.59
   7   2  14    7.93    5.06
   7   2  14   10.93    7.91
   7   2  13   11.38    4.97
   7   2  12    2.79    3.67
   7   2  11   48.51   11.72
   7   2  10   11.57    4.77
   7   2   9   59.80   10.70
   7   2   8    3.52    3.07
   7   2   7   17.55    6.57
   7   2   6    2.78    3.95
   7   2   5    2.33    2.80
   7   2   4   22.94    6.06
   7   2   3   26.66    7.72
   7   2   2    2.13    1.93
   7   2   2    3.06    4.70
  -7  -2  -2   18.60   14.63
   7   2   1   54.81   12.13
   7   2   0    8.19    5.10
  -7  -2   0   14.45   13.38
   7   2  -1   51.63   10.92
  -7  -2   1   13.10    6.76
   7   2  -2   12.15    4.40
  -7  -2   2   -0.93    3.87
   7   2  -3    2.56    5.56
  -7  -2   3    5.68    3.75
   7   2  -3    2.45    2.35
  -7  -2   4   21.33   11.51
  -7  -2   4    7.88    4.75
   7   2  -4    6.09    2.36
  -7  -2   5   20.46    9.80
  -7  -2   5    5.41    3.65
   7   2  -5   16.05    4.75
  -7  -2   6   24.95    8.27
  -7  -2   6    3.64    1.87
  -7  -2   7   65.10   16.96
  -7  -2   7    6.44    3.47
   7   2  -7   38.05    8.80
  -7  -2   8   54.60   16.81
  -7  -2   8    2.88    3.65
  -7  -2   9    7.34    4.61
  -7  -2   9    3.07    2.16
   7   2  -9    5.12    2.23
  -7  -2  10    3.12    4.28
  -7  -2  10    0.57    2.47
   7   2 -10    3.91    3.06
  -7  -2  11   10.39    8.00
  -7  -2  11    5.18    3.20
   7   2 -11    5.25    2.61
  -7  -2  12   32.95   12.81
  -7  -2  12    3.18    2.05
  -7  -2  13   41.48   13.85
  -7  -2  13    0.54    1.71
  -7  -2  14    5.30    4.84
  -7  -2  14    2.32    1.51
  -7  -2  15    2.79    1.51
  -7  -2  16   -0.27    0.88
  -7  -2  18   10.65    6.26
  -7  -2  19    2.71    6.54
  -7  -2  20   29.91   14.69
  -7  -2  21    6.40    6.59
   7   3  20    4.29    7.05
   7   3  20    3.39    5.65
   7   3  19   10.22    5.42
   7   3  19    5.17    5.46
   7   3  18    1.66    4.23
   7   3  18   12.81    8.08
   7   3  17   19.85    8.70
   7   3  17   12.32    7.55
   7   3  16   21.59    8.20
   7   3  16   12.30    5.97
   7   3  15    5.63    4.45
   7   3  14   34.72   12.11
   7   3  13   10.65    4.07
   7   3  12  100.15   12.60
   7   3  11   25.01    6.97
   7   3  10    9.32    5.33
   7   3   9   10.58    5.41
   7   3   8    3.30    3.55
   7   3   7    4.14    3.78
   7   3   6    5.15    4.66
   7   3   5    4.70    3.96
   7   3   4   98.07   15.99
  -7  -3  -4   14.33   13.65
   7   3   3   30.60    8.40
  -7  -3  -3   18.58   16.85
   7   3   2   21.59    7.60
  -7  -3  -2    7.06    6.05
   7   3   1   41.34   10.67
  -7  -3  -1    5.81    4.79
   7   3  -1   57.73   13.14
  -7  -3   1    1.77    3.39
   7   3  -2   10.15    4.52
  -7  -3   2    8.82    5.36
   7   3  -3    4.92    5.85
  -7  -3   3    6.39    4.26
  -7  -3   4    1.20    2.07
  -7  -3   5    9.05    4.61
  -7  -3   5    8.74    4.06
   7   3  -5    1.85    1.75
  -7  -3   6   23.03   10.95
  -7  -3   6    7.49    3.70
   7   3  -6   14.07    2.91
  -7  -3   7   59.82   15.69
  -7  -3   7   -1.68    2.68
  -7  -3   8    7.98    5.61
  -7  -3   8    6.39    2.38
   7   3  -8    6.74    2.64
  -7  -3   9   42.87   12.29
   7   3  -9   23.81    7.35
  -7  -3  10  122.65   14.60
   7   3 -10   67.28   12.20
  -7  -3  11    4.57    1.96
   7   3 -11    2.07    2.82
  -7  -3  12   14.03    6.06
  -7  -3  13   55.68   15.11
  -7  -3  14   29.48   11.89
  -7  -3  14   22.38    8.09
  -7  -3  15   16.44    9.20
  -7  -3  15    2.02    1.63
  -7  -3  16    2.32    5.49
  -7  -3  16   12.05    3.46
  -7  -3  17   17.62    9.50
  -7  -3  18   24.16   10.58
  -7  -3  19   12.89    9.00
  -7  -3  20   16.12   10.69
  -7  -3  21   12.19    8.08
   7   4  20   11.85    7.52
   7   4  20   23.93   10.74
   7   4  19   11.80    7.07
   7   4  19   23.23    9.35
   7   4  18   12.68    6.94
   7   4  18   14.20    9.23
   7   4  17    6.16    6.84
   7   4  17    8.32    5.30
   7   4  16    5.37    4.55
   7   4  15    6.07    6.30
   7   4  14    7.02    6.04
   7   4  13   37.14   11.74
   7   4  12    2.27    3.93
   7   4  11    3.84    4.98
   7   4  10    4.68    4.74
   7   4   9    8.31    3.68
   7   4   8   17.66    7.93
   7   4   7   27.91    8.47
  -7  -4  -7    5.49   10.09
   7   4   6   42.68   10.21
  -7  -4  -6    9.57    9.72
   7   4   5   33.58    8.38
  -7  -4  -5   16.22   12.13
   7   4   4   16.89    6.67
  -7  -4  -4    9.58    8.27
   7   4   3  158.59   14.82
   7   4   2   27.46    7.50
  -7  -4  -2   11.21    6.01
  -7  -4  -1   -1.56    4.79
   7   4   0   26.70    7.96
  -7  -4   0    3.39    4.02
  -7  -4   1   -1.18    5.36
  -7  -4   2    3.00    3.70
   7   4  -3    5.57    5.07
  -7  -4   3    7.13    5.26
   7   4  -4    4.05    4.84
  -7  -4   4    3.39    3.87
  -7  -4   5   11.19    4.54
  -7  -4   5   25.80    8.07
  -7  -4   6    5.72    4.13
  -7  -4   6   21.92    9.42
  -7  -4   7   34.48   12.53
  -7  -4   7   29.89   12.57
  -7  -4   8   70.31   23.98
   7   4  -8   22.09    6.99
  -7  -4   9  126.63   29.39
  -7  -4  10   79.87   21.27
   7   4 -10   36.01   10.59
  -7  -4  11  130.19   25.81
   7   4 -11   46.77    9.65
  -7  -4  12   27.55    8.38
  -7  -4  12   29.00   11.55
  -7  -4  13   63.09   16.28
  -7  -4  13   50.92   19.46
  -7  -4  14    4.88    5.23
  -7  -4  14    2.71    1.74
  -7  -4  15    7.89    7.62
  -7  -4  15    4.79    2.58
  -7  -4  16   16.36    9.07
  -7  -4  16   12.63    5.75
  -7  -4  17    5.68    6.26
  -7  -4  17    3.09    1.75
  -7  -4  18   22.83   11.58
  -7  -4  19    5.85    6.88
  -7  -4  20   12.77    8.73
  -7  -4  21    1.60    5.56
   7   5  19   12.64    7.79
   7   5  19    5.77    8.14
   7   5  18   20.79    8.08
   7   5  17   16.39    9.10
   7   5  16   18.89    7.93
   7   5  15   20.06    8.88
   7   5  14   61.37   12.67
   7   5  13    8.71    6.72
   7   5  12   10.62    5.78
   7   5  11    9.65    5.70
   7   5  10    2.88    4.42
   7   5   9    7.55    6.12
   7   5   8   23.94   10.98
  -7  -5  -8    5.32   10.99
  -7  -5  -7   11.89    9.52
   7   5   6   12.57    7.43
  -7  -5  -6    4.03    3.58
  -7  -5  -5    4.55    3.87
   7   5   4   13.93    7.50
  -7  -5  -4   11.78    6.29
   7   5   3   16.29    7.25
  -7  -5  -3    3.36    5.01
   7   5   2   17.14    9.45
   7   5   1    4.59    4.85
  -7  -5  -1    3.55    4.10
   7   5   0   17.00    8.04
  -7  -5   0   12.63    5.23
   7   5  -1    4.59    4.81
  -7  -5   1    9.02    4.48
   7   5  -2   17.71    8.16
  -7  -5   2    6.30    3.19
   7   5  -3   13.48    5.97
  -7  -5   3   18.86    9.37
  -7  -5   4   13.70    6.78
   7   5  -5   66.98   13.64
  -7  -5   5   85.85   23.33
  -7  -5   6  203.53   14.82
  -7  -5   7    4.75    4.13
  -7  -5   8  152.43   17.40
  -7  -5   9   27.59   12.22
  -7  -5   9   18.39   10.16
  -7  -5  10   77.51   17.65
  -7  -5  10   85.46   23.67
  -7  -5  11   18.92   11.57
  -7  -5  11   26.83    8.96
  -7  -5  12    5.41    5.06
  -7  -5  12    7.24    3.35
  -7  -5  13   10.26    7.39
  -7  -5  13    2.06    2.36
  -7  -5  14   48.50   10.71
  -7  -5  14   57.29    7.46
  -7  -5  15   14.78    8.67
  -7  -5  15   11.68    3.20
  -7  -5  16   11.57    9.08
  -7  -5  16    4.10    2.19
  -7  -5  17    5.83    5.86
  -7  -5  17    1.62    2.57
  -7  -5  18   11.38    6.77
  -7  -5  18    8.10    3.21
  -7  -5  19   16.59   11.59
  -7  -5  20   31.65   12.29
  -7  -5  21    6.72    5.82
   7   6  19   12.72    7.85
   7   6  18    5.37    5.18
   7   6  17    6.93    6.77
   7   6  16    6.34    4.80
   7   6  15    3.62    4.43
   7   6  14    5.67    4.06
   7   6  13    7.19    4.70
   7   6  12    4.59    4.33
   7   6  11   55.60   13.90
   7   6  10   18.27    6.97
  -7  -6 -10    6.52   14.31
   7   6   9  161.86   16.52
   7   6   8    2.86    4.54
  -7  -6  -8   23.94   15.93
   7   6   7   35.97   13.11
  -7  -6  -7    7.43    6.15
   7   6   6    5.72    5.41
  -7  -6  -6    7.62    6.15
  -7  -6  -5    6.24    5.32
   7   6   4   17.73    8.66
  -7  -6  -4   13.44    8.04
   7   6   2    7.12    5.01
  -7  -6  -2    7.01    5.77
   7   6   1    7.74    6.85
   7   6  -1   71.29   13.91
  -7  -6   1   70.80   19.91
   7   6  -2    9.30    6.61
  -7  -6   2   14.96    7.18
   7   6  -3   17.01    9.09
  -7  -6   3    2.78    2.78
   7   6  -4    7.29    8.40
  -7  -6   4   14.06    7.37
   7   6  -5   21.74    8.20
  -7  -6   5   43.46   13.51
   7   6  -6   14.13    7.47
  -7  -6   6   35.57   11.10
  -7  -6   7    5.97    3.67
  -7  -6   7    4.74    4.38
  -7  -6   8   51.18   15.85
  -7  -6   8   39.60   17.09
  -7  -6   9    9.25    4.63
  -7  -6  10   63.17   18.42
  -7  -6  10   57.37   21.61
  -7  -6  11   10.47    5.12
  -7  -6  11   10.17    4.69
  -7  -6  12    7.51    5.01
  -7  -6  12    1.88    2.53
  -7  -6  13   17.09    9.76
  -7  -6  13   31.46   10.11
  -7  -6  14    4.51    4.76
  -7  -6  14    2.86    2.69
  -7  -6  15   11.33    6.73
  -7  -6  15    8.57    3.78
  -7  -6  16    3.40    6.33
  -7  -6  16   24.25    8.30
  -7  -6  17   20.81    9.98
  -7  -6  17   26.18   10.05
  -7  -6  18   24.52   12.70
  -7  -6  18    4.74    3.23
  -7  -6  19   39.48   18.35
  -7  -6  20   16.60   10.34
   7   7  18    3.27    5.43
   7   7  17   13.45    8.87
   7   7  16   11.75    7.18
   7   7  15    6.02    4.92
   7   7  14    8.03    5.05
   7   7  13   24.62    9.60
   7   7  12   13.61    6.29
   7   7  11   12.15    6.16
  -7  -7 -11   15.01   12.62
   7   7  10    7.80    3.55
  -7  -7 -10   18.69   14.70
   7   7   9    6.96    4.75
  -7  -7  -9   26.88   23.30
   7   7   8   57.49   13.79
   7   7   7  105.33   13.82
  -7  -7  -7   21.59   13.19
  -7  -7  -6    9.51    6.19
   7   7   5   19.88    9.04
  -7  -7  -5    7.93    9.01
   7   7   4   10.97    7.72
  -7  -7  -4   22.77   11.94
   7   7   3   12.69    5.13
  -7  -7  -3    3.92    3.26
   7   7   2    1.83    4.07
  -7  -7  -2   11.30    5.38
   7   7   1    7.96    4.47
   7   7   0   21.82    8.29
  -7  -7   0   25.36   12.03
   7   7  -1    7.17    4.70
  -7  -7   1   12.56    8.05
   7   7  -2   25.54    9.51
  -7  -7   2   31.03    9.30
   7   7  -3   76.25   14.01
  -7  -7   3   86.12   19.40
   7   7  -4  199.53   19.12
  -7  -7   4  191.37   42.56
   7   7  -5  100.31   12.90
  -7  -7   5   94.96   28.32
   7   7  -6  124.77   14.97
  -7  -7   6  127.51   25.37
   7   7  -7    4.00    5.13
  -7  -7   7    4.59    3.64
  -7  -7   8   22.86   11.89
  -7  -7   8    7.23    3.44
  -7  -7   9    6.14    4.89
  -7  -7   9    4.18    4.15
  -7  -7  10    3.67    4.12
  -7  -7  10    3.31    2.91
  -7  -7  11    2.59    4.61
  -7  -7  11    2.51    3.37
  -7  -7  12   17.90   10.77
  -7  -7  12   31.41   11.00
  -7  -7  13   23.66   10.03
  -7  -7  13    9.02    4.25
  -7  -7  14   21.40   11.35
  -7  -7  14   10.16    4.36
  -7  -7  15    9.17    9.39
  -7  -7  15   24.10    8.63
  -7  -7  16   12.69    7.30
  -7  -7  16   12.91    6.32
  -7  -7  17    3.24    6.61
  -7  -7  17    7.64    3.41
  -7  -7  18   12.34    7.85
  -7  -7  18    4.52    2.70
  -7  -7  19    0.53    5.80
  -7  -7  19    3.75    3.34
  -7  -7  20   12.73    6.88
   7   8  17   12.55    7.82
   7   8  16    3.24    5.24
   7   8  15    9.89    5.52
   7   8  14    1.02    5.15
   7   8  13   15.25    8.86
   7   8  12    8.69    5.18
  -7  -8 -12   18.59   10.33
   7   8  11    3.52    4.64
  -7  -8 -11   11.96   12.96
   7   8  10   23.64    8.02
  -7  -8 -10    1.75    4.91
   7   8   9   13.54    7.76
  -7  -8  -9    5.13    6.93
   7   8   8   10.98    6.19
  -7  -8  -8    2.83    6.93
   7   8   7    8.13    4.52
  -7  -8  -7    5.18    5.49
   7   8   6    7.79    6.71
  -7  -8  -6    7.38    6.85
   7   8   5    5.38    6.47
  -7  -8  -5   28.22   16.32
   7   8   4    6.64    6.47
  -7  -8  -4    7.76    7.04
   7   8   3    4.63    4.43
  -7  -8  -3    1.79    5.20
   7   8   2    9.83    6.30
  -7  -8  -2   12.37    4.76
   7   8   1    7.13    4.63
   7   8   0    4.76    4.53
  -7  -8   0    1.69    4.14
   7   8  -1   42.37   14.95
  -7  -8   1   29.64   13.39
   7   8  -2   10.68    6.35
  -7  -8   2    6.44    3.48
   7   8  -3   65.33   14.37
  -7  -8   3   64.61   21.77
   7   8  -4   19.92    9.57
  -7  -8   4    6.97    4.22
   7   8  -5   13.05    9.08
  -7  -8   5   14.62    6.66
   7   8  -6   26.05    9.05
  -7  -8   6   67.05   23.93
   7   8  -7   47.94   12.64
  -7  -8   7   44.27   16.59
   7   8  -8   16.07    8.46
  -7  -8   8    3.42    3.85
  -7  -8   9   16.05    5.71
  -7  -8  10    7.26    6.80
  -7  -8  10    4.60    3.19
  -7  -8  11    6.09    3.66
  -7  -8  12   17.52   10.09
  -7  -8  12    4.22    3.20
  -7  -8  13   59.33   16.42
  -7  -8  13   51.82    9.71
  -7  -8  14   18.88    9.35
  -7  -8  14    8.42    4.04
  -7  -8  15   31.76   15.51
  -7  -8  15   46.92   12.47
  -7  -8  16   57.52   22.82
  -7  -8  16   32.40    8.95
  -7  -8  17   60.60   32.61
  -7  -8  17   70.13   26.33
  -7  -8  18    6.09    7.06
  -7  -8  18    6.50    2.96
  -7  -8  19   19.68   10.61
  -7  -8  19    2.79    2.27
   7   9  16    2.59    4.48
   7   9  15    2.70    4.89
   7   9  14    7.78    5.34
   7   9  13   10.47    5.24
  -7  -9 -13   14.53   10.78
   7   9  12   18.17    8.67
  -7  -9 -12   -5.22   11.09
   7   9  11    7.62    5.05
  -7  -9 -11   23.74   14.02
   7   9  10   14.10    7.15
  -7  -9 -10    3.98    6.24
   7   9   9    4.58    5.08
  -7  -9  -9   12.42   10.27
   7   9   8   30.43   11.68
  -7  -9  -8   10.55    7.64
   7   9   7    3.99    5.32
  -7  -9  -7    9.16    6.76
   7   9   6   16.50    8.07
  -7  -9  -6   18.50    8.66
   7   9   5    6.41    7.15
  -7  -9  -5    7.31    5.80
   7   9   4    8.21    7.61
  -7  -9  -4    6.75    6.82
   7   9   3   13.08    8.05
  -7  -9  -3   17.51   11.16
   7   9   2    8.30    5.28
  -7  -9  -2    6.65    3.96
   7   9   1    2.45    4.63
  -7  -9  -1    8.49    3.98
   7   9   0   30.29   10.56
   7   9  -1    9.44    5.40
  -7  -9   1    6.25    6.87
   7   9  -2    3.13    4.82
  -7  -9   2    4.24    5.54
   7   9  -3    4.06    5.15
  -7  -9   3    7.32    4.54
   7   9  -4    6.36    7.47
   7   9  -5    3.91    5.27
  -7  -9   5   14.12    8.63
   7   9  -6   10.48    6.04
  -7  -9   6    5.90    4.15
   7   9  -7   18.73    7.28
  -7  -9   7   12.35    5.46
   7   9  -8    5.59    7.05
  -7  -9   8    4.11    3.99
   7   9  -9    3.63    5.28
  -7  -9   9    5.71    3.99
  -7  -9  10   15.40    8.51
  -7  -9  11   15.01   11.21
  -7  -9  11    4.62    3.40
  -7  -9  12   41.11   11.87
  -7  -9  12   85.43   13.00
  -7  -9  13   34.75   16.31
  -7  -9  13   26.98    8.63
  -7  -9  14   15.55    8.69
  -7  -9  14   13.74    7.95
  -7  -9  15    8.20    4.42
  -7  -9  15    3.99    3.39
  -7  -9  16    5.52    5.56
  -7  -9  16    3.86    2.90
  -7  -9  17   11.49    5.70
  -7  -9  17   11.83    5.43
  -7  -9  18    4.16    5.03
  -7  -9  18    8.19    4.32
   7  10  15   12.03    5.12
   7  10  14    4.83    4.75
  -7 -10 -14   11.88   14.67
   7  10  13   10.16    6.55
  -7 -10 -13   17.21   15.17
   7  10  12    9.57    6.38
  -7 -10 -12   68.15   24.26
   7  10  11   10.56    5.14
  -7 -10 -11    5.29    6.04
   7  10  10    6.33    4.99
  -7 -10 -10    6.15    6.02
   7  10   9    7.36    6.75
  -7 -10  -9    4.06    3.97
   7  10   8   14.14    6.92
  -7 -10  -8    6.45    6.95
   7  10   7   10.59    5.49
  -7 -10  -7    8.21    7.51
   7  10   6   12.23    5.13
  -7 -10  -6    9.95    4.47
   7  10   5   17.71    9.92
  -7 -10  -5    1.77    4.16
   7  10   4    3.41    4.58
  -7 -10  -4   14.48    7.88
   7  10   3   42.38   11.98
  -7 -10  -3   60.12   22.59
   7  10   2    7.65    5.15
  -7 -10  -2    5.52    4.95
   7  10   1   10.53    5.49
  -7 -10  -1   11.59    5.39
   7  10   0   19.86    7.73
  -7 -10   0   11.44    6.22
   7  10  -1    3.10    4.82
   7  10  -2    4.19    4.99
  -7 -10   2    3.64    5.32
   7  10  -3    7.74    5.20
  -7 -10   3   23.18   11.05
   7  10  -4   48.14   12.66
   7  10  -5   43.26   13.36
  -7 -10   5   44.62   14.51
   7  10  -6   15.38    6.01
  -7 -10   6   13.76    6.72
   7  10  -7   72.51   15.68
  -7 -10   7   52.98    9.19
   7  10  -8   14.06    9.74
  -7 -10   8    4.35    4.11
   7  10  -9   20.31   11.65
  -7 -10   9    4.38    5.73
   7  10 -10   12.73    8.67
  -7 -10  10    2.10    3.76
   7  10 -11    8.35    6.29
  -7 -10  11    9.10    5.01
  -7 -10  12   12.23    7.49
  -7 -10  12    8.53    5.09
  -7 -10  13    4.83    3.27
  -7 -10  13    2.30    3.40
  -7 -10  14    8.00    7.06
  -7 -10  14   20.21    8.84
  -7 -10  15   16.57    9.66
  -7 -10  15    9.26    5.43
  -7 -10  16   14.90    7.50
  -7 -10  16    8.15    5.06
  -7 -10  17    7.27    5.00
  -7 -10  17    9.26    4.14
   7  11  14   11.71    7.20
  -7 -11 -14   29.58   20.32
   7  11  13   10.34    5.51
  -7 -11 -13   10.07   11.08
   7  11  12    7.33    4.34
  -7 -11 -12    4.31    5.41
   7  11  11    4.53    4.30
  -7 -11 -11    5.51    4.35
   7  11  10    6.78    4.56
  -7 -11 -10   12.11    5.52
   7  11   9    5.32    4.78
  -7 -11  -9    9.33    5.37
   7  11   8   15.74    7.28
  -7 -11  -8    8.42    6.18
   7  11   7    8.91    7.19
  -7 -11  -7   19.30   10.51
   7  11   6    8.71    6.62
  -7 -11  -6   11.50    7.32
   7  11   5   15.95    6.04
  -7 -11  -5    9.38    6.95
   7  11   4   38.26   13.07
  -7 -11  -4   27.24   12.64
   7  11   3   29.94   11.25
  -7 -11  -3   23.29   13.62
   7  11   2  101.50   14.00
  -7 -11  -2  151.72   46.85
   7  11   1   50.12   11.25
  -7 -11  -1   45.89   14.32
   7  11   0   11.12    5.28
  -7 -11   0   10.07    6.02
   7  11  -1   10.80    7.40
  -7 -11   1   12.36    6.99
   7  11  -2    4.21    4.84
  -7 -11   2    3.35    3.65
   7  11  -3   16.33    9.62
  -7 -11   3   16.77    8.66
   7  11  -4    3.59    5.03
  -7 -11   4    5.26    5.96
   7  11  -5    7.56    5.03
  -7 -11   5   13.12    9.32
   7  11  -6   65.00   11.61
  -7 -11   6   44.01   14.26
   7  11  -7   70.00   12.85
  -7 -11   7   46.74   10.07
   7  11  -8   74.90   14.43
  -7 -11   8   84.25   14.91
   7  11  -9   30.45   11.66
  -7 -11   9   28.62   10.49
   7  11 -10   39.53   12.68
  -7 -11  10   54.02   10.46
   7  11 -11   35.41   11.68
  -7 -11  11   42.47   12.95
   7  11 -12   14.41    8.31
  -7 -11  12   10.32    4.57
  -7 -11  13    7.85    4.64
  -7 -11  14    6.17    6.47
  -7 -11  14    6.15    4.36
  -7 -11  15    8.68    4.75
  -7 -11  15    0.78    2.90
  -7 -11  16    1.12    4.64
  -7 -11  16    7.75    3.80
  -7 -12 -13   14.90    9.68
   7  12  12    3.66    5.11
  -7 -12 -12   15.91   11.59
   7  12  11    4.65    4.75
  -7 -12 -11    8.75    5.15
   7  12  10    2.29    4.89
  -7 -12 -10   25.25   10.92
   7  12   9   13.92    6.47
  -7 -12  -9    4.61    4.84
   7  12   8   14.23    7.61
  -7 -12  -8    2.07    3.96
   7  12   7    4.91    4.73
  -7 -12  -7    8.99    4.43
   7  12   6   15.05    9.30
  -7 -12  -6    4.41    4.28
   7  12   5    6.06    4.86
  -7 -12  -5    4.44    4.34
   7  12   4   24.68    9.56
  -7 -12  -4   27.85   12.82
   7  12   3    7.00    6.46
  -7 -12  -3    5.08    7.50
   7  12   2    7.41    5.22
  -7 -12  -2   12.02    9.98
   7  12   1    2.69    7.03
  -7 -12  -1    9.29    8.51
   7  12   0    5.37    4.86
  -7 -12   0   19.20    9.57
   7  12  -1   12.48    6.30
  -7 -12   1   12.93    7.41
   7  12  -2    8.50    5.14
   7  12  -3   15.85    7.34
  -7 -12   3    6.53    5.44
   7  12  -4   15.52    7.15
  -7 -12   4   11.51    5.70
   7  12  -5    6.03    5.47
  -7 -12   5    6.41    6.11
   7  12  -6    6.91    5.34
  -7 -12   6    4.87    7.23
   7  12  -7   93.85   16.23
  -7 -12   7   74.29   12.08
   7  12  -8    4.56    5.24
  -7 -12   8    2.93    4.98
   7  12  -9   10.14    6.16
  -7 -12   9   16.12    7.81
   7  12 -10   19.99   11.00
  -7 -12  10   11.81    6.00
   7  12 -11   27.28   13.52
  -7 -12  11   39.68   11.69
   7  12 -12   17.76    9.41
  -7 -12  12   23.26    8.68
   7  12 -13    7.07    5.68
  -7 -12  13    5.38    5.68
   7  12 -14    2.62    5.98
  -7 -12  14    3.82    4.10
  -7 -12  15    0.99    3.38
   7  13  11    3.43    5.56
  -7 -13 -11    9.24    9.10
   7  13  10    5.03    7.38
  -7 -13 -10    5.65    4.96
   7  13   9   10.53    7.70
  -7 -13  -9   14.71   10.45
   7  13   8   13.09    6.83
  -7 -13  -8    3.66    4.62
   7  13   7    4.41    4.91
  -7 -13  -7    6.31    4.53
   7  13   6   22.46   11.14
  -7 -13  -6   22.51   12.55
   7  13   5   10.34    5.47
  -7 -13  -5    9.18    5.69
   7  13   4    5.64    5.38
  -7 -13  -4   21.64   11.50
   7  13   3    4.63    4.89
  -7 -13  -3   17.44   10.93
   7  13   2    6.62    6.92
  -7 -13  -2    7.51    4.96
   7  13   1   15.84    7.66
  -7 -13  -1   13.42    8.01
   7  13   0   11.75    5.59
  -7 -13   0   10.55    6.30
   7  13  -1   26.91   10.91
  -7 -13   1   29.85   13.56
   7  13  -2   10.06    5.26
  -7 -13   2   13.25    9.67
   7  13  -3   12.09    8.53
   7  13  -4    9.30    7.08
  -7 -13   4    6.54    6.04
   7  13  -5   10.70    7.56
  -7 -13   5   18.95    8.70
   7  13  -6   23.28    9.55
  -7 -13   6   18.86    9.57
   7  13  -7   14.97    7.67
  -7 -13   7   12.47    6.82
   7  13  -8   10.54    6.59
  -7 -13   8    3.98    4.87
   7  13  -9   -0.94    5.39
  -7 -13   9    6.70    7.24
   7  13 -10   11.76    6.62
  -7 -13  10   11.21    6.65
   7  13 -11   20.80    9.14
  -7 -13  11   27.92   12.15
   7  13 -12   13.54    9.29
  -7 -13  12   10.59    4.82
   7  13 -13    8.00    6.24
  -7 -13  13    1.25    3.54
   7  13 -14    2.36    5.70
  -7 -13  14    2.92    4.29
   7  14   9   11.11    8.16
  -7 -14  -9   21.06   12.37
   7  14   8    8.57    8.19
  -7 -14  -8    1.90    5.06
   7  14   7   10.47    6.46
  -7 -14  -7   17.74    9.90
   7  14   6    9.24    6.06
  -7 -14  -6    4.85    4.91
   7  14   5    9.85    8.27
  -7 -14  -5   12.54    7.90
   7  14   4   16.19    7.78
  -7 -14  -4   28.97   14.70
   7  14   3    4.97    5.50
  -7 -14  -3   11.52    7.49
   7  14   2   14.06    8.46
  -7 -14  -2   13.82    7.14
   7  14   1   16.00    8.81
  -7 -14  -1    5.55    8.59
   7  14   0    4.84    5.22
  -7 -14   0   10.48    7.38
   7  14  -1    5.77    5.62
  -7 -14   1   15.15    7.69
   7  14  -2    6.25    5.46
  -7 -14   2   16.91    9.44
   7  14  -3    4.95    5.49
   7  14  -4   21.43   10.31
  -7 -14   4   53.43   15.54
   7  14  -5   26.78   11.85
  -7 -14   5   33.60   10.95
   7  14  -6   20.91   10.42
  -7 -14   6    6.41    4.85
   7  14  -7   11.87    8.00
  -7 -14   7   -1.38    4.16
   7  14  -8    3.18    5.03
  -7 -14   8    7.71    4.83
   7  14  -9    8.92    7.57
  -7 -14   9    7.31    4.74
   7  14 -10   10.69    7.91
  -7 -14  10   12.84    5.43
   7  14 -11    4.14    5.83
  -7 -14  11   32.43   12.58
   7  14 -12    5.58    8.63
  -7 -14  12   12.82    6.60
   7  15   6    5.71    6.15
  -7 -15  -6    9.40    6.69
   7  15   5    8.34    6.53
  -7 -15  -5    3.75    3.46
   7  15   4    7.46    8.19
  -7 -15  -4    3.62    5.45
   7  15   3   11.70    6.42
  -7 -15  -3    5.06    6.12
   7  15   2   12.64    6.26
  -7 -15  -2   10.09    5.91
   7  15   1    2.78    5.65
  -7 -15  -1    9.32    4.14
   7  15   0    3.46    5.84
  -7 -15   0   14.62    9.16
   7  15  -1    4.98    5.43
  -7 -15   1    7.34    7.88
   7  15  -2   16.46    7.92
  -7 -15   2   30.41   16.68
   7  15  -3   11.06    8.12
  -7 -15   3   14.53    9.81
   7  15  -4    3.04    6.49
   7  15  -5    9.89    7.76
  -7 -15   5    7.53    5.78
   7  15  -6   14.50   10.28
  -7 -15   6    7.55    7.47
   7  15  -7   19.05   10.52
  -7 -15   7   16.56    8.90
   7  15  -8    9.22    7.86
  -7 -15   8    8.74    4.89
   7  15  -9    4.52    5.61
  -7 -15   9    3.20    4.77
   7  16   0   13.20    8.99
  -7 -16   0   -0.77    3.44
   7  16  -1    5.37    8.75
  -7 -16   1    3.94    3.89
   7  16  -2    3.49    6.12
  -7 -16   2    1.53    3.58
   7  16  -3    4.51    5.97
  -7 -16   3   10.38    8.10
   8 -14   5    1.46    3.79
   8 -14   4    6.98    7.09
   8 -14   3   14.95    8.20
   8 -14   2    3.06    3.65
   8 -14   1    6.14    5.39
   8 -14   0    8.48    5.06
   8 -13   9    5.29    6.92
   8 -13   8   11.33    7.03
   8 -13   7    8.80    6.44
   8 -13   6    8.33    6.86
   8 -13   5   19.59    8.86
   8 -13   4   12.68    5.75
   8 -13   3   13.01    7.63
   8 -13   2    9.42    7.68
   8 -13   1    4.73    6.14
   8 -13   0   14.32    6.00
   8 -13  -1    7.89    5.40
   8 -12  11   25.13   11.22
   8 -12  10    2.12    7.75
   8 -12   9   13.36   10.64
   8 -12   8   21.17    9.88
   8 -12   7   10.45    9.82
   8 -12   6    9.23    6.51
   8 -12   5   -2.94    5.69
   8 -12   4    3.99    5.14
   8 -12   3   12.10    5.74
   8 -12   2    0.74    4.71
   8 -12   1    8.38    5.50
   8 -12   0    3.71    4.97
   8 -12  -1    3.26    3.60
   8 -12  -2   15.43    5.76
   8 -11  13   17.15   10.53
   8 -11  12   16.36   10.31
   8 -11  11   14.13    9.96
   8 -11  10   18.46   12.10
   8 -11   9   11.98   11.08
   8 -11   8   20.30   14.91
   8 -11   7    7.55    7.41
   8 -11   6    8.16    6.94
   8 -11   5   14.68    9.78
   8 -11   4   26.64   10.72
   8 -11   3    6.20    5.29
   8 -11   2    1.21    4.45
   8 -11   1   13.74    8.53
   8 -11   0   23.09    9.46
   8 -11  -1    8.15    4.68
   8 -11  -2    0.94    2.40
   8 -11  -3    5.20    3.02
  -8  11   8    4.58    4.03
  -8  11   9    5.02    3.69
  -8  11  10    0.84    2.83
  -8  11  11    5.78    4.37
   8 -10  14    9.20    9.43
   8 -10  13    2.46    8.96
   8 -10  12    5.63    9.11
   8 -10  11   -0.36    8.85
   8 -10  10    9.71   12.07
   8 -10   9    5.47    8.16
   8 -10   8   18.29   12.67
   8 -10   7   27.97   12.87
   8 -10   6    4.70    6.82
   8 -10   5   41.69   14.06
   8 -10   4   15.97    8.79
   8 -10   3    7.73    5.72
   8 -10   2   21.85    9.19
   8 -10   1    5.65    4.53
   8 -10   0   13.23    8.24
   8 -10  -1    9.34    4.31
   8 -10  -2   -0.74    2.80
   8 -10  -3    3.12    2.29
  -8  10   4    3.01    2.04
   8 -10  -4   24.13    7.52
  -8  10   5   13.36    5.76
  -8  10   6    5.05    3.33
  -8  10   7   13.79    5.59
  -8  10   8    4.43    3.24
  -8  10   9   27.15   11.47
  -8  10  10    5.12    3.82
  -8  10  11    0.69    2.99
  -8  10  12    3.64    3.15
   8  -9  15   12.18   14.13
   8  -9  14   28.11   17.45
   8  -9  13    2.99    9.62
   8  -9  12   14.47   10.15
   8  -9  11   18.70   10.24
   8  -9  10   31.57   15.22
   8  -9   9    4.14    8.16
   8  -9   8    1.93    7.92
   8  -9   7   10.49    7.49
   8  -9   6    5.98   10.07
   8  -9   5    9.10    6.86
   8  -9   4   32.04   12.48
   8  -9   3    3.18    6.32
   8  -9   2    7.53    5.37
   8  -9   1    5.24    4.98
   8  -9   0   57.72   11.02
   8  -9  -1   11.34    9.00
   8  -9  -2    4.58    3.45
  -8   9   3    5.40    2.86
   8  -9  -3    8.57    4.72
  -8   9   4    4.01    1.95
   8  -9  -4    3.02    2.54
  -8   9   5    2.10    1.79
  -8   9   6   40.43   10.57
  -8   9   7   26.67    8.37
  -8   9   8   44.80   11.89
  -8   9   9    8.30    3.87
  -8   9  10    5.73    3.05
  -8   9  11    5.97    4.16
  -8   9  12    6.89    4.40
  -8   9  13    2.38    3.08
  -8   9  14    4.21    4.51
   8  -8  16    6.23   10.41
   8  -8  15    5.17    9.44
   8  -8  14    9.99    9.71
   8  -8  13    6.12    9.24
   8  -8  12    6.26    9.01
   8  -8  11    5.06    9.81
   8  -8  10   14.76   10.51
   8  -8   9   22.23   10.68
   8  -8   8    8.39   11.22
   8  -8   7   25.15   11.71
   8  -8   6   13.26   13.20
   8  -8   5   15.44   10.57
   8  -8   4    6.34    6.71
   8  -8   3   22.83   12.47
   8  -8   2   51.72   10.80
   8  -8   1   15.42    9.57
   8  -8   0   10.94    7.93
   8  -8  -1   38.12   12.75
   8  -8  -2    9.18    5.94
   8  -8  -3   16.67    9.45
  -8   8   4   -0.02    1.64
   8  -8  -4   -0.38    2.34
  -8   8   5   -0.59    2.14
   8  -8  -5    1.69    1.93
  -8   8   6    5.50    2.58
  -8   8   7    6.70    3.52
  -8   8   8    3.12    3.81
  -8   8   9    4.45    4.42
  -8   8  10    3.27    2.63
  -8   8  11    2.64    2.80
  -8   8  12    8.11    5.86
  -8   8  13   17.28    7.78
  -8   8  14    3.48    3.27
  -8   8  15    2.35    3.28
   8  -7  17   16.53   15.63
   8  -7  16    4.22    9.41
   8  -7  15   13.08   13.30
   8  -7  14    1.93    8.49
   8  -7  13   24.92   14.71
   8  -7  12    0.00    8.77
   8  -7  11    5.18    9.20
   8  -7  10    9.47    8.93
   8  -7   9   14.22    8.17
   8  -7   8   16.83   10.21
   8  -7   7   29.08   11.20
   8  -7   6   21.01   16.31
   8  -7   5    2.02    7.13
   8  -7   4    3.28    7.00
   8  -7   3   18.31    7.16
   8  -7   2   60.58   15.00
   8  -7   1   10.30    6.05
   8  -7   0   12.94    5.89
   8  -7  -1   39.82    8.31
   8  -7  -1   18.36    6.29
   8  -7  -2   -0.60    4.39
  -8   7   3    1.73    1.43
   8  -7  -3    5.72    5.41
  -8   7   4   31.11   11.31
   8  -7  -4   15.82    4.99
  -8   7   5    2.47    2.63
   8  -7  -5    6.11    3.26
  -8   7   6   39.78   12.08
  -8   7   7    3.42    4.06
  -8   7   8    5.85    3.35
  -8   7   9   22.32    8.19
  -8   7  10    6.87    3.75
  -8   7  11   24.27    8.57
  -8   7  12    7.24    5.58
  -8   7  13    4.07    5.42
  -8   7  14    9.29    4.85
  -8   7  15    8.22    4.64
  -8   7  16    1.78    3.64
   8  -6  17    8.64   10.33
   8  -6  16   33.24   15.54
   8  -6  15   23.65   13.01
   8  -6  14   26.19   13.20
   8  -6  13   20.15   10.35
   8  -6  12   27.97   15.20
   8  -6  11    5.69    8.38
   8  -6  10    8.56    8.19
   8  -6   9    5.13    7.51
   8  -6   8    9.73    7.22
   8  -6   7   10.24    7.95
   8  -6   6   60.51   15.06
   8  -6   5   16.11   10.84
   8  -6   4   13.08    7.00
   8  -6   3    6.85    6.84
   8  -6   2    2.65    6.00
   8  -6   1   48.23    9.43
   8  -6   1   46.75   12.99
   8  -6   0    6.26    2.08
   8  -6   0   12.97    8.57
   8  -6  -1  113.37    9.63
   8  -6  -1  123.59   15.27
   8  -6  -2   32.18   11.19
  -8   6   3   72.52   12.03
   8  -6  -3   62.71   13.97
  -8   6   4   24.45    9.23
   8  -6  -4   16.32    5.41
  -8   6   5    3.99    3.62
   8  -6  -5    0.42    2.33
  -8   6   6    4.49    2.81
   8  -6  -6    4.17    2.40
  -8   6   7    3.42    3.01
  -8   6   8   10.78    5.42
  -8   6   9    0.86    2.96
  -8   6  10    8.46    5.94
  -8   6  11   31.95   10.18
  -8   6  12    6.59    5.47
  -8   6  13   10.70    4.68
  -8   6  14    5.36    4.80
  -8   6  15    4.16    3.63
  -8   6  16    0.34    3.84
   8  -5  18   12.33    9.89
   8  -5  17   12.09   12.59
   8  -5  16   91.30   36.75
   8  -5  15   12.76    8.78
   8  -5  14   15.14   13.11
   8  -5  13    0.08    7.99
   8  -5  12   16.98   11.46
   8  -5  11    9.12    8.66
   8  -5  10    8.03   11.48
   8  -5   9   13.88    9.86
   8  -5   8    8.32    7.16
   8  -5   7   22.97   12.31
   8  -5   6  122.88   14.59
   8  -5   5   28.78   10.00
   8  -5   4   58.06   14.39
   8  -5   3    3.41    1.01
   8  -5   3   13.45    9.94
   8  -5   2    0.93    0.74
   8  -5   2    8.76    5.98
   8  -5   1    7.21    2.37
   8  -5   1   11.83    7.56
   8  -5   0    6.10    2.50
   8  -5   0   12.58    8.00
   8  -5  -1   38.31    7.97
   8  -5  -1   38.29   10.31
   8  -5  -2    4.12    2.86
   8  -5  -2    9.94    5.86
  -8   5   3   45.59   14.16
   8  -5  -3   43.34   10.69
  -8   5   4   28.18   10.30
   8  -5  -4   19.30    9.62
  -8   5   5   90.42   10.48
   8  -5  -5   69.15   14.87
  -8   5   6   33.22   10.56
   8  -5  -6   28.75    9.00
  -8   5   7   10.57    5.19
   8  -5  -7    2.89    1.29
  -8   5   8   14.44    8.63
  -8   5   9    7.82    4.83
  -8   5  10    9.26    6.08
  -8   5  11    7.64    4.87
  -8   5  12   70.73   11.38
  -8   5  13   24.57    9.16
  -8   5  14    8.26    4.23
  -8   5  15   27.69   12.45
  -8   5  16   16.88    9.52
  -8   5  17    2.84    4.07
   8  -4  18    5.02    9.07
   8  -4  17   11.55   12.88
   8  -4  16   24.37   12.69
   8  -4  15   23.72   12.04
   8  -4  14   13.41    9.21
   8  -4  13   10.09   10.22
   8  -4  12   26.09   12.96
   8  -4  11   -1.04    7.13
   8  -4  10    4.87    7.37
   8  -4   9    2.68    1.46
   8  -4   9   14.46    9.53
   8  -4   8   10.48    6.02
   8  -4   7    2.42    1.47
   8  -4   7    6.15    6.68
   8  -4   6   16.00    5.01
   8  -4   6    9.94    6.48
   8  -4   5   32.52    6.37
   8  -4   5   33.87   10.57
   8  -4   4    6.31    2.28
   8  -4   4   12.87    4.28
   8  -4   4    1.74    5.71
   8  -4   3   97.91    8.20
   8  -4   3  121.20   10.03
   8  -4   3  139.51   15.75
   8  -4   2   19.20    7.18
   8  -4   2   31.33    9.20
   8  -4   2   31.15   10.96
   8  -4   1   10.63    2.65
   8  -4   1   25.62    9.48
   8  -4   1   15.39    6.55
   8  -4   0    1.78    1.55
   8  -4   0    3.59    2.28
   8  -4   0   14.21    7.60
   8  -4  -1    1.81    1.71
   8  -4  -1    5.57    3.50
   8  -4  -1    5.92    4.14
   8  -4  -2    3.09    1.95
   8  -4  -2    3.56    2.13
   8  -4  -2   13.91    7.84
  -8   4   3    4.41    3.07
   8  -4  -3    1.98    2.93
   8  -4  -3    3.03    2.26
   8  -4  -3   11.22    5.02
  -8   4   4   53.67   17.93
   8  -4  -4   45.68   10.74
  -8   4   5   20.54   10.05
   8  -4  -5   14.62    5.80
  -8   4   6   53.88   12.72
   8  -4  -6   53.54   11.77
  -8   4   7   11.53    4.17
   8  -4  -7    7.94    2.35
  -8   4   8    9.69    6.07
  -8   4   9   10.49    4.22
  -8   4  11   30.86   11.66
  -8   4  12   15.89    7.07
  -8   4  13    4.70    3.95
  -8   4  14   12.77    6.12
  -8   4  15    1.63    4.21
  -8   4  16    8.84    4.48
  -8   4  17    4.53    4.45
  -8   4  18    6.68    6.66
   8  -3  18   19.53   14.19
   8  -3  17   17.30    8.45
   8  -3  16    5.34    7.02
   8  -3  15    2.46    7.09
   8  -3  14   11.78    9.62
   8  -3  13    6.57    2.87
   8  -3  13    1.98    5.86
   8  -3  12    3.36    2.25
   8  -3  12    9.63    8.84
   8  -3  11   10.87    2.64
   8  -3  11   27.14    9.94
   8  -3  10   17.83    4.08
   8  -3  10   21.44   10.66
   8  -3   9    4.59    2.40
   8  -3   9    8.70    6.44
   8  -3   8   33.59    9.90
   8  -3   8   27.72   11.63
   8  -3   7    0.94    1.07
   8  -3   7   12.43    8.52
   8  -3   6    5.07    1.77
   8  -3   6   10.04    7.88
   8  -3   5   19.87    8.40
   8  -3   5   27.50    5.61
   8  -3   5   19.79    9.76
   8  -3   4   26.54    9.66
   8  -3   4   35.46   10.39
   8  -3   4   37.99   12.37
   8  -3   3   35.67   10.42
   8  -3   3   45.48    8.62
   8  -3   3   40.68   13.10
   8  -3   2    7.05    2.55
   8  -3   2    7.92    2.56
   8  -3   2   12.11    6.39
   8  -3   1    6.17    2.10
   8  -3   1   11.28    3.05
   8  -3   1    8.70    4.26
   8  -3   0    2.53    2.06
   8  -3   0    2.45    1.96
   8  -3   0    4.84    3.39
   8  -3  -1    0.09    1.82
   8  -3  -1    5.20    2.55
   8  -3  -1    3.36    3.29
   8  -3  -2  121.62   11.13
   8  -3  -2   83.83   15.28
   8  -3  -2  126.38   11.49
  -8   3   3   12.91    4.38
   8  -3  -3    1.51    2.10
   8  -3  -3    6.30    2.56
   8  -3  -3   12.94    4.07
  -8   3   4   63.80   18.57
   8  -3  -4   31.25    6.94
   8  -3  -4   56.62   12.45
  -8   3   5   39.74   11.94
   8  -3  -5   21.36    9.61
  -8   3   6   91.24   21.14
   8  -3  -6   80.79    7.84
  -8   3   7    5.53    5.23
   8  -3  -7    8.77    3.91
  -8   3   8    2.62    3.27
   8  -3  -8    4.78    2.40
  -8   3   9    7.30    5.72
  -8   3  10   13.05    7.80
  -8   3  11    3.68    4.36
  -8   3  12    6.43    4.50
  -8   3  13    4.76    4.58
  -8   3  14    4.13    4.43
  -8   3  15   12.23    6.02
  -8   3  16   -0.33    3.53
  -8   3  17    9.07    6.65
  -8   3  18    4.50    4.81
   8  -2  18   11.77    7.87
   8  -2  17    9.05    7.19
   8  -2  16   13.83    7.79
   8  -2  15    3.64    3.41
   8  -2  15   16.74   10.56
   8  -2  14    6.10    3.39
   8  -2  14   20.67   10.58
   8  -2  13    2.10    3.10
   8  -2  13   13.05    6.55
   8  -2  12   30.03    9.23
   8  -2  12   60.37   11.75
   8  -2  11   71.97   15.29
   8  -2  10   72.85    7.74
   8  -2  10   49.78   13.99
   8  -2   9   78.32    7.99
   8  -2   9   79.27   12.09
   8  -2   8    3.16    1.80
   8  -2   8    1.22    5.20
   8  -2   7   41.26    9.07
   8  -2   7   21.30   10.82
   8  -2   6   13.31    4.77
   8  -2   6   25.95    5.87
   8  -2   6   28.56    9.63
   8  -2   5   11.24    2.84
   8  -2   5   27.55    8.47
   8  -2   5   39.46   14.82
   8  -2   4    9.79    2.60
   8  -2   4   19.82    7.67
   8  -2   4   15.52    7.22
   8  -2   3    7.02    2.33
   8  -2   3   34.17   10.29
   8  -2   3   30.70   10.98
   8  -2   2   13.85    5.55
   8  -2   2   29.65   11.30
   8  -2   1   15.21    5.63
   8  -2   1   37.18   11.19
   8  -2   1   12.60    4.67
   8  -2   0   65.64   12.66
   8  -2   0   80.82   15.17
   8  -2   0   91.73   17.48
   8  -2  -1   14.66    5.72
   8  -2  -1   29.52    9.41
   8  -2  -1   20.41    8.80
   8  -2  -2    6.53    2.71
   8  -2  -2   24.55    9.72
   8  -2  -2    5.41    2.21
   8  -2  -2   29.26   10.30
  -8   2   3    4.85    3.14
   8  -2  -3    2.58    1.71
   8  -2  -3    0.13    2.73
  -8   2   4   43.19   16.63
   8  -2  -4   23.61    8.96
   8  -2  -4   49.00    9.95
  -8   2   5  204.72   35.65
   8  -2  -5  149.82   12.46
   8  -2  -5  225.99   18.24
  -8   2   6   32.68    9.90
   8  -2  -6    6.71    2.18
   8  -2  -6   11.31    2.88
  -8   2   7   49.49   11.94
   8  -2  -7   39.76    8.46
  -8   2   8   12.99    4.11
   8  -2  -8   14.85    3.94
  -8   2   9    4.26    5.34
  -8   2  10    8.23    4.80
  -8   2  11    7.13    4.66
  -8   2  12   12.22    7.31
  -8   2  13    4.28    4.32
  -8   2  14    6.47    6.36
  -8   2  15   56.73   14.48
  -8   2  16   11.89    9.26
  -8   2  17   39.81   18.51
  -8   2  18    7.38    8.32
   8  -1  19   18.12   10.60
   8  -1  18   22.44    9.93
   8  -1  17    9.74    5.44
   8  -1  17    8.54    9.26
   8  -1  16    5.20    3.03
   8  -1  16   12.24    6.81
   8  -1  15    0.38    2.69
   8  -1  15    7.53    6.25
   8  -1  14    7.64    3.57
   8  -1  14    0.79    5.45
   8  -1  13    5.59    2.73
   8  -1  13    7.15    5.64
   8  -1  12   20.43    9.34
   8  -1  12   33.65   12.33
   8  -1  11   12.99    6.85
   8  -1  11   17.32   11.30
   8  -1  10    8.39    2.88
   8  -1  10    8.41    7.12
   8  -1   9   25.12    7.94
   8  -1   9   20.79    9.66
   8  -1   8    9.66    3.17
   8  -1   8   12.57    6.93
   8  -1   7   18.76    8.33
   8  -1   7   13.78    5.30
   8  -1   7   12.69    8.54
   8  -1   6    3.06    1.73
   8  -1   6    4.07    2.76
   8  -1   6   15.47    7.12
   8  -1   5   12.45    2.99
   8  -1   5   27.90    8.80
   8  -1   5   21.66   11.44
   8  -1   4    6.33    2.59
   8  -1   4    7.21    3.55
   8  -1   4   12.18    7.57
   8  -1   3   21.82    8.56
   8  -1   3   16.94    6.24
   8  -1   3   31.16   11.79
   8  -1   2  120.84   10.93
   8  -1   2  132.38   13.69
   8  -1   1   43.35   12.76
   8  -1   1   76.45   15.17
   8  -1   1   52.65   11.12
   8  -1   0   70.66   13.17
   8  -1   0  138.25   12.09
   8  -1   0  156.22   14.37
   8  -1  -1   21.74    8.57
   8  -1  -1   46.75   10.31
   8  -1  -1   30.71   10.03
   8  -1  -2   88.80   16.69
   8  -1  -2   85.19   16.61
   8  -1  -3   22.60    8.79
   8  -1  -3   36.78   11.73
  -8   1   4   56.20   17.27
   8  -1  -4   20.31    7.85
   8  -1  -4   47.10   10.17
  -8   1   5   43.35   18.38
   8  -1  -5   46.24    9.10
   8  -1  -5   59.96   11.93
  -8   1   6   12.97    8.46
   8  -1  -6    0.85    1.28
   8  -1  -6    4.45    2.17
  -8   1   7   27.09    8.77
   8  -1  -7   19.30    8.41
  -8   1   8    4.09    3.82
   8  -1  -8    4.50    2.35
  -8   1   9   17.01    7.11
   8  -1  -9    7.62    1.95
  -8   1  10   15.56    6.98
  -8   1  11    6.18    4.49
  -8   1  12    6.16    6.45
  -8   1  13   25.18   10.57
  -8   1  14    2.52    4.04
  -8   1  15   28.94   10.62
  -8   1  16   12.02    8.16
  -8   1  17   24.47    7.96
  -8   1  18    7.10    8.01
  -8   1  19   10.47    7.86
   8   0  19   10.76    6.48
   8   0  19    8.84    9.41
   8   0  18    1.97    3.13
   8   0  18    8.35    7.26
   8   0  17   14.63    6.62
   8   0  17   22.05    7.28
   8   0  16    8.59    3.52
   8   0  16   18.30    9.77
   8   0  15    1.45    2.83
   8   0  15    2.82    5.62
   8   0  14    8.46    4.34
   8   0  14   15.75    9.36
   8   0  13    1.43    2.72
   8   0  13    4.86    5.73
   8   0  12    6.83    3.65
   8   0  12   15.47    9.00
   8   0  11    6.99    3.45
   8   0  11    2.38    5.59
   8   0  10   50.01   11.99
   8   0  10   61.31   16.58
   8   0   9   62.62   13.86
   8   0   9   86.40   14.41
   8   0   8   12.05    3.62
   8   0   8   12.14    6.32
   8   0   7    4.68    2.46
   8   0   7    7.38    7.49
   8   0   6    3.08    2.49
   8   0   6    2.21    2.17
   8   0   6   -2.03    4.64
   8   0   5   25.53    9.98
   8   0   5   51.19   10.53
   8   0   4    0.60    2.13
   8   0   4   12.11    4.27
   8   0   3   49.87    9.92
   8   0   3   72.30   13.87
   8   0   2   48.20    9.81
   8   0   2   54.31   11.65
   8   0   1  104.62   10.35
   8   0   0   69.86   14.01
   8   0  -1  111.55   11.35
   8   0  -2   67.01   13.57
   8   0  -3   85.05   16.61
  -8   0   4   10.41    4.46
   8   0  -4    1.86    1.61
  -8   0   5   31.10   12.52
   8   0  -5   27.49    8.42
  -8   0   6    3.24    3.12
   8   0  -6    3.08    1.85
  -8   0   7   17.50   10.29
   8   0  -7    3.58    2.28
  -8   0   8   20.92   10.82
  -8   0   9   62.30   15.71
  -8   0  10   42.64   11.14
   8   0 -10   39.12    8.32
  -8   0  11    9.79    4.67
   8   0 -11    4.63    1.63
  -8   0  12   12.04    6.69
  -8   0  13    4.83    4.41
  -8   0  14    1.49    7.42
  -8   0  15    9.57    6.06
  -8   0  16   20.96   11.06
  -8   0  17   11.32    5.70
  -8   0  18    9.29    7.66
  -8   0  19   10.24    8.87
   8   1  19   11.85    6.62
   8   1  18    3.29    3.75
   8   1  18   -1.06    6.33
   8   1  17   18.14    5.41
   8   1  17   24.86   10.15
   8   1  16    4.66    3.42
   8   1  16   29.74   10.98
   8   1  15   12.77    7.80
   8   1  15   37.91   13.51
   8   1  14    3.88    3.13
   8   1  14    5.80    5.47
   8   1  13    8.69    3.34
   8   1  13   26.13   11.46
   8   1  12    4.67    3.57
   8   1  12    5.76    5.34
   8   1  11   10.99    3.57
   8   1  11    3.73    5.26
   8   1  10    7.72    3.01
   8   1  10    8.47    5.56
   8   1   9   13.39    4.11
   8   1   8    3.75    2.48
   8   1   7   23.76    6.02
   8   1   6    5.13    2.56
   8   1   5   62.60   13.34
   8   1   4   41.59   13.16
   8   1   3   54.26   11.29
   8   1   2  110.13   11.46
   8   1   1   40.07   12.34
   8   1   0  123.53   11.62
   8   1  -1   89.84   17.07
   8   1  -2  121.25   12.37
   8   1  -3   30.76   11.39
  -8  -1   5   35.93   13.13
   8   1  -5   10.00    3.36
  -8  -1   6   12.59    7.55
   8   1  -6    3.07    2.29
  -8  -1   7   21.22   12.28
   8   1  -7    3.45    1.54
  -8  -1   8   12.23    5.99
  -8  -1   9   27.68   10.68
  -8  -1  10   11.33    4.81
  -8  -1  11   17.56    9.67
  -8  -1  12   45.77    9.79
  -8  -1  13   18.81    9.58
  -8  -1  14    2.25    5.74
  -8  -1  15    8.60    5.64
  -8  -1  16    9.75    7.45
  -8  -1  17    4.95    7.33
  -8  -1  18   11.32    5.82
  -8  -1  19    9.68    7.19
   8   2  18    7.63    5.58
   8   2  18    8.12    7.08
   8   2  17   21.14    7.18
   8   2  17   12.47    6.95
   8   2  16    6.68    5.67
   8   2  16   19.70   10.82
   8   2  15   48.35   13.48
   8   2  15   47.14   13.70
   8   2  14    5.57    4.79
   8   2  14    7.29    5.76
   8   2  13    6.12    5.20
   8   2  13   -0.19    4.97
   8   2  12    6.14    4.32
   8   2  11    8.24    3.33
   8   2  10    0.20    2.68
   8   2   9    3.62    2.79
   8   2   8    8.07    3.09
   8   2   7   53.64   11.93
   8   2   6   10.27    4.43
   8   2   5  227.50   19.77
   8   2   4   55.67   12.03
   8   2   3    2.62    4.29
   8   2   2   12.09    4.09
   8   2   1   37.28   12.81
   8   2   0   84.57   16.76
   8   2  -1   26.42   11.21
   8   2  -2   11.25    3.97
  -8  -2   2    6.07    7.47
   8   2  -3   41.47   13.43
  -8  -2   3   13.11   13.98
   8   2  -4   20.04    8.92
  -8  -2   4    6.70    8.87
  -8  -2   5   26.36   13.20
  -8  -2   5   10.78    6.86
  -8  -2   6   18.67    9.76
  -8  -2   6   19.63   11.24
  -8  -2   7   42.13   15.00
  -8  -2   7   13.16    9.24
  -8  -2   8   -0.16    3.96
  -8  -2   8   11.78    7.52
  -8  -2   9   64.33   20.37
  -8  -2   9    1.95    2.39
  -8  -2  10    5.60    3.32
  -8  -2  11    1.19    2.29
  -8  -2  12    2.09    3.69
  -8  -2  13    3.34    5.68
  -8  -2  13    3.88    2.39
  -8  -2  14   10.14    5.78
  -8  -2  14    1.73    2.63
  -8  -2  15    9.21    7.23
  -8  -2  16    4.86    5.30
  -8  -2  17    8.11    5.43
  -8  -2  18    7.82    8.24
  -8  -2  19   27.29   10.57
   8   3  18    2.98    4.30
   8   3  18    9.77    8.69
   8   3  17    1.57    4.10
   8   3  17    6.34    8.69
   8   3  16    7.16    5.79
   8   3  16    8.07    5.93
   8   3  15    8.38    3.98
   8   3  15   11.34    6.35
   8   3  14   10.83    5.60
   8   3  13    5.61    3.51
   8   3  12    9.40    5.04
   8   3  11    6.00    4.52
   8   3  10    8.60    4.70
   8   3   9   14.22    5.62
   8   3   8    8.57    4.92
   8   3   7    5.47    4.70
   8   3   6   87.34   10.01
   8   3   5   37.72    9.04
   8   3   4   61.97   14.53
   8   3   3   10.46    5.39
   8   3   1    6.90    5.01
  -8  -3  -1   43.97   27.90
   8   3   0    8.62    5.26
  -8  -3   0   15.82   10.52
   8   3  -1   11.26    5.41
  -8  -3   1    7.39   14.90
   8   3  -2   10.97    6.41
  -8  -3   2    2.84    3.93
   8   3  -3   36.30   12.16
  -8  -3   3    5.66    3.73
   8   3  -4   43.63   13.96
  -8  -3   4    3.81    4.45
   8   3  -5   30.08    9.13
  -8  -3   5    6.84    4.73
  -8  -3   6    9.64    5.79
  -8  -3   6    4.37    3.59
  -8  -3   7    9.42    5.61
  -8  -3   7    3.20    3.89
  -8  -3   8   24.82   12.40
  -8  -3   8    5.96    3.47
  -8  -3   9   14.39    7.67
  -8  -3   9   -0.25    2.38
  -8  -3  10    3.17    2.72
  -8  -3  11   36.03   18.19
  -8  -3  11    2.10    2.24
  -8  -3  12    2.74    5.62
  -8  -3  12    2.56    2.17
  -8  -3  13    4.22    5.15
  -8  -3  13    1.93    1.86
  -8  -3  14    3.10    7.00
  -8  -3  14    3.82    2.49
  -8  -3  15    8.92    7.63
  -8  -3  16    3.37    4.99
  -8  -3  17    2.11    5.72
  -8  -3  18  168.13   42.76
  -8  -3  19    8.61    7.29
   8   4  18    8.16    6.28
   8   4  18    5.87    6.11
   8   4  17    4.77    4.17
   8   4  17   15.17   10.02
   8   4  16    7.92    4.30
   8   4  16   20.92    8.83
   8   4  15    5.39    5.42
   8   4  14    6.71    3.74
   8   4  13    6.14    6.10
   8   4  12    3.73    3.67
   8   4  11    7.96    3.75
   8   4  10    9.38    6.07
   8   4   9   13.08    7.20
   8   4   8    3.43    3.28
   8   4   7   27.16   10.03
   8   4   6   39.93    9.96
   8   4   5   21.10   10.05
   8   4   4   53.99   12.28
  -8  -4  -4   25.07   15.90
   8   4   3   10.00    4.02
  -8  -4  -3   19.93   17.78
   8   4   2   11.75    6.57
  -8  -4  -2   -2.39   11.09
   8   4   1    5.66    6.46
  -8  -4  -1   -0.43    4.83
   8   4   0    4.70    6.11
  -8  -4   0    2.00    2.85
   8   4  -1   28.35   10.80
  -8  -4   1    9.08    6.10
   8   4  -2   37.22   12.26
  -8  -4   2    3.37    5.01
  -8  -4   3   11.57    8.35
   8   4  -4   10.34    6.87
  -8  -4   4    4.85    3.36
   8   4  -5   41.56   10.60
  -8  -4   5    6.49    4.35
  -8  -4   6    3.60    4.89
  -8  -4   7    4.62    4.52
  -8  -4   8    3.64    2.72
  -8  -4   9    0.87    1.41
  -8  -4  10   14.94    9.76
  -8  -4  10    5.62    3.29
  -8  -4  11    9.54    6.06
  -8  -4  11    5.64    3.43
  -8  -4  12   23.87   10.91
  -8  -4  12    2.20    2.61
  -8  -4  13   16.07    8.15
  -8  -4  14    7.17    5.80
  -8  -4  15   19.92   10.66
  -8  -4  16   16.23    9.58
   8   5  17    7.30    6.37
   8   5  16    9.73    5.72
   8   5  15    5.89    4.12
   8   5  14   17.83    7.74
   8   5  13   22.80    9.67
   8   5  12   16.39    8.02
   8   5  11    3.84    3.86
   8   5  10    7.02    4.13
   8   5   9    9.52    5.39
   8   5   8    9.70    5.72
   8   5   7    8.79    5.67
   8   5   6   18.22    7.38
  -8  -5  -6   16.81   15.39
   8   5   5   82.34   12.20
   8   5   4   20.86   10.92
   8   5   3   49.10   13.32
  -8  -5  -3   13.85    7.98
   8   5   2   21.85   11.50
  -8  -5  -2   27.59   14.99
   8   5   1   34.18   10.37
  -8  -5  -1    4.22    4.46
   8   5   0   11.53    6.30
  -8  -5   0    6.06    5.38
   8   5  -1   18.02    9.89
  -8  -5   1   10.42    4.72
   8   5  -2    6.36    4.54
  -8  -5   2    8.36    5.03
   8   5  -3   14.45    7.82
  -8  -5   3    1.02    4.94
   8   5  -4   58.13   15.12
  -8  -5   4   -0.32    3.95
   8   5  -5   47.00   11.66
  -8  -5   5   11.08    4.99
  -8  -5   6   20.77    6.31
  -8  -5   7   -0.57    3.53
  -8  -5   8   16.20    7.55
  -8  -5   8    5.45    4.28
  -8  -5   9    8.32    5.93
  -8  -5  10    4.95    6.42
  -8  -5  10    2.94    2.73
  -8  -5  11    9.40    5.28
  -8  -5  11    3.79    3.94
  -8  -5  12    6.87    4.50
  -8  -5  12    9.32    3.75
  -8  -5  13    7.97    6.71
  -8  -5  13    2.57    2.64
  -8  -5  14   18.38    8.16
  -8  -5  14   14.64    7.44
  -8  -5  15    3.90    3.34
  -8  -5  16   31.22   14.28
  -8  -5  17   13.51   10.38
  -8  -5  18   16.42   10.94
   8   6  16    6.46    4.55
   8   6  15    1.73    4.16
   8   6  14    4.39    4.15
   8   6  13   12.84    4.90
   8   6  12   12.04    5.84
   8   6  11   12.13    6.04
   8   6  10    1.69    4.04
   8   6   9   10.81    5.52
   8   6   8    4.35    5.63
  -8  -6  -8   11.78   12.98
   8   6   7    0.29    3.89
  -8  -6  -7    6.67   10.89
   8   6   6    2.92    4.34
  -8  -6  -6   -3.96   11.18
   8   6   5    7.24    4.51
  -8  -6  -5    4.87    6.80
   8   6   4   19.48    5.93
  -8  -6  -3    7.45    6.40
   8   6   2   41.68   11.89
  -8  -6  -2    3.83    7.74
  -8  -6  -1   10.82    8.18
   8   6   0   11.05    4.61
   8   6  -1   72.29    9.49
  -8  -6   1   12.19    7.61
   8   6  -2   23.16   11.78
  -8  -6   2    6.52    4.05
   8   6  -3    3.36    6.03
  -8  -6   3    5.47    3.33
   8   6  -4   42.37   11.49
  -8  -6   4    3.62    4.10
   8   6  -5   14.01    7.49
  -8  -6   5   16.61    7.41
   8   6  -6   70.67   16.82
   8   6  -7   27.10   11.27
  -8  -6   8   56.26   20.09
  -8  -6   9   19.99   10.55
  -8  -6   9    5.68    4.61
  -8  -6  10   -0.14    2.44
  -8  -6  11    3.00    2.90
  -8  -6  12    5.21    4.03
  -8  -6  13    7.23    3.50
  -8  -6  14   34.95   15.51
  -8  -6  14   54.08   20.38
  -8  -6  15   23.79   13.04
  -8  -6  15   33.95   12.32
  -8  -6  16   58.27   28.70
  -8  -6  16   38.84   22.26
  -8  -6  17    8.66    7.57
  -8  -6  18   10.64    6.67
   8   7  15    8.85    6.16
   8   7  14   10.65    6.33
   8   7  13    1.69    5.47
   8   7  12    6.83    5.64
   8   7  11    7.74    4.11
   8   7  10    4.94    4.01
  -8  -7  -9   33.20   19.69
   8   7   8    4.18    5.62
  -8  -7  -8   16.42   13.56
   8   7   7    3.32    4.02
  -8  -7  -7   23.53   13.71
   8   7   6   23.65    6.51
  -8  -7  -6    3.93    4.10
   8   7   5    5.78    4.13
  -8  -7  -5    8.57    6.69
   8   7   4   20.86    6.45
   8   7   3    5.12    6.07
   8   7   2    7.10    4.21
  -8  -7  -2    8.91    6.23
   8   7   1   13.24    6.74
  -8  -7  -1   13.09    8.60
   8   7   0   20.45    6.95
  -8  -7   0    7.14    4.63
   8   7  -1   39.38   11.03
  -8  -7   1    7.17    4.28
  -8  -7   2    4.61    4.59
   8   7  -3   34.19   12.64
  -8  -7   3   30.25   13.68
   8   7  -4   12.28    4.67
  -8  -7   4    9.31    5.58
   8   7  -5   19.47    9.30
  -8  -7   5    7.63    4.45
   8   7  -6   10.06    6.22
  -8  -7   6    8.81    6.22
   8   7  -7   23.84    8.04
  -8  -7   7   37.10   15.28
   8   7  -8   27.91    9.82
  -8  -7   8    7.59    4.19
  -8  -7   9   24.73   12.78
  -8  -7  10   12.97    8.72
  -8  -7  10   14.24    7.66
  -8  -7  11    7.68    3.92
  -8  -7  11   -1.17    2.70
  -8  -7  12    8.85    5.77
  -8  -7  12    2.72    1.99
  -8  -7  13    0.68    3.69
  -8  -7  13    3.95    2.61
  -8  -7  14    6.14    4.27
  -8  -7  14    6.17    3.40
  -8  -7  15   22.02    8.41
  -8  -7  15   16.83    8.83
  -8  -7  16   -1.19    6.86
  -8  -7  16    1.93    1.90
  -8  -7  17   28.87   11.53
   8   8  15    6.08    4.46
   8   8  14    2.66    4.85
   8   8  13   16.33    8.26
   8   8  12    4.63    4.45
   8   8  11    3.63    3.94
  -8  -8 -11    8.62   12.13
   8   8  10    1.99    4.05
  -8  -8 -10   15.04   13.36
   8   8   9    0.58    4.49
  -8  -8  -9   28.13   19.40
   8   8   8    7.29    5.77
  -8  -8  -8    8.32    6.02
   8   8   7    4.02    6.37
  -8  -8  -7    0.82    5.00
   8   8   6    6.00    4.92
  -8  -8  -6   10.42    6.59
   8   8   5    4.67    4.58
  -8  -8  -5   -0.48    7.04
   8   8   4    3.53    4.62
  -8  -8  -4    3.25    5.23
   8   8   3   27.28    7.95
  -8  -8  -3    3.68    5.00
   8   8   2    9.58    4.93
  -8  -8  -2    5.99    6.80
  -8  -8  -1    4.06    3.14
   8   8   0   13.15    8.92
  -8  -8   0    4.00    3.96
   8   8  -1   14.86    8.91
  -8  -8   1   32.83   15.19
   8   8  -2   54.71   10.99
  -8  -8   2   60.05   15.32
   8   8  -3   14.19    9.95
  -8  -8   3    7.18    4.34
   8   8  -4    3.38    4.65
  -8  -8   4    5.08    3.83
   8   8  -5    8.13    5.18
  -8  -8   5    9.79    4.65
   8   8  -6    4.37    5.27
  -8  -8   6    8.14    6.04
   8   8  -7   39.99    9.11
  -8  -8   7   55.49   16.69
   8   8  -8   15.59    7.20
  -8  -8   8    1.28    2.79
   8   8  -9   28.88   11.09
  -8  -8   9   27.96   12.73
  -8  -8  10   12.26    6.59
  -8  -8  11    3.33    5.59
  -8  -8  11    6.87    3.55
  -8  -8  12    3.08    6.04
  -8  -8  12    4.76    2.63
  -8  -8  13   10.11    6.50
  -8  -8  13    5.72    3.56
  -8  -8  14    4.31    6.22
  -8  -8  14    8.12    3.55
  -8  -8  15    8.29    5.80
  -8  -8  15    6.64    5.18
  -8  -8  16   -2.43    5.89
  -8  -8  16    4.38    3.33
   8   9  13   10.94    6.70
   8   9  12    6.70    4.63
  -8  -9 -12   -5.52   12.15
   8   9  11    3.17    4.31
  -8  -9 -11    7.88   14.11
   8   9  10   17.76    8.38
  -8  -9 -10   38.04   22.69
   8   9   9    4.71    5.06
  -8  -9  -9    2.62    3.42
   8   9   8   33.31   10.75
  -8  -9  -8    7.97    5.73
   8   9   7   13.41    8.65
  -8  -9  -7   11.04    7.58
   8   9   6   30.29   10.44
  -8  -9  -6    2.51    6.11
   8   9   5   11.23    6.98
  -8  -9  -5    7.25    6.37
   8   9   4    7.17    5.03
  -8  -9  -4    9.93   10.31
   8   9   3    5.57    5.20
  -8  -9  -3   12.90    9.13
   8   9   2    1.10    4.55
   8   9   1    4.12    4.75
  -8  -9  -1   -1.22    4.30
   8   9   0   36.80   12.98
   8   9  -1   13.96    9.04
  -8  -9   1   30.84   13.17
   8   9  -2   11.76    5.33
  -8  -9   2   17.20   11.74
   8   9  -3   11.32    5.29
  -8  -9   3   12.96    8.21
   8   9  -4   30.92   11.70
  -8  -9   4   53.72   16.26
   8   9  -5    2.34    4.79
  -8  -9   5    7.18    6.52
   8   9  -6   12.62    7.20
  -8  -9   6   19.98   10.16
   8   9  -7    8.36    5.34
  -8  -9   7    2.43    2.54
   8   9  -8    2.15    4.80
  -8  -9   8   11.89    5.32
   8   9  -9    7.02    5.46
  -8  -9   9   12.64    8.28
   8   9 -10   36.37   11.67
  -8  -9  10   50.08   16.27
   8   9 -11   18.22    9.10
  -8  -9  11   23.41   18.00
  -8  -9  12   10.85    7.63
  -8  -9  13   11.68    4.95
  -8  -9  13    5.79    5.25
  -8  -9  14    8.18    4.47
  -8  -9  14    8.39    5.04
  -8  -9  15    7.66    4.89
  -8  -9  15    2.20    3.00
   8  10  12    6.90    4.67
  -8 -10 -12    8.06   11.05
   8  10  11    3.77    4.24
  -8 -10 -11   20.70   13.24
   8  10  10   11.97    6.39
  -8 -10 -10    5.40    6.35
   8  10   9   15.28    8.01
  -8 -10  -9    4.93    4.03
   8  10   8    3.16    4.40
  -8 -10  -8   13.86    7.44
   8  10   7   11.67    6.62
  -8 -10  -7   -1.67    6.25
   8  10   6    7.36    4.69
  -8 -10  -6   10.98    9.82
   8  10   5   11.13    6.25
  -8 -10  -5   10.62    5.89
   8  10   4    8.96    4.91
  -8 -10  -4    7.58    7.88
   8  10   3    8.92    6.70
  -8 -10  -3    0.33    2.06
   8  10   2   11.40    5.24
  -8 -10  -2   15.41    7.08
   8  10   1    6.53    4.72
  -8 -10  -1   13.39    7.42
   8  10   0   15.05    5.61
  -8 -10   0    5.85    4.96
   8  10  -1   11.29    5.54
  -8 -10   1   16.16    6.47
   8  10  -2   42.81   10.85
  -8 -10   2   40.96   11.88
   8  10  -3   41.94   11.55
  -8 -10   3   51.95   18.82
   8  10  -4    6.24    5.18
  -8 -10   4   16.89    9.16
   8  10  -5   43.39   14.80
  -8 -10   5   56.88   18.92
   8  10  -6   21.95   10.63
  -8 -10   6   11.88    5.43
   8  10  -7    7.96    5.39
  -8 -10   7   12.89    7.22
   8  10  -8   30.29   11.28
  -8 -10   8   20.50   10.89
   8  10  -9    7.85    5.66
  -8 -10   9    8.27    6.02
   8  10 -10   19.27   10.63
  -8 -10  10   11.51    6.63
   8  10 -11   12.50    8.07
  -8 -10  11    9.86    6.10
   8  10 -12    2.79    6.54
  -8 -10  12   11.20    5.55
  -8 -10  13    8.33    5.55
  -8 -10  14    2.91    5.89
  -8 -10  14    7.10    3.71
   8  11  11    3.90    4.30
  -8 -11 -11   13.94   11.45
   8  11  10    7.04    6.21
  -8 -11 -10    6.63    5.78
   8  11   9    4.61    4.39
  -8 -11  -9    7.42    7.02
   8  11   8    3.35    4.43
  -8 -11  -8   13.73    9.56
   8  11   7   10.29    5.12
  -8 -11  -7    2.76    6.01
   8  11   6    3.07    4.53
  -8 -11  -6    6.80    6.15
   8  11   5   13.08    6.51
  -8 -11  -5   10.22    9.14
   8  11   4   10.85    6.50
  -8 -11  -4    9.17    7.32
   8  11   3    2.60    4.79
  -8 -11  -3   15.84    8.92
   8  11   2    7.80    4.11
  -8 -11  -2   13.73   10.81
   8  11   1    2.18    4.57
   8  11   0    8.96    6.78
  -8 -11   0   25.70    9.83
   8  11  -1   16.09    9.04
  -8 -11   1   21.59   14.17
   8  11  -2    7.10    4.87
  -8 -11   2    7.11    5.27
   8  11  -3   13.51    8.38
  -8 -11   3   10.86    5.30
   8  11  -4   26.44   10.65
  -8 -11   4   15.51    9.45
   8  11  -5   14.22    9.28
  -8 -11   5    9.41    4.98
   8  11  -6    2.59    5.00
  -8 -11   6    5.75    3.82
   8  11  -7   13.19    7.48
  -8 -11   7    9.50    5.44
   8  11  -8    6.41    5.59
  -8 -11   8    3.36    3.40
   8  11  -9    3.20    8.64
  -8 -11   9    9.78    4.89
   8  11 -10    7.57    6.66
  -8 -11  10    2.02    4.82
   8  11 -11    8.20    7.06
  -8 -11  11   10.09    5.55
   8  11 -12   13.42    9.43
  -8 -11  12   19.54    8.58
   8  11 -13   21.46    9.63
  -8 -11  13   33.60   11.44
   8  12   9    7.34    6.38
  -8 -12  -9   18.96   12.06
   8  12   8    5.98    6.55
  -8 -12  -8    1.63    3.89
   8  12   7   12.61    7.04
  -8 -12  -7    7.37    4.53
   8  12   6    6.62    5.13
  -8 -12  -6   11.87    7.54
   8  12   5    7.07    5.16
  -8 -12  -5    7.67    4.77
   8  12   4   11.66    5.32
  -8 -12  -4    2.51    2.49
   8  12   3    2.73    4.84
  -8 -12  -3    6.67    8.92
   8  12   2   17.48    9.02
  -8 -12  -2   11.63    8.34
   8  12   1    5.43    4.99
   8  12   0    7.17    5.54
  -8 -12   0    7.22    5.21
   8  12  -1    5.84    6.56
  -8 -12   1    5.45    3.28
   8  12  -2    9.31    7.29
  -8 -12   2   10.00    6.39
   8  12  -3   14.98    8.56
  -8 -12   3    8.78    4.48
   8  12  -4   10.15    5.88
  -8 -12   4   10.97    6.42
   8  12  -5   17.24    9.94
  -8 -12   5    8.13    5.06
   8  12  -6   16.34    9.51
  -8 -12   6   20.83    8.86
   8  12  -7   14.95   11.19
  -8 -12   7    3.88    3.90
   8  12  -8    6.76    6.32
  -8 -12   8    4.90    3.31
   8  12  -9    3.53    6.43
  -8 -12   9   19.93    6.91
   8  12 -10   12.77   10.09
  -8 -12  10    7.43    7.75
   8  12 -11   32.59   13.45
  -8 -12  11   14.17    8.38
   8  13   6   12.81    7.79
  -8 -13  -6    3.42    3.28
   8  13   5    2.82    4.99
  -8 -13  -5    8.48    5.26
   8  13   4   15.60    7.88
  -8 -13  -4    7.36    4.47
   8  13   3   10.80    7.61
  -8 -13  -3   14.38    8.29
   8  13   2   18.72    6.95
  -8 -13  -2   27.88   16.52
   8  13   1    9.30    8.35
  -8 -13  -1    3.81    5.00
   8  13   0   10.20    6.20
  -8 -13   0   13.78    9.36
   8  13  -1    9.23    5.95
  -8 -13   1    9.11    8.30
   8  13  -2    8.04    8.36
  -8 -13   2    5.03    5.44
   8  13  -3   26.06    8.44
  -8 -13   3   13.75    7.34
   8  13  -4   11.36    8.36
  -8 -13   4    8.54    5.97
   8  13  -5   21.31    9.29
  -8 -13   5    4.39    4.31
   8  13  -6   13.98    9.91
  -8 -13   6    5.75    3.78
   8  13  -7    9.79    6.26
  -8 -13   7    6.82    6.15
   8  13  -8   11.94    8.97
  -8 -13   8   -0.68    3.99
   8  13  -9   14.31   10.68
  -8 -13   9    7.04    6.57
   8  14   2    7.06    8.18
  -8 -14  -2    4.28    4.15
   8  14   1   -0.54    5.94
  -8 -14  -1    7.75    6.56
   8  14   0   11.12    6.52
   8  14  -1    3.49    5.76
  -8 -14   1    8.88    6.94
   8  14  -2    2.37    6.04
  -8 -14   2    5.17    4.38
   8  14  -3   12.96    7.03
  -8 -14   3   27.21   12.46
   8  14  -4   17.43   12.48
  -8 -14   4    4.04    6.68
   8  14  -5    3.58    5.94
  -8 -14   5   17.62    8.68
   9 -12   2   10.94    6.20
   9 -12   1    8.57    6.32
   9 -11   7   12.26    9.16
   9 -11   6    2.20    6.37
   9 -11   5    5.83    7.44
   9 -11   4   -1.84    4.69
   9 -11   3    0.26    4.34
   9 -11   2   11.39    6.95
   9 -11   1   10.13    7.75
   9 -10   9   -1.38    7.18
   9 -10   8   18.52   14.15
   9 -10   7   20.83   10.28
   9 -10   6    2.56    5.80
   9 -10   5    7.18    5.70
   9 -10   4    3.51    7.92
   9 -10   3    8.19    5.28
   9 -10   2    3.20    4.10
   9 -10   1   18.13    7.13
   9 -10   0   10.70    6.03
   9 -10  -1   20.05    6.21
   9  -9  11    4.58    8.82
   9  -9  10    4.97    8.32
   9  -9   9    0.70    7.64
   9  -9   8   15.68   13.66
   9  -9   7   25.23   11.22
   9  -9   6    1.50    6.14
   9  -9   5   16.73    9.89
   9  -9   4    5.29    5.50
   9  -9   3    1.06    5.16
   9  -9   2    3.54    4.65
   9  -9   1    9.21    6.22
   9  -9   0    2.78    3.70
   9  -9  -1   -1.39    3.84
  -9   9   9    5.14    4.13
   9  -8  12    0.55    8.14
   9  -8  11    9.52    8.61
   9  -8  10    7.88   11.07
   9  -8   9   10.17    7.80
   9  -8   8    0.77    6.97
   9  -8   7   21.70   12.38
   9  -8   6   17.31   11.23
   9  -8   5   20.63   11.20
   9  -8   4   13.19    7.54
   9  -8   3   19.13    8.22
   9  -8   2   13.92    8.53
   9  -8   1   13.48    8.03
   9  -8   0   -0.79    3.76
   9  -8  -1    8.73    6.30
   9  -8  -2    6.11    4.92
  -9   8   5    2.70    2.57
  -9   8   6    2.57    2.67
  -9   8   7    4.67    3.57
  -9   8   8   10.07    4.09
  -9   8   9    4.12    3.75
  -9   8  10    3.05    3.80
  -9   8  11    4.16    3.23
   9  -7  13   13.56    8.72
   9  -7  12   10.07    8.29
   9  -7  11    7.06   12.07
   9  -7  10   20.60   11.21
   9  -7   9    9.00    7.27
   9  -7   8   17.33   10.74
   9  -7   7    6.82    7.08
   9  -7   6   12.00    9.22
   9  -7   5    9.16    8.71
   9  -7   4   38.92   13.35
   9  -7   3    6.54    5.18
   9  -7   2    3.59    4.81
   9  -7   1    9.63    6.35
   9  -7   0    5.16    5.23
   9  -7  -1   -1.03    4.73
   9  -7  -2    7.86    4.22
   9  -7  -3    7.29    5.29
  -9   7   4    3.85    1.96
  -9   7   5    0.53    2.21
  -9   7   6   49.03   17.30
  -9   7   7    5.39    3.63
  -9   7   8   11.62    4.81
  -9   7   9   12.41    5.11
  -9   7  10   -0.23    3.39
  -9   7  11   -0.26    3.33
  -9   7  12    8.13    5.75
   9  -6  14   42.89   16.48
   9  -6  13   -0.18    7.97
   9  -6  12   10.96    8.72
   9  -6  11   21.55   11.55
   9  -6  10    5.00    7.68
   9  -6   9   12.01    7.35
   9  -6   8    7.79    6.56
   9  -6   7    4.93    6.69
   9  -6   6   16.17    9.98
   9  -6   5   15.51    8.03
   9  -6   4   17.94    8.23
   9  -6   3    4.80    5.26
   9  -6   2    5.66    4.90
   9  -6   1    4.05    4.42
   9  -6   0   10.32    5.55
   9  -6  -1   16.30    7.05
   9  -6  -2    7.92    2.84
   9  -6  -2    9.07    6.02
   9  -6  -3   21.85    7.02
   9  -6  -3   46.19    8.89
  -9   6   4    3.66    2.63
   9  -6  -4    6.18    2.97
  -9   6   5   28.34   10.65
  -9   6   6    9.52    3.58
  -9   6   7    5.39    3.86
  -9   6   8    5.74    4.20
  -9   6   9   12.33    4.72
  -9   6  10    1.61    3.26
  -9   6  11    9.91    5.28
  -9   6  12    9.07    6.29
  -9   6  13    8.39    6.08
   9  -5  15   21.09   15.27
   9  -5  14   14.54   11.78
   9  -5  13   15.40    9.46
   9  -5  12    2.56    7.55
   9  -5  11   -0.78    7.22
   9  -5  10   46.70   17.11
   9  -5   9   12.92    8.69
   9  -5   8    5.43    6.49
   9  -5   7    9.28    9.34
   9  -5   6   11.92    6.93
   9  -5   5   12.12    8.56
   9  -5   4    6.47    5.85
   9  -5   3   47.05   10.05
   9  -5   2    8.76    7.00
   9  -5   1   20.76   10.48
   9  -5   0    5.59    2.09
   9  -5   0   19.59   11.53
   9  -5  -1   10.51    3.40
   9  -5  -1    2.61    4.54
   9  -5  -2   10.40    3.25
   9  -5  -2   16.35    6.94
   9  -5  -3    2.21    2.94
   9  -5  -3    2.92    3.78
  -9   5   4    7.35    3.71
   9  -5  -4    4.95    3.31
  -9   5   5    9.04    3.77
   9  -5  -5    6.35    3.77
  -9   5   6   23.47    9.35
  -9   5   7   21.15    8.49
  -9   5   8   17.35    7.92
  -9   5   9   34.36    9.00
  -9   5  10    7.28    5.05
  -9   5  11    8.72    6.12
  -9   5  12    4.45    4.47
  -9   5  13    1.93    3.78
  -9   5  14   15.16    7.72
   9  -4  15    1.38    8.19
   9  -4  14   10.96   10.93
   9  -4  13   19.17   10.80
   9  -4  12    5.64    7.17
   9  -4  11   26.71   14.04
   9  -4  10    8.80    7.64
   9  -4   8    6.37    6.67
   9  -4   7   47.35   10.54
   9  -4   6   11.37    8.44
   9  -4   5   12.93    5.96
   9  -4   4    5.18    4.73
   9  -4   3    0.83    1.25
   9  -4   3    1.78    4.58
   9  -4   2    7.22    2.40
   9  -4   2   19.16   11.37
   9  -4   1   15.25    7.12
   9  -4   1   16.19    9.62
   9  -4   0    5.16    2.77
   9  -4   0    6.38    4.90
   9  -4  -1   44.00   12.77
   9  -4  -1   23.23    7.20
   9  -4  -2   14.89    7.36
   9  -4  -2   12.31    5.27
   9  -4  -3    6.51    4.33
   9  -4  -3   12.20    6.20
   9  -4  -4    5.37    4.22
  -9   4   5    2.76    2.82
   9  -4  -5    5.28    4.25
  -9   4   6   12.81    4.70
  -9   4   7   10.61    4.65
  -9   4   8    5.69    4.13
  -9   4   9   15.32    8.23
  -9   4  10    4.47    4.13
  -9   4  11    4.09    6.24
  -9   4  12    7.14    5.85
  -9   4  13    0.49    3.62
  -9   4  14    9.80    5.96
   9  -3  15    8.26    7.44
   9  -3  14   -4.29    6.49
   9  -3  13   17.37   10.76
   9  -3  12    9.64    5.77
   9  -3  11    6.69    7.17
   9  -3  10   10.32    5.62
   9  -3   9    7.63    5.38
   9  -3   8    3.69    5.06
   9  -3   7    6.49    6.68
   9  -3   6    4.88    2.00
   9  -3   6   16.89    6.99
   9  -3   5    6.57    2.25
   9  -3   5    3.21    4.57
   9  -3   4    3.51    2.06
   9  -3   4    5.05    4.18
   9  -3   3    5.17    2.12
   9  -3   3    9.66    5.35
   9  -3   2    6.15    2.57
   9  -3   2    3.79    4.21
   9  -3   1    6.72    3.18
   9  -3   1    7.38    3.81
   9  -3   0  102.68   10.62
   9  -3   0  119.07   13.31
   9  -3  -1   15.34    7.94
   9  -3  -1    7.24    5.07
   9  -3  -2    8.67    3.59
   9  -3  -2   20.31    9.76
   9  -3  -3    6.44    3.23
   9  -3  -4    1.48    2.88
  -9   3   5    5.32    3.22
   9  -3  -5    2.13    2.38
  -9   3   6   46.09   15.98
   9  -3  -6   26.86    8.93
  -9   3   7   12.21    5.71
  -9   3   8    7.73    5.69
  -9   3   9    3.50    3.79
  -9   3  10    9.39    4.69
  -9   3  11    6.01    4.44
  -9   3  12   27.66   11.31
  -9   3  13    9.29    5.67
  -9   3  14    4.30    4.81
  -9   3  15    2.52    5.14
   9  -2  15   16.27   10.91
   9  -2  14    5.18    6.02
   9  -2  13   26.29   12.45
   9  -2  12   11.77    5.10
   9  -2  11   16.74    9.26
   9  -2  10   27.83   10.18
   9  -2   9    1.75    1.95
   9  -2   9    6.07    7.59
   9  -2   8   35.26   10.34
   9  -2   8   26.33   10.91
   9  -2   7   26.83    8.08
   9  -2   7   45.86    9.96
   9  -2   6    2.17    1.77
   9  -2   6    2.73    6.34
   9  -2   5    4.50    2.44
   9  -2   5   12.58    7.70
   9  -2   4    2.72    2.18
   9  -2   4    3.66    4.26
   9  -2   3    8.36    2.92
   9  -2   3    3.22    3.63
   9  -2   2    1.46    1.84
   9  -2   2    5.07    3.61
   9  -2   1    3.48    3.63
   9  -2   1    2.39    3.34
   9  -2   0   20.02    9.49
   9  -2   0   11.43    4.78
   9  -2  -1    6.08    3.59
   9  -2  -1    5.24    5.53
   9  -2  -2   93.32   10.59
   9  -2  -2   91.56   10.99
   9  -2  -3   36.90   11.41
   9  -2  -3   23.73    6.55
   9  -2  -4   59.70    8.74
   9  -2  -4   42.21   12.86
  -9   2   5    5.48    3.21
   9  -2  -5    0.95    2.10
  -9   2   6    8.24    4.18
   9  -2  -6    5.17    2.93
  -9   2   7   15.28    7.16
   9  -2  -7   20.07    6.93
  -9   2   8    1.44    3.55
  -9   2   9   37.07   14.13
  -9   2  10   10.14    5.93
  -9   2  11    8.54    4.36
  -9   2  12    5.37    4.37
  -9   2  13   39.81   17.30
  -9   2  14   12.57    7.96
  -9   2  15    0.35    4.52
   9  -1  16   16.96   11.34
   9  -1  15    9.09   11.97
   9  -1  14   12.79    6.56
   9  -1  13   16.62   10.01
   9  -1  12   18.06    8.59
   9  -1  11    5.99    3.58
   9  -1  11   13.33    8.87
   9  -1  10    4.92    3.04
   9  -1  10    5.82    7.09
   9  -1   9    1.65    1.77
   9  -1   9    3.84    5.28
   9  -1   8    3.22    2.53
   9  -1   8   12.55    8.01
   9  -1   7    4.74    2.63
   9  -1   7   12.89    7.43
   9  -1   6   14.29    7.01
   9  -1   6   12.45    6.72
   9  -1   5    7.21    3.64
   9  -1   5    4.59    6.59
   9  -1   4   41.52   12.48
   9  -1   4   62.28   12.12
   9  -1   3    5.00    2.37
   9  -1   3    7.90    5.89
   9  -1   2   29.01    6.56
   9  -1   2   29.59    8.13
   9  -1   1   13.49    5.09
   9  -1   1   10.61    3.50
   9  -1   0    5.19    4.37
   9  -1   0    5.10    4.74
   9  -1  -1   14.44    5.10
   9  -1  -1    5.68    3.29
   9  -1  -2    7.71    4.60
   9  -1  -2    6.90    4.10
   9  -1  -3   58.31    8.86
   9  -1  -3   54.78    8.41
   9  -1  -4   14.79    8.11
   9  -1  -4    4.66    3.69
   9  -1  -5    6.54    3.53
  -9   1   6    8.90    4.41
   9  -1  -6    2.22    2.81
  -9   1   7   15.11    6.25
   9  -1  -7    7.06    2.96
  -9   1   8   16.08    6.15
   9  -1  -8    5.52    2.14
  -9   1   9   15.52    8.26
  -9   1  10   33.43   10.83
  -9   1  11    2.54    4.13
  -9   1  12    5.62    4.84
  -9   1  13   53.18   21.99
  -9   1  14    9.03    5.18
  -9   1  15   22.06    9.33
  -9   1  16    9.24    7.35
   9   0  16    8.04    6.74
   9   0  15    9.23    6.38
   9   0  14    6.72    6.82
   9   0  13    3.65    2.41
   9   0  13   13.15    8.07
   9   0  12    1.56    2.12
   9   0  12    1.44    4.98
   9   0  11    2.19    3.08
   9   0  11   14.45    9.27
   9   0  10    1.12    2.74
   9   0  10   10.78    7.28
   9   0   9    2.62    2.72
   9   0   9    3.59    4.80
   9   0   8    3.60    2.77
   9   0   8   10.07    7.96
   9   0   7   14.64    3.43
   9   0   7   37.95   13.72
   9   0   6    5.18    3.02
   9   0   6    9.51    6.60
   9   0   5    6.61    2.53
   9   0   5   13.88    8.75
   9   0   4    3.49    2.85
   9   0   4    4.95    4.50
   9   0   3   30.52    9.92
   9   0   3   30.16   10.28
   9   0   2    5.56    3.26
   9   0   2   -1.30    3.48
   9   0   1    4.84    3.09
   9   0   1   13.39    5.57
   9   0   0    5.22    4.77
   9   0  -1    2.04    3.01
   9   0  -2    6.18    5.47
   9   0  -3   27.04    6.19
   9   0  -4    7.07    4.64
   9   0  -4    2.18    2.61
   9   0  -5    4.30    3.46
   9   0  -6    3.73    2.43
   9   0  -7   38.56   11.78
  -9   0   8    8.29    4.50
   9   0  -8    7.43    2.97
  -9   0   9    3.88    4.03
  -9   0  10    2.41    3.62
  -9   0  11    7.43    7.06
  -9   0  12    3.28    4.79
  -9   0  13   -0.08    4.28
  -9   0  14    0.66    4.29
  -9   0  15    9.92    7.29
  -9   0  16    0.96    5.20
   9   1  15   14.87    7.00
   9   1  15   16.09    9.37
   9   1  14    4.45    3.90
   9   1  14   20.84    8.57
   9   1  13   18.57    5.11
   9   1  13   16.14    9.26
   9   1  12    7.81    3.59
   9   1  12    5.99    5.70
   9   1  11    9.87    4.04
   9   1  11   12.12    7.21
   9   1  10    7.12    3.49
   9   1  10   13.16    7.38
   9   1   9    2.89    2.32
   9   1   9    6.66    7.23
   9   1   8    1.40    2.41
   9   1   8    1.88    5.04
   9   1   7    6.78    3.63
   9   1   7    8.05    5.63
   9   1   6    5.89    4.15
   9   1   5   16.73    7.99
   9   1   4    5.61    3.34
   9   1   3   45.05   13.74
   9   1   2    9.50    3.76
   9   1   1   18.89    7.05
   9   1   0    4.55    4.00
   9   1  -1   19.07    5.45
   9   1  -2   21.64    5.65
   9   1  -3    1.82    3.67
   9   1  -4   59.86    9.61
   9   1  -5    8.51    4.21
  -9  -1   7    3.23    4.19
  -9  -1   8    3.27    3.64
  -9  -1   9    7.11    5.05
  -9  -1  10    5.44    4.34
  -9  -1  11    2.19    4.03
  -9  -1  12   10.58    7.98
  -9  -1  13    8.65    6.10
  -9  -1  14   14.71    9.23
  -9  -1  15    7.47    7.59
  -9  -1  16   21.89    9.88
   9   2  15   12.47    5.07
   9   2  15    7.36    6.90
   9   2  14    5.10    3.15
   9   2  14   10.52    7.04
   9   2  13    4.47    2.85
   9   2  13   13.94    7.87
   9   2  12    3.78    2.74
   9   2  12    8.83    6.00
   9   2  11   12.65    4.35
   9   2  11    8.19    7.32
   9   2  10   14.19    7.04
   9   2   9   47.56   12.21
   9   2   8    1.53    2.65
   9   2   7   22.70    7.72
   9   2   6    5.67    3.27
   9   2   5    7.79    5.03
   9   2   4   65.06    9.72
   9   2   3   29.33    6.60
   9   2   2   98.95   11.84
   9   2   1   18.08    9.08
   9   2   0   10.11    5.04
   9   2  -1    1.83    3.40
   9   2  -2    3.15    3.55
   9   2  -3   11.04    6.67
   9   2  -4    9.07    5.43
   9   2  -5    3.64    3.90
   9   2  -6   15.52    9.31
  -9  -2   7   33.33   14.28
  -9  -2   8   40.79   12.46
  -9  -2   9   14.40    5.77
  -9  -2  10   38.36   13.51
  -9  -2  11    8.76    6.42
  -9  -2  12   12.06    6.47
  -9  -2  13   33.13   13.36
  -9  -2  14   20.04    9.56
  -9  -2  15    8.28    7.74
  -9  -2  16   13.21    7.95
   9   3  15    1.56    2.98
   9   3  15   11.18    7.41
   9   3  14    1.83    3.20
   9   3  14    1.97    6.22
   9   3  13    5.54    4.34
   9   3  13   10.93    7.95
   9   3  12   14.70    6.28
   9   3  11    5.23    3.12
   9   3  10   17.13    7.49
   9   3   9    7.92    4.52
   9   3   8    8.29    4.51
   9   3   7    3.93    2.97
   9   3   6   30.59   10.09
   9   3   5   -0.99    2.94
   9   3   4    5.35    4.65
   9   3   3    4.80    3.47
   9   3   2   17.88    8.68
   9   3   1   10.61    6.41
   9   3   0   96.57   11.97
   9   3  -1    5.85    4.05
   9   3  -2   15.54    8.57
   9   3  -3   14.19    7.64
   9   3  -4    8.91    6.81
  -9  -3   4    7.67    9.19
   9   3  -5    3.83    4.32
  -9  -3   5    2.23    5.78
   9   3  -6   16.08    6.58
  -9  -3   6    3.23    4.95
  -9  -3   7   14.91    7.94
  -9  -3   8    1.23    3.59
  -9  -3   8    5.81    6.66
  -9  -3   9    3.13    4.61
  -9  -3   9   10.56    6.73
  -9  -3  10   14.05    9.61
  -9  -3  10    7.34    4.63
  -9  -3  11    1.92    4.03
  -9  -3  11    9.87    6.97
  -9  -3  13    3.55    2.68
  -9  -3  14    4.45    5.08
  -9  -3  15    6.63    4.25
   9   4  14    7.03    3.67
   9   4  13    2.00    3.06
   9   4  12    1.98    3.22
   9   4  11    4.81    4.72
   9   4  10   -0.37    2.94
   9   4   9    1.84    3.40
   9   4   8    1.08    3.37
   9   4   7    7.19    4.97
   9   4   6    5.82    2.85
   9   4   5    1.95    3.32
   9   4   4    4.88    4.74
   9   4   3    6.18    4.78
   9   4   2   10.19    5.11
   9   4   1   29.24    7.41
  -9  -4  -1   35.46   18.72
   9   4   0    4.98    4.91
  -9  -4   0   21.58    9.91
   9   4  -1   32.65   11.47
  -9  -4   1    6.72   11.66
   9   4  -2   20.14   10.28
  -9  -4   2   32.12   16.86
   9   4  -3    7.04    6.13
   9   4  -4   12.69    8.64
  -9  -4   4    8.56    5.03
   9   4  -5   11.01    4.96
  -9  -4   5   11.67    8.41
   9   4  -6   14.35    6.04
  -9  -4   6    7.69    4.40
   9   4  -7   43.00    9.89
  -9  -4   7    3.70    3.12
  -9  -4   8    6.33    4.95
  -9  -4   9   78.53   19.26
  -9  -4   9    5.11    4.27
  -9  -4  10    5.76    6.47
  -9  -4  10    1.14    2.00
  -9  -4  11   20.16   10.80
  -9  -4  11    3.69    3.03
  -9  -4  12   14.63    7.65
  -9  -4  12    4.89    5.40
  -9  -4  13   20.77   11.92
  -9  -4  14    2.26    3.29
  -9  -4  15    1.72    3.59
   9   5  14    6.40    4.58
   9   5  13    2.73    3.55
   9   5  12    4.36    3.50
   9   5  11   11.69    5.10
   9   5  10    2.97    4.57
   9   5   9   39.55   11.05
   9   5   8   11.37    3.85
   9   5   6   18.41    7.44
   9   5   5    6.96    5.70
   9   5   4    3.01    3.68
  -9  -5  -4    7.45   12.40
   9   5   3    6.98    5.28
  -9  -5  -3   16.08   15.78
   9   5   2    8.78    4.14
  -9  -5  -2   23.74   14.53
   9   5   1    5.70    5.30
  -9  -5  -1   -0.09   10.78
   9   5   0    6.54    5.39
  -9  -5   0    5.17    5.64
   9   5  -1   54.97   10.09
  -9  -5   1    9.22    6.64
   9   5  -2    8.61    4.43
  -9  -5   2    8.84    6.77
   9   5  -3   55.89   11.64
  -9  -5   3    6.28    6.14
   9   5  -4    8.20    5.88
  -9  -5   4   11.55    7.71
   9   5  -5   10.12    4.42
  -9  -5   5   16.15    9.28
   9   5  -6   17.32    7.01
  -9  -5   6    0.00    3.83
   9   5  -7    1.57    4.67
  -9  -5   7    2.95    3.67
   9   5  -8   40.50   13.77
  -9  -5   8    5.21    3.72
  -9  -5   9    9.05    4.36
  -9  -5  10   33.56   11.63
  -9  -5  10    5.80    4.49
  -9  -5  11    5.80    4.17
  -9  -5  11    3.73    2.80
  -9  -5  12   16.18    8.97
  -9  -5  12   -0.39    2.75
  -9  -5  13    2.97    4.33
  -9  -5  13   -0.48    2.39
  -9  -5  14   14.84    8.56
  -9  -5  15   17.65   10.99
   9   6  13    9.23    5.16
   9   6  12    0.73    3.38
   9   6  11    8.67    5.60
   9   6  10   -1.73    3.61
   9   6   9    9.22    5.23
   9   6   8    5.22    3.99
   9   6   7    9.69    5.48
   9   6   6    5.47    4.24
   9   6   5   13.55    6.49
  -9  -6  -5   12.68   13.40
   9   6   4    8.20    4.18
  -9  -6  -4    9.60    9.45
   9   6   3   54.72   11.81
  -9  -6  -3   34.63   28.02
   9   6   2    9.94    5.74
  -9  -6  -2    3.23    7.22
   9   6   1    8.26    5.49
  -9  -6  -1    3.08    5.50
   9   6   0   15.70    5.31
  -9  -6   0   12.14    6.80
   9   6  -1   10.83    6.89
  -9  -6   1    3.02    5.04
   9   6  -2   19.41    7.44
  -9  -6   2    6.58    6.35
   9   6  -3   13.01    6.55
  -9  -6   3    4.83    2.69
   9   6  -4   25.27   10.82
  -9  -6   4    5.11    3.72
   9   6  -5   11.85    6.97
  -9  -6   5   20.59    9.42
   9   6  -6    3.53    7.55
  -9  -6   6   -0.27    3.84
   9   6  -7   -0.02    4.89
  -9  -6   7    6.86    6.03
   9   6  -8    6.49    6.86
  -9  -6   8    2.50    2.31
   9   6  -9   14.87    7.14
  -9  -6   9    3.51    3.36
  -9  -6  10    3.51    2.01
  -9  -6  11    9.45    5.43
  -9  -6  11    3.12    4.95
  -9  -6  12   14.94    9.82
  -9  -6  12    9.16    4.45
  -9  -6  13    7.99    3.84
  -9  -6  13    4.02    3.33
  -9  -6  14   25.62   11.06
  -9  -6  14    5.74    2.51
   9   7  12   12.34    5.71
   9   7  11    1.38    3.73
   9   7  10    3.17    3.93
   9   7   9   12.72    7.01
   9   7   8    7.05    5.21
   9   7   7    8.19    5.60
  -9  -7  -7   24.86   18.83
   9   7   6   64.91   16.80
   9   7   5    4.33    3.76
  -9  -7  -5   18.07   15.10
   9   7   4    7.00    5.35
  -9  -7  -4    3.39    6.84
   9   7   3    4.32    4.03
  -9  -7  -3   23.47   12.78
   9   7   2    8.00    4.42
  -9  -7  -2   11.73    7.58
   9   7   1    2.60    3.68
  -9  -7  -1    5.50    7.64
   9   7   0    3.80    4.07
  -9  -7   0    4.32    4.29
   9   7  -1    8.58    5.89
  -9  -7   1   10.71    6.79
   9   7  -2   12.78    7.50
  -9  -7   2   11.23    5.93
   9   7  -3    7.49    8.45
  -9  -7   3   12.91   10.37
  -9  -7   4    3.11    3.89
   9   7  -5    7.81    5.13
  -9  -7   5    3.66    2.77
   9   7  -6   42.88   15.03
  -9  -7   6    7.10    4.46
   9   7  -7   12.02    7.73
  -9  -7   7    3.70    2.47
   9   7  -8    8.76    6.97
  -9  -7   8   10.01    6.45
   9   7  -9    3.35    4.77
  -9  -7   9   -0.11    3.71
   9   7 -10    3.03    4.88
  -9  -7  10    6.63    4.51
  -9  -7  12   11.14    6.90
  -9  -7  13    9.36    7.21
  -9  -7  13    5.42    2.87
   9   8  11    1.28    3.55
   9   8  10    3.50    3.87
   9   8   9    3.42    3.97
   9   8   8    5.03    3.88
  -9  -8  -8   23.95   17.09
   9   8   7    2.50    5.56
  -9  -8  -7   -0.56   15.62
   9   8   6    8.31    4.14
   9   8   5   10.45    6.05
   9   8   4   18.93   10.08
  -9  -8  -4   20.63   11.76
   9   8   3    6.92    4.76
  -9  -8  -3    9.93    7.37
   9   8   2    4.88    4.61
  -9  -8  -2    9.62    7.42
   9   8   1    9.85    6.35
  -9  -8  -1   12.86    9.82
   9   8   0    4.04    6.10
  -9  -8   0   18.75    9.76
   9   8  -1   15.66    8.27
  -9  -8   1   11.90    9.39
   9   8  -2   11.03    6.57
  -9  -8   2   13.92    9.23
   9   8  -3   26.75   10.37
  -9  -8   3    5.09    3.79
   9   8  -4   17.15    9.48
  -9  -8   4    2.67    5.50
   9   8  -5   48.81   14.96
  -9  -8   5    5.61    4.49
   9   8  -6    1.88    4.85
  -9  -8   6    2.42    3.99
   9   8  -7   30.39   10.81
   9   8  -8    1.58    4.81
   9   8  -9   15.47    8.72
  -9  -8   9    8.28    4.83
   9   8 -10    4.24    5.09
  -9  -8  10    7.52    6.10
   9   8 -11   14.20    7.33
  -9  -8  11   17.41   10.46
   9   8 -12    2.65    5.32
  -9  -8  12    4.50    3.76
   9   9   9    6.88    4.91
  -9  -9  -9    3.90   12.99
   9   9   8    7.44    4.63
  -9  -9  -8    7.99   12.32
   9   9   7    6.69    4.41
  -9  -9  -7   15.59   17.16
   9   9   6    8.23    6.69
  -9  -9  -6   10.03    6.29
   9   9   5   46.28   18.92
   9   9   4    8.46    6.67
  -9  -9  -4    1.41    7.76
   9   9   3    8.17    5.13
  -9  -9  -3   -2.38    5.84
   9   9   2   16.73    7.90
  -9  -9  -2    5.47    5.94
   9   9   1    1.54    4.34
  -9  -9  -1   12.65    7.60
   9   9   0    1.59    4.55
  -9  -9   0    7.66    7.06
   9   9  -1   11.38    6.39
  -9  -9   1   13.22    8.26
   9   9  -2   12.76    6.45
  -9  -9   2    4.94    7.18
   9   9  -3    7.77    6.41
  -9  -9   3   -0.40    4.19
   9   9  -4    7.10    5.02
  -9  -9   4    2.52    4.82
   9   9  -5   21.40    9.03
   9   9  -6    9.57    6.72
  -9  -9   6    9.19    4.37
   9   9  -7   19.40    8.00
  -9  -9   7   13.59    7.39
   9   9  -8    3.83    5.16
  -9  -9   8   17.42    8.73
   9   9  -9   15.06    9.64
  -9  -9   9   18.70    8.10
   9   9 -10    5.01    5.67
  -9  -9  10    2.83    3.04
   9   9 -11    8.79    6.10
  -9  -9  11   -0.26    2.89
   9  10   7   -0.07    3.82
  -9 -10  -7   11.72    8.84
   9  10   6    3.02    5.51
  -9 -10  -6    5.54    9.88
   9  10   5    4.54    4.36
  -9 -10  -5    8.30    6.93
   9  10   4    1.40    3.94
   9  10   3    5.83    4.06
  -9 -10  -3    2.34    6.68
   9  10   2    9.69    6.04
  -9 -10  -2    5.13    5.29
   9  10   1   10.48    6.07
  -9 -10  -1   12.90    7.07
   9  10   0   28.50   13.38
  -9 -10   0   13.87   19.20
   9  10  -1   24.16    7.70
  -9 -10   1    6.32    5.56
   9  10  -2   10.48    6.18
  -9 -10   2    6.68    5.72
   9  10  -3    0.86    3.86
  -9 -10   3   10.60    6.32
   9  10  -4    5.67    4.76
   9  10  -5    2.99    4.87
  -9 -10   5    4.32    4.39
   9  10  -6    7.11    5.35
  -9 -10   6    1.46    3.62
   9  10  -7   13.11    8.44
  -9 -10   7    4.80    5.26
   9  10  -8   11.94    7.84
  -9 -10   8    1.55    4.64
   9  10  -9    7.49    6.67
  -9 -10   9    2.14    2.92
   9  10 -10    3.70    6.77
  -9 -10  10    7.48    3.72
   9  11   5    4.33    4.19
  -9 -11  -5    4.18    5.42
   9  11   4   21.63    9.09
   9  11   3    5.71    4.39
  -9 -11  -3    9.92    8.14
   9  11   2    8.60    6.05
  -9 -11  -2    1.18    3.96
   9  11   1    4.62    5.61
  -9 -11  -1    1.48    3.61
   9  11   0    1.29    4.40
  -9 -11   0    2.75    4.30
   9  11  -1    4.72    4.68
  -9 -11   1    5.17    4.62
   9  11  -2    9.99    8.27
  -9 -11   2    1.60    5.23
   9  11  -3    4.25    4.52
  -9 -11   3    5.78    5.71
   9  11  -4   10.34    5.18
  -9 -11   4   10.23    6.11
   9  11  -5    6.87    7.63
  -9 -11   5    5.87    4.27
   9  11  -6   10.84    8.37
  -9 -11   6   12.93    5.28
   9  11  -7    7.64    8.49
  -9 -11   7    4.57    3.79
   9  12   0    3.89    5.23
  -9 -12   0    6.19    6.97
   9  12  -1    8.88    7.61
   9  12  -2    5.29    5.55
  10  -8   6    7.45    6.22
  10  -8   5    6.06    5.63
  10  -8   4    6.83    5.56
  10  -8   3   10.63    4.89
  10  -8   2    8.87    6.36
  10  -8   1    9.71    5.79
  10  -8   0    2.60    3.47
  10  -7   7    1.11    5.95
  10  -7   6    4.57    7.92
  10  -7   5    7.49    7.81
  10  -7   4   10.41    6.82
  10  -7   3    8.26    4.92
  10  -7   2   14.68    8.20
  10  -7   1    2.79    4.07
  10  -7   0    9.89    5.42
  10  -6   9   11.60    6.66
  10  -6   8    9.96    9.11
  10  -6   7    2.39    6.47
  10  -6   6    6.38    5.62
  10  -6   5    4.47    7.59
  10  -6   4    1.36    4.72
  10  -6   3   13.25    7.80
  10  -6   2    5.10    6.28
  10  -6   1    2.32    3.99
  10  -6   0    3.87    5.17
  10  -6  -1    9.31    5.20
 -10   6   8    4.22    3.37
  10  -5  10    1.67    6.40
  10  -5   9    5.44    6.31
  10  -5   8   15.08    9.86
  10  -5   7    9.07    6.29
  10  -5   6   -0.10    5.35
  10  -5   5    6.75    6.71
  10  -5   4    5.39    4.45
  10  -5   3    0.74    4.07
  10  -5   2    5.03    5.65
  10  -5   1    5.48    3.95
  10  -5   0   11.26    5.08
  10  -5  -1    2.53    3.13
  10  -5  -2   17.05    7.87
 -10   5   6    4.18    3.38
 -10   5   7   11.88    5.07
 -10   5   8    8.87    4.14
 -10   5   9   16.13    7.16
  10  -4  10   62.90   20.85
  10  -4   9    5.67    8.76
  10  -4   8    5.68    6.09
  10  -4   7    3.62    6.00
  10  -4   6    5.58    5.75
  10  -4   5   10.71    5.73
  10  -4   4    6.01    4.80
  10  -4   3    6.86    4.38
  10  -4   2    4.52    3.88
  10  -4   1    6.52    3.79
  10  -4   0   -2.13    3.23
  10  -4  -1   10.57    5.38
  10  -4  -2    1.25    3.35
  10  -4  -3   12.42    4.09
  10  -4  -3    9.00    5.04
  10  -4  -4    6.02    3.07
  10  -4  -5    3.02    3.42
 -10   4   7    1.39    2.95
 -10   4   8    5.16    3.38
 -10   4   9    3.24    3.37
 -10   4  10    5.12    3.94
  10  -3  11    7.25    5.81
  10  -3  10    3.87    6.09
  10  -3   9   11.81    8.55
  10  -3   8    3.28    4.95
  10  -3   7    0.81    4.62
  10  -3   6    9.72    6.95
  10  -3   5    7.32    4.99
  10  -3   4   23.64   11.23
  10  -3   3   10.41    6.03
  10  -3   2    4.28    3.72
  10  -3   1    3.08    3.18
  10  -3   0    2.94    3.07
  10  -3  -1    4.00    2.98
  10  -3  -2    5.05    3.05
  10  -3  -2    1.53    2.60
  10  -3  -3    8.16    3.69
  10  -3  -3    3.65    4.53
  10  -3  -4    5.45    4.42
  10  -3  -4    2.40    2.81
  10  -3  -5    1.45    2.70
 -10   3   7    4.20    4.24
 -10   3   8    8.95    4.27
 -10   3   9    2.05    3.09
 -10   3  10    2.75    2.61
  10  -2  11    8.30    4.96
  10  -2  10    5.61    4.95
  10  -2   9    4.28    7.71
  10  -2   8    6.20    4.94
  10  -2   7    1.17    4.01
  10  -2   6    1.67    4.06
  10  -2   5    4.79    4.38
  10  -2   4    9.56    4.39
  10  -2   3    2.32    3.56
  10  -2   2    1.72    1.70
  10  -2   2    7.02    3.87
  10  -2   1    6.25    3.28
  10  -2   1    2.06    3.20
  10  -2   0    8.77    3.46
  10  -2   0   13.18    6.22
  10  -2  -1    2.15    3.41
  10  -2  -1    7.05    5.14
  10  -2  -2    0.96    3.11
  10  -2  -2    4.48    3.51
  10  -2  -3    4.18    2.74
  10  -2  -3    5.32    4.57
  10  -2  -4    6.48    4.16
  10  -2  -4    1.65    2.24
  10  -2  -5    4.14    4.78
 -10   2   7    8.70    4.54
 -10   2   8    5.75    3.52
 -10   2   9    7.92    6.25
 -10   2  10   -0.67    3.99
 -10   2  11   10.13    4.64
  10  -1  11    0.93    4.50
  10  -1  10   10.28    6.52
  10  -1   9    5.59    5.25
  10  -1   8   10.13    7.17
  10  -1   7    0.01    3.98
  10  -1   6    5.49    4.50
  10  -1   5    3.08    2.29
  10  -1   5    5.61    4.82
  10  -1   4    2.39    2.66
  10  -1   4    9.07    4.85
  10  -1   3    5.30    3.04
  10  -1   2    5.06    2.95
  10  -1   2    2.28    3.78
  10  -1   1    1.93    2.05
  10  -1   1   11.05    6.39
  10  -1   0    2.38    3.33
  10  -1   0   18.89    7.34
  10  -1  -1    6.82    4.24
  10  -1  -1    3.96    3.24
  10  -1  -2    6.30    4.46
  10  -1  -2    9.72    4.19
  10  -1  -3    5.82    3.99
  10  -1  -3    2.82    2.32
  10  -1  -4    3.37    4.20
  10  -1  -4    7.45    3.69
  10  -1  -5    2.53    2.89
  10  -1  -5    6.31    3.21
  10  -1  -6    3.66    4.15
 -10   1   8    6.94    4.90
 -10   1   9    3.02    3.56
 -10   1  10    5.04    3.95
 -10   1  11   15.29    7.79
  10   0  11    2.42    4.96
  10   0  10   14.32    7.99
  10   0   9   21.09    7.49
  10   0   8   12.28    7.04
  10   0   7    2.43    2.45
  10   0   7    6.16    4.70
  10   0   6    9.86    3.04
  10   0   6    4.60    4.25
  10   0   5    1.83    1.91
  10   0   5    2.45    3.70
  10   0   4    3.07    2.63
  10   0   4    5.17    4.28
  10   0   3    9.80    3.10
  10   0   3   20.69    9.89
  10   0   2    9.35    3.98
  10   0   2    8.88    5.50
  10   0   1   18.79    6.70
  10   0   1    9.23    5.38
  10   0   0    9.17    3.33
  10   0   0   11.40    4.70
  10   0  -1   12.66    6.27
  10   0  -1   18.15    7.24
  10   0  -2    5.01    4.16
  10   0  -2    7.29    4.28
  10   0  -3   32.65    9.41
  10   0  -3   23.12    9.33
  10   0  -4    7.84    5.53
  10   0  -4    1.36    2.10
  10   0  -5    4.48    2.54
  10   0  -6    4.09    3.06
  10   0  -6    2.86    2.38
 -10   0   8    6.99    5.62
 -10   0   9    6.74    5.83
 -10   0  10    7.40    4.96
 -10   0  11   12.25    5.96
  10   1  11    9.88    7.84
  10   1  10    3.24    4.34
  10   1   9    1.41    2.86
  10   1   9    4.65    4.49
  10   1   8    2.08    2.41
  10   1   8   -0.04    4.56
  10   1   7    4.80    3.99
  10   1   7    4.95    4.79
  10   1   6    2.03    2.50
  10   1   6    4.62    4.30
  10   1   5    3.88    3.55
  10   1   5    4.81    5.37
  10   1   4    4.35    4.30
  10   1   4    3.33    4.26
  10   1   3    5.54    3.78
  10   1   3   13.05    6.32
  10   1   2    4.49    2.88
  10   1   2    3.95    3.88
  10   1   1    9.14    4.46
  10   1   0    8.21    4.57
  10   1  -1    5.26    3.19
  10   1  -2    9.54    4.43
  10   1  -3   13.53    6.16
  10   1  -4    5.08    5.53
  10   1  -5    8.92    6.28
  10   1  -6    3.14    3.69
  10   1  -6    4.84    3.03
  10   1  -7    7.31    4.13
  10   1  -7    0.09    2.04
 -10  -1   9    6.23    5.60
 -10  -1  10    8.37    6.36
 -10  -1  11   16.66    9.34
  10   2  11    5.26    4.10
  10   2  11    2.29    4.92
  10   2  10    3.69    3.28
  10   2  10    2.10    4.83
  10   2   9    4.48    3.58
  10   2   9    2.67    4.47
  10   2   8    7.26    3.60
  10   2   8   -0.11    4.10
  10   2   7    3.99    3.33
  10   2   6    7.59    4.62
  10   2   5    2.30    2.63
  10   2   4    7.22    4.11
  10   2   3    5.64    3.95
  10   2   2    9.60    5.14
  10   2   1    5.94    4.82
  10   2   0   13.15    5.14
  10   2  -1   12.02    5.28
  10   2  -2    4.96    3.54
  10   2  -3    4.71    3.65
  10   2  -4    3.69    4.84
  10   2  -5    4.19    4.10
  10   2  -6    8.22    5.44
  10   2  -7   10.35    6.06
  10   2  -8    5.98    5.97
 -10  -2   9    8.98    6.07
 -10  -2  10    2.71    3.78
 -10  -2  11    5.80    6.07
  10   3  10    0.87    2.56
  10   3   9    4.28    3.04
  10   3   8    8.55    4.44
  10   3   7    5.35    3.09
  10   3   6   21.06    5.17
  10   3   5    4.86    3.06
  10   3   4    7.33    5.41
  10   3   3    2.80    3.15
  10   3   2   15.94    6.15
  10   3   1    8.64    4.51
  10   3   0    8.06    4.54
  10   3  -1    2.20    3.30
  10   3  -2    6.10    3.93
  10   3  -3   10.65    5.40
  10   3  -4   23.82   10.74
  10   3  -5    6.74    4.90
  10   3  -6   15.75    9.17
  10   3  -7    0.40    3.90
  10   3  -8    7.61    5.77
 -10  -3  10    3.67    2.93
 -10  -3  11   10.93    5.11
  10   4  10    2.93    2.87
  10   4   9   -0.07    2.74
  10   4   8    1.16    2.61
  10   4   7    0.01    3.02
  10   4   6    3.11    3.51
  10   4   5    5.34    3.55
  10   4   4    9.01    5.19
  10   4   3   20.73    9.18
  10   4   2    5.16    3.60
  10   4   1    1.93    3.21
  10   4   0   12.88    4.37
  10   4  -1    4.98    3.67
  10   4  -2    1.44    4.28
  10   4  -3    7.78    4.27
  10   4  -4   17.62    8.70
  10   4  -5   22.36   10.22
  10   4  -6    1.32    4.38
 -10  -4   6   -0.34    8.22
  10   4  -7   22.82    6.74
 -10  -4   7    3.78    8.52
  10   4  -8    7.62    6.83
 -10  -4   8   -0.43    7.58
  10   4  -9    0.19    3.94
 -10  -4   9    6.89    6.15
 -10  -4  10   18.54   13.19
 -10  -4  11   -1.18    4.32
  10   5   9    5.28    4.95
  10   5   8    3.73    3.29
  10   5   7    5.22    3.53
  10   5   6    6.77    4.89
  10   5   5    4.55    3.64
  10   5   4   10.38    6.17
  10   5   3    3.29    3.61
  10   5   2    4.61    3.69
  10   5   1    6.98    3.99
  10   5   0    1.06    3.70
  10   5  -1    4.99    4.46
 -10  -5   1    8.96   11.62
  10   5  -2   -0.21    3.92
 -10  -5   2   17.10   11.91
  10   5  -3    4.30    5.67
 -10  -5   3   11.87    9.11
  10   5  -4   12.67    7.09
 -10  -5   4   10.22   12.33
  10   5  -5   12.43    6.21
 -10  -5   5   29.01   18.31
 -10  -5   6    7.59    9.27
  10   5  -7    5.86    5.13
 -10  -5   7    7.87    9.23
  10   5  -8    6.77    4.14
 -10  -5   8    8.08    8.71
  10   5  -9    3.35    4.38
 -10  -5   9    5.60    4.98
  10   5 -10   10.19    5.34
 -10  -5  10    2.75    3.38
  10   6   8   -1.26    3.11
  10   6   7    1.98    3.55
  10   6   6    3.32    3.66
  10   6   5    4.68    5.28
  10   6   4   18.86    5.37
  10   6   3    3.32    4.36
  10   6   2    9.34    6.19
 -10  -6  -2    7.10   13.37
  10   6   1    4.56    4.00
 -10  -6  -1   14.85   10.33
  10   6   0    2.54    3.40
 -10  -6   0   17.89   10.89
  10   6  -1    1.57    3.68
 -10  -6   1   11.40   12.86
  10   6  -2    3.31    5.05
 -10  -6   2   12.58   12.74
  10   6  -3   14.01    7.37
 -10  -6   3    5.18    3.62
  10   6  -4    8.10    6.26
 -10  -6   4   13.14    7.59
  10   6  -5    2.15    4.03
 -10  -6   5   10.60    7.40
  10   6  -6    5.84    4.62
 -10  -6   6    5.97    3.77
  10   6  -7    5.96    6.81
 -10  -6   7    5.28    4.36
  10   6  -8    5.26    5.01
 -10  -6   8    3.79    3.72
  10   6  -9    6.20    4.93
 -10  -6   9    2.35    4.62
  10   7   6    5.08    3.79
  10   7   5    9.52    5.47
  10   7   4    8.35    5.37
 -10  -7  -4   -1.00   12.66
  10   7   3    2.02    3.80
 -10  -7  -3   12.01   14.10
  10   7   2    7.44    4.18
 -10  -7  -2    6.24    9.60
  10   7   1    6.16    5.50
 -10  -7  -1   11.35   20.64
  10   7   0    7.09    4.82
 -10  -7   0    3.70    8.69
  10   7  -1    7.98    5.73
 -10  -7   1    7.03    5.60
  10   7  -2   21.95    7.07
 -10  -7   2    6.75    5.80
  10   7  -3    9.42    6.48
 -10  -7   3    9.56    8.24
  10   7  -4   14.99    8.15
 -10  -7   4    3.80    4.51
  10   7  -5    6.03    6.46
 -10  -7   5    5.95    5.00
  10   7  -6    7.56    4.78
 -10  -7   6    1.69    2.89
  10   7  -7   13.71    7.01
 -10  -7   7    4.89    3.67
  10   7  -8   16.74    8.35
 -10  -7   8    9.55    5.08
  10   8   4    7.14    5.11
 -10  -8  -4   38.13   18.96
  10   8   3    6.32    3.95
 -10  -8  -3   -2.52   13.63
  10   8   2    5.14    4.11
 -10  -8  -2   10.61    7.26
  10   8   1    9.77    6.21
 -10  -8  -1   11.60    7.12
  10   8   0   10.28    6.50
 -10  -8   0    7.33    4.44
  10   8  -1    2.39    5.51
 -10  -8   1    8.35    5.74
  10   8  -2   15.64    8.31
 -10  -8   2   -0.55    4.31
  10   8  -3    3.94    4.28
 -10  -8   3   12.29    8.57
  10   8  -4    5.94    4.67
 -10  -8   4    3.85    6.13
  10   8  -5    2.10    4.38
 -10  -8   5    2.88    5.03
  11  -1   2    6.99    5.45
  11  -1   1    6.46    3.80
  11  -1   0    1.52    2.80
  11  -1  -1    9.41    4.32
  11  -1  -2   11.67    4.67
  11   0   2    7.49    4.09
  11   0   1    3.88    4.98
  11   0   0    4.14    3.43
  11   0  -1    3.24    3.47
  11   0  -1    4.47    4.06
  11   0  -2    1.79    2.63
  11   0  -2    5.45    4.83
  11   1   2    0.42    2.64
  11   1   2    5.06    4.00
  11   1   1    9.74    4.12
  11   1   1   13.18    5.66
  11   1   0    4.95    3.81
  11   1   0    5.79    5.46
  11   1  -1    3.64    3.71
  11   1  -1    9.41    5.57
  11   1  -2    4.14    3.39
  11   1  -2    2.31    3.68
  11   2   0    5.17    3.81
  11   2  -1    2.18    4.02
   0   0   0    0.00    0.00
;
_shelx_hkl_checksum              15242
loop_
_space_group_symop_operation_xyz
'x, y, z'
'-x+1/2, y+1/2, -z+1/2'
'-x, -y, -z'
'x-1/2, -y-1/2, z-1/2'
loop_
_atom_site_label
_atom_site_type_symbol
_atom_site_fract_x
_atom_site_fract_y
_atom_site_fract_z
_atom_site_U_iso_or_equiv
_atom_site_adp_type
_atom_site_occupancy
_atom_site_site_symmetry_order
_atom_site_calc_flag
_atom_site_refinement_flags_posn
_atom_site_refinement_flags_adp
Mn1 Mn 0.18705(6) 0.73323(12) 0.19590(4) 0.0348(3) Uani 1 1 d . .
S1 S 0.02557(10) 1.2139(2) 0.27727(9) 0.0495(5) Uani 1 1 d . .
S2 S -0.09291(11) 1.0230(3) 0.19725(9) 0.0516(5) Uani 1 1 d . .
S3 S -0.11657(12) 1.2906(3) 0.36963(11) 0.0682(7) Uani 1 1 d . .
S4 S -0.23985(12) 1.1110(3) 0.29140(11) 0.0716(7) Uani 1 1 d . .
S5 S -0.21153(14) 1.2880(3) 0.48216(11) 0.0721(7) Uani 1 1 d . .
S6 S -0.36113(15) 1.0944(3) 0.39081(14) 0.0886(9) Uani 1 1 d . .
O1 O 0.1934(3) 1.2188(5) 0.2482(2) 0.0432(11) Uani 1 1 d . .
O2 O 0.2025(3) 0.9828(5) 0.2066(2) 0.0408(11) Uani 1 1 d . .
O3 O 0.0780(3) 0.7861(6) 0.1368(2) 0.0498(12) Uani 1 1 d . .
O4 O -0.0125(4) 0.9384(7) 0.0820(2) 0.0703(17) Uani 1 1 d . .
O5 O 0.1624(3) 0.4887(5) 0.1775(2) 0.0487(12) Uani 1 1 d . .
N1 N 0.2669(3) 0.7497(7) 0.1125(2) 0.0417(13) Uani 1 1 d . .
N2 N 0.1090(3) 0.7239(7) 0.2806(3) 0.0424(14) Uani 1 1 d . .
C1 C 0.0679(4) 1.0863(8) 0.2239(3) 0.0389(16) Uani 1 1 d . .
C2 C 0.0137(4) 1.0011(7) 0.1866(3) 0.0356(15) Uani 1 1 d . .
C3 C -0.0755(4) 1.1399(8) 0.2649(3) 0.0468(17) Uani 1 1 d . .
C4 C -0.1358(4) 1.1721(10) 0.3031(4) 0.055(2) Uani 1 1 d . .
C5 C -0.2066(4) 1.2324(10) 0.4043(4) 0.055(2) Uani 1 1 d . .
C6 C -0.2631(4) 1.1483(10) 0.3688(4) 0.056(2) Uani 1 1 d . .
C7 C -0.2948(6) 1.4286(14) 0.4780(5) 0.114(5) Uani 1 1 d . .
H7A H -0.2775 1.5210 0.4570 0.171 Uiso 1 1 calc R U
H7B H -0.3083 1.4555 0.5193 0.171 Uiso 1 1 calc R U
H7C H -0.3432 1.3846 0.4555 0.171 Uiso 1 1 calc R U
C8 C -0.3719(8) 0.9037(14) 0.3630(7) 0.138(5) Uani 1 1 d . .
H8A H -0.3778 0.9053 0.3183 0.207 Uiso 1 1 calc R U
H8B H -0.4206 0.8567 0.3785 0.207 Uiso 1 1 calc R U
H8C H -0.3232 0.8439 0.3767 0.207 Uiso 1 1 calc R U
C9 C 0.1620(4) 1.0934(8) 0.2251(3) 0.0361(15) Uani 1 1 d . .
C10 C 0.0293(4) 0.9001(9) 0.1303(3) 0.0439(17) Uani 1 1 d . .
C11 C 0.3273(4) 0.8569(9) 0.1132(3) 0.0475(18) Uani 1 1 d . .
H11 H 0.3336 0.9252 0.1468 0.057 Uiso 1 1 calc R U
C12 C 0.3810(5) 0.8719(9) 0.0666(3) 0.0507(19) Uani 1 1 d . .
H12 H 0.4214 0.9504 0.0689 0.061 Uiso 1 1 calc R U
C13 C 0.3751(5) 0.7715(9) 0.0169(3) 0.0530(19) Uani 1 1 d . .
C14 C 0.3123(5) 0.6625(10) 0.0150(4) 0.066(2) Uani 1 1 d . .
H14 H 0.3047 0.5942 -0.0186 0.080 Uiso 1 1 calc R U
C15 C 0.2596(5) 0.6542(9) 0.0637(3) 0.057(2) Uani 1 1 d . .
H15 H 0.2178 0.5785 0.0619 0.068 Uiso 1 1 calc R U
C16 C 0.0310(4) 0.6761(11) 0.2731(3) 0.060(2) Uani 1 1 d . .
H16 H 0.0148 0.6226 0.2366 0.072 Uiso 1 1 calc R U
C17 C -0.0285(5) 0.6984(11) 0.3146(4) 0.067(2) Uani 1 1 d . .
H17 H -0.0819 0.6565 0.3072 0.080 Uiso 1 1 calc R U
C18 C -0.0078(5) 0.7837(11) 0.3673(3) 0.060(2) Uani 1 1 d . .
C19 C 0.0734(5) 0.8376(11) 0.3764(4) 0.066(2) Uani 1 1 d . .
H19 H 0.0906 0.8947 0.4118 0.079 Uiso 1 1 calc R U
C20 C 0.1284(5) 0.8048(10) 0.3318(3) 0.057(2) Uani 1 1 d . .
H20 H 0.1828 0.8423 0.3384 0.069 Uiso 1 1 calc R U
C21 C 0.4351(6) 0.7902(12) -0.0341(4) 0.078(3) Uani 1 1 d . .
H21A H 0.4286 0.8955 -0.0507 0.093 Uiso 1 1 calc R U
H21B H 0.4917 0.7821 -0.0149 0.093 Uiso 1 1 calc R U
C22 C 0.4276(6) 0.6823(13) -0.0859(4) 0.087(3) Uani 1 1 d . .
H22A H 0.3718 0.6902 -0.1066 0.105 Uiso 1 1 calc R U
H22B H 0.4351 0.5760 -0.0706 0.105 Uiso 1 1 calc R U
O6 O 0.0300(5) 0.7711(8) -0.0190(3) 0.094(2) Uani 1 1 d . .
O7 O 0.0680(5) 0.4588(9) 0.0708(4) 0.111(3) Uani 1 1 d . .
loop_
_atom_site_aniso_label
_atom_site_aniso_U_11
_atom_site_aniso_U_22
_atom_site_aniso_U_33
_atom_site_aniso_U_23
_atom_site_aniso_U_13
_atom_site_aniso_U_12
Mn1 0.0321(5) 0.0402(6) 0.0334(5) 0.0003(4) 0.0118(4) 0.0009(4)
S1 0.0354(9) 0.0544(12) 0.0601(12) -0.0179(9) 0.0121(8) -0.0025(8)
S2 0.0310(9) 0.0701(13) 0.0538(11) -0.0117(10) 0.0033(8) 0.0015(9)
S3 0.0428(11) 0.0837(16) 0.0798(15) -0.0329(13) 0.0172(10) -0.0134(11)
S4 0.0387(10) 0.1073(19) 0.0704(14) -0.0321(14) 0.0147(10) -0.0116(11)
S5 0.0663(14) 0.0897(18) 0.0604(14) -0.0194(13) 0.0053(11) 0.0072(13)
S6 0.0637(14) 0.099(2) 0.109(2) -0.0385(17) 0.0426(14) -0.0290(14)
O1 0.031(2) 0.039(3) 0.060(3) -0.008(2) 0.008(2) -0.004(2)
O2 0.033(2) 0.040(3) 0.051(3) -0.001(2) 0.015(2) 0.003(2)
O3 0.045(3) 0.064(3) 0.040(3) -0.005(2) 0.000(2) 0.011(3)
O4 0.080(4) 0.086(4) 0.042(3) -0.006(3) -0.015(3) 0.023(3)
O5 0.060(3) 0.039(3) 0.047(3) 0.000(2) 0.008(2) -0.007(2)
N1 0.046(3) 0.045(3) 0.037(3) 0.001(3) 0.019(3) -0.003(3)
N2 0.041(3) 0.048(4) 0.040(3) 0.003(3) 0.015(3) 0.000(3)
C1 0.040(4) 0.041(4) 0.037(4) 0.001(3) 0.010(3) 0.001(3)
C2 0.031(3) 0.036(4) 0.039(4) 0.003(3) 0.002(3) 0.004(3)
C3 0.040(4) 0.046(4) 0.056(4) -0.008(4) 0.008(3) 0.002(3)
C4 0.039(4) 0.067(5) 0.060(5) -0.013(4) 0.008(4) -0.001(4)
C5 0.045(4) 0.064(5) 0.059(5) -0.010(4) 0.014(4) 0.004(4)
C6 0.041(4) 0.067(5) 0.062(5) -0.014(4) 0.019(4) -0.002(4)
C7 0.057(6) 0.145(11) 0.136(10) -0.082(9) -0.012(6) 0.030(7)
C8 0.133(11) 0.109(10) 0.183(14) -0.033(10) 0.077(10) -0.059(9)
C9 0.034(3) 0.036(4) 0.039(4) 0.002(3) 0.003(3) -0.003(3)
C10 0.041(4) 0.051(4) 0.039(4) 0.000(3) -0.001(3) -0.006(3)
C11 0.050(4) 0.055(5) 0.039(4) -0.001(3) 0.011(3) -0.003(4)
C12 0.057(4) 0.051(5) 0.047(4) -0.002(4) 0.025(4) -0.013(4)
C13 0.056(4) 0.059(5) 0.047(4) 0.002(4) 0.026(4) -0.007(4)
C14 0.083(6) 0.072(6) 0.048(5) -0.017(4) 0.037(4) -0.017(5)
C15 0.067(5) 0.055(5) 0.052(5) -0.006(4) 0.033(4) -0.014(4)
C16 0.042(4) 0.109(7) 0.031(4) 0.003(4) 0.012(3) -0.018(4)
C17 0.056(5) 0.082(6) 0.066(6) 0.007(5) 0.029(4) -0.012(5)
C18 0.062(5) 0.079(6) 0.042(4) 0.014(4) 0.030(4) 0.015(5)
C19 0.072(6) 0.088(7) 0.039(4) -0.001(4) 0.018(4) 0.006(5)
C20 0.048(4) 0.085(6) 0.040(4) 0.004(4) 0.013(3) -0.004(4)
C21 0.079(6) 0.092(7) 0.067(6) -0.008(5) 0.045(5) -0.017(5)
C22 0.088(7) 0.111(8) 0.070(6) -0.030(6) 0.056(5) -0.030(6)
O6 0.123(6) 0.075(5) 0.082(5) -0.025(4) -0.010(4) 0.001(4)
O7 0.110(6) 0.109(6) 0.106(6) 0.005(5) -0.030(5) -0.022(5)
loop_
_atom_type_symbol
_atom_type_description
_atom_type_scat_dispersion_real
_atom_type_scat_dispersion_imag
_atom_type_scat_source
C C 0.0033 0.0016 'International Tables Vol C Tables 4.2.6.8 and 6.1.1.4'
H H 0.0000 0.0000 'International Tables Vol C Tables 4.2.6.8 and 6.1.1.4'
N N 0.0061 0.0033 'International Tables Vol C Tables 4.2.6.8 and 6.1.1.4'
O O 0.0106 0.0060 'International Tables Vol C Tables 4.2.6.8 and 6.1.1.4'
S S 0.1246 0.1234 'International Tables Vol C Tables 4.2.6.8 and 6.1.1.4'
Mn Mn 0.3368 0.7283 'International Tables Vol C Tables 4.2.6.8 and 6.1.1.4'
loop_
_geom_angle_atom_site_label_1
_geom_angle_atom_site_label_2
_geom_angle_atom_site_label_3
_geom_angle
_geom_angle_site_symmetry_1
_geom_angle_site_symmetry_3
O3 Mn1 O5 88.0(2) . .
O3 Mn1 O2 86.38(19) . .
O5 Mn1 O2 174.19(19) . .
O3 Mn1 O1 170.08(19) . 2_545
O5 Mn1 O1 100.81(18) . 2_545
O2 Mn1 O1 84.73(17) . 2_545
O3 Mn1 N1 89.90(19) . .
O5 Mn1 N1 91.12(19) . .
O2 Mn1 N1 87.55(19) . .
O1 Mn1 N1 85.35(19) 2_545 .
O3 Mn1 N2 90.70(19) . .
O5 Mn1 N2 90.6(2) . .
O2 Mn1 N2 90.80(19) . .
O1 Mn1 N2 93.81(19) 2_545 .
N1 Mn1 N2 178.2(2) . .
C3 S1 C1 94.4(3) . .
C2 S2 C3 94.2(3) . .
C5 S3 C4 94.9(4) . .
C4 S4 C6 94.4(4) . .
C5 S5 C7 102.8(4) . .
C6 S6 C8 102.9(5) . .
C9 O1 Mn1 124.6(4) . 2
C9 O2 Mn1 137.3(4) . .
C10 O3 Mn1 135.2(5) . .
C15 N1 C11 116.8(6) . .
C15 N1 Mn1 124.3(5) . .
C11 N1 Mn1 118.8(4) . .
C16 N2 C20 115.3(6) . .
C16 N2 Mn1 119.0(5) . .
C20 N2 Mn1 122.7(5) . .
C2 C1 C9 129.1(6) . .
C2 C1 S1 117.4(5) . .
C9 C1 S1 113.5(5) . .
C1 C2 C10 129.8(6) . .
C1 C2 S2 117.1(5) . .
C10 C2 S2 112.6(5) . .
C4 C3 S1 122.4(6) . .
C4 C3 S2 123.0(6) . .
S1 C3 S2 114.7(4) . .
C3 C4 S4 124.9(6) . .
C3 C4 S3 121.8(6) . .
S4 C4 S3 113.3(4) . .
C6 C5 S3 116.8(6) . .
C6 C5 S5 127.7(6) . .
S3 C5 S5 115.6(4) . .
C5 C6 S6 124.7(6) . .
C5 C6 S4 116.9(6) . .
S6 C6 S4 118.0(5) . .
S5 C7 H7A 109.5 . .
S5 C7 H7B 109.5 . .
H7A C7 H7B 109.5 . .
S5 C7 H7C 109.5 . .
H7A C7 H7C 109.5 . .
H7B C7 H7C 109.5 . .
S6 C8 H8A 109.5 . .
S6 C8 H8B 109.5 . .
H8A C8 H8B 109.5 . .
S6 C8 H8C 109.5 . .
H8A C8 H8C 109.5 . .
H8B C8 H8C 109.5 . .
O2 C9 O1 124.9(6) . .
O2 C9 C1 121.0(6) . .
O1 C9 C1 114.1(6) . .
O4 C10 O3 126.5(7) . .
O4 C10 C2 114.1(6) . .
O3 C10 C2 119.3(6) . .
N1 C11 C12 123.3(7) . .
N1 C11 H11 118.3 . .
C12 C11 H11 118.3 . .
C13 C12 C11 120.1(7) . .
C13 C12 H12 119.9 . .
C11 C12 H12 119.9 . .
C14 C13 C12 117.1(6) . .
C14 C13 C21 123.5(7) . .
C12 C13 C21 119.3(7) . .
C13 C14 C15 119.8(7) . .
C13 C14 H14 120.1 . .
C15 C14 H14 120.1 . .
N1 C15 C14 122.8(7) . .
N1 C15 H15 118.6 . .
C14 C15 H15 118.6 . .
N2 C16 C17 125.4(8) . .
N2 C16 H16 117.3 . .
C17 C16 H16 117.3 . .
C18 C17 C16 118.7(8) . .
C18 C17 H17 120.7 . .
C16 C17 H17 120.7 . .
C17 C18 C19 117.5(7) . .
C17 C18 C22 121.1(8) . 4_576
C19 C18 C22 121.4(8) . 4_576
C18 C19 C20 118.5(8) . .
C18 C19 H19 120.7 . .
C20 C19 H19 120.7 . .
N2 C20 C19 124.5(8) . .
N2 C20 H20 117.8 . .
C19 C20 H20 117.8 . .
C22 C21 C13 118.1(7) . .
C22 C21 H21A 107.8 . .
C13 C21 H21A 107.8 . .
C22 C21 H21B 107.8 . .
C13 C21 H21B 107.8 . .
H21A C21 H21B 107.1 . .
C21 C22 C18 111.6(7) . 4_675
C21 C22 H22A 109.3 . .
C18 C22 H22A 109.3 4_675 .
C21 C22 H22B 109.3 . .
C18 C22 H22B 109.3 4_675 .
H22A C22 H22B 108.0 . .
loop_
_geom_bond_atom_site_label_1
_geom_bond_atom_site_label_2
_geom_bond_distance
_geom_bond_site_symmetry_2
Mn1 O3 2.131(5) .
Mn1 O5 2.155(5) .
Mn1 O2 2.154(5) .
Mn1 O1 2.189(4) 2_545
Mn1 N1 2.288(5) .
Mn1 N2 2.291(5) .
S1 C3 1.740(7) .
S1 C1 1.757(7) .
S2 C2 1.750(6) .
S2 C3 1.772(7) .
S3 C5 1.746(7) .
S3 C4 1.762(8) .
S4 C4 1.748(7) .
S4 C6 1.767(8) .
S5 C5 1.752(8) .
S5 C7 1.791(10) .
S6 C6 1.736(7) .
S6 C8 1.738(12) .
O1 C9 1.267(7) .
O1 Mn1 2.189(4) 2
O2 C9 1.228(7) .
O3 C10 1.248(8) .
O4 C10 1.239(8) .
N1 C15 1.329(9) .
N1 C11 1.332(8) .
N2 C16 1.314(8) .
N2 C20 1.320(9) .
C1 C2 1.351(9) .
C1 C9 1.506(9) .
C2 C10 1.526(9) .
C3 C4 1.344(9) .
C5 C6 1.347(10) .
C7 H7A 0.9600 .
C7 H7B 0.9600 .
C7 H7C 0.9600 .
C8 H8A 0.9600 .
C8 H8B 0.9600 .
C8 H8C 0.9600 .
C11 C12 1.376(9) .
C11 H11 0.9300 .
C12 C13 1.369(10) .
C12 H12 0.9300 .
C13 C14 1.368(10) .
C13 C21 1.523(9) .
C14 C15 1.397(9) .
C14 H14 0.9300 .
C15 H15 0.9300 .
C16 C17 1.368(10) .
C16 H16 0.9300 .
C17 C18 1.367(11) .
C17 H17 0.9300 .
C18 C19 1.380(11) .
C18 C22 1.526(9) 4_576
C19 C20 1.380(10) .
C19 H19 0.9300 .
C20 H20 0.9300 .
C21 C22 1.445(11) .
C21 H21A 0.9700 .
C21 H21B 0.9700 .
C22 C18 1.526(9) 4_675
C22 H22A 0.9700 .
C22 H22B 0.9700 .
loop_
_geom_torsion_atom_site_label_1
_geom_torsion_atom_site_label_2
_geom_torsion_atom_site_label_3
_geom_torsion_atom_site_label_4
_geom_torsion
_geom_torsion_site_symmetry_1
_geom_torsion_site_symmetry_4
C3 S1 C1 C2 10.2(6) . .
C3 S1 C1 C9 -171.9(5) . .
C9 C1 C2 C10 -7.4(12) . .
S1 C1 C2 C10 170.1(6) . .
C9 C1 C2 S2 -179.3(5) . .
S1 C1 C2 S2 -1.8(7) . .
C3 S2 C2 C1 -7.5(6) . .
C3 S2 C2 C10 179.2(5) . .
C1 S1 C3 C4 166.3(7) . .
C1 S1 C3 S2 -15.1(5) . .
C2 S2 C3 C4 -167.0(7) . .
C2 S2 C3 S1 14.4(5) . .
S1 C3 C4 S4 176.3(5) . .
S2 C3 C4 S4 -2.1(11) . .
S1 C3 C4 S3 -0.8(11) . .
S2 C3 C4 S3 -179.3(4) . .
C6 S4 C4 C3 163.6(8) . .
C6 S4 C4 S3 -19.0(5) . .
C5 S3 C4 C3 -163.9(7) . .
C5 S3 C4 S4 18.7(5) . .
C4 S3 C5 C6 -10.6(7) . .
C4 S3 C5 S5 168.3(5) . .
C7 S5 C5 C6 -69.3(9) . .
C7 S5 C5 S3 112.0(6) . .
S3 C5 C6 S6 -173.5(5) . .
S5 C5 C6 S6 7.8(12) . .
S3 C5 C6 S4 -1.2(10) . .
S5 C5 C6 S4 -179.9(5) . .
C8 S6 C6 C5 -139.9(9) . .
C8 S6 C6 S4 47.9(8) . .
C4 S4 C6 C5 12.3(8) . .
C4 S4 C6 S6 -174.8(5) . .
Mn1 O2 C9 O1 152.8(5) . .
Mn1 O2 C9 C1 -25.0(10) . .
Mn1 O1 C9 O2 -33.3(9) 2 .
Mn1 O1 C9 C1 144.7(4) 2 .
C2 C1 C9 O2 -25.6(11) . .
S1 C1 C9 O2 156.8(5) . .
C2 C1 C9 O1 156.3(7) . .
S1 C1 C9 O1 -21.2(7) . .
Mn1 O3 C10 O4 152.7(6) . .
Mn1 O3 C10 C2 -30.9(10) . .
C1 C2 C10 O4 -122.7(8) . .
S2 C2 C10 O4 49.5(8) . .
C1 C2 C10 O3 60.5(10) . .
S2 C2 C10 O3 -127.4(6) . .
C15 N1 C11 C12 0.0(11) . .
Mn1 N1 C11 C12 177.1(6) . .
N1 C11 C12 C13 -1.5(12) . .
C11 C12 C13 C14 2.5(12) . .
C11 C12 C13 C21 -180.0(8) . .
C12 C13 C14 C15 -2.2(13) . .
C21 C13 C14 C15 -179.6(9) . .
C11 N1 C15 C14 0.3(12) . .
Mn1 N1 C15 C14 -176.6(6) . .
C13 C14 C15 N1 0.8(14) . .
C20 N2 C16 C17 -2.7(13) . .
Mn1 N2 C16 C17 -163.7(7) . .
N2 C16 C17 C18 3.3(14) . .
C16 C17 C18 C19 -2.3(13) . .
C16 C17 C18 C22 177.7(8) . 4_576
C17 C18 C19 C20 1.0(13) . .
C22 C18 C19 C20 -179.0(8) 4_576 .
C16 N2 C20 C19 1.2(12) . .
Mn1 N2 C20 C19 161.3(7) . .
C18 C19 C20 N2 -0.4(13) . .
C14 C13 C21 C22 -2.8(14) . .
C12 C13 C21 C22 179.8(9) . .
C13 C21 C22 C18 -179.9(8) . 4_675
