#------------------------------------------------------------------------------
#$Date: 2019-11-23 07:54:47 +0200 (Sat, 23 Nov 2019) $
#$Revision: 232487 $
#$URL: file:///home/coder/svn-repositories/cod/cif/4/34/77/4347757.cif $
#------------------------------------------------------------------------------
#
# This file is available in the Crystallography Open Database (COD),
# http://www.crystallography.net/
#
# All data on this site have been placed in the public domain by the
# contributors.
#
data_4347757
loop_
_publ_author_name
'Huo, Peng'
'Chen, Ting'
'Hou, Jin-Le'
'Yu, Lei'
'Zhu, Qin-Yu'
'Dai, Jie'
_publ_section_title
;
 Ligand-to-Ligand Charge Transfer within Metal-Organic Frameworks Based on
 Manganese Coordination Polymers with Tetrathiafulvalene-Bicarboxylate and
 Bipyridine Ligands.
;
_journal_issue                   13
_journal_name_full               'Inorganic chemistry'
_journal_page_first              6496
_journal_page_last               6503
_journal_paper_doi               10.1021/acs.inorgchem.6b00571
_journal_volume                  55
_journal_year                    2016
_chemical_formula_sum            'C19 H22 Mn N2 O7 S6'
_chemical_formula_weight         637.68
_space_group_crystal_system      monoclinic
_space_group_IT_number           12
_space_group_name_Hall           '-C 2y'
_space_group_name_H-M_alt        'C 1 2/m 1'
_atom_sites_solution_hydrogens   geom
_audit_creation_method           SHELXL-2014/7
_cell_angle_alpha                90
_cell_angle_beta                 101.59(3)
_cell_angle_gamma                90
_cell_formula_units_Z            4
_cell_length_a                   22.594(5)
_cell_length_b                   9.2189(18)
_cell_length_c                   12.461(3)
_cell_measurement_reflns_used    4613
_cell_measurement_temperature    293(2)
_cell_measurement_theta_max      27.5
_cell_measurement_theta_min      3.0
_cell_volume                     2542.6(10)
_computing_structure_refinement  'SHELXL-2014/7 (Sheldrick, 2014)'
_diffrn_ambient_temperature      293(2)
_diffrn_measured_fraction_theta_full 0.969
_diffrn_measured_fraction_theta_max 0.969
_diffrn_measurement_device_type  'Rigaku Saturn'
_diffrn_radiation_type           MoK\a
_diffrn_radiation_wavelength     0.71073
_diffrn_reflns_av_R_equivalents  0.0288
_diffrn_reflns_av_unetI/netI     0.0381
_diffrn_reflns_Laue_measured_fraction_full 0.969
_diffrn_reflns_Laue_measured_fraction_max 0.969
_diffrn_reflns_limit_h_max       21
_diffrn_reflns_limit_h_min       -26
_diffrn_reflns_limit_k_max       10
_diffrn_reflns_limit_k_min       -9
_diffrn_reflns_limit_l_max       12
_diffrn_reflns_limit_l_min       -14
_diffrn_reflns_number            5820
_diffrn_reflns_point_group_measured_fraction_full 0.969
_diffrn_reflns_point_group_measured_fraction_max 0.969
_diffrn_reflns_theta_full        24.981
_diffrn_reflns_theta_max         24.981
_diffrn_reflns_theta_min         3.022
_exptl_absorpt_coefficient_mu    1.056
_exptl_absorpt_correction_T_max  1.0000
_exptl_absorpt_correction_T_min  0.7465
_exptl_absorpt_correction_type   multi-scan
_exptl_absorpt_process_details   'Jacobson, R. (1998) Private communication'
_exptl_crystal_colour            black
_exptl_crystal_density_diffrn    1.663
_exptl_crystal_description       Block
_exptl_crystal_F_000             1304
_exptl_crystal_size_max          0.300
_exptl_crystal_size_mid          0.200
_exptl_crystal_size_min          0.100
_refine_diff_density_max         1.577
_refine_diff_density_min         -0.705
_refine_diff_density_rms         0.114
_refine_ls_extinction_method     none
_refine_ls_goodness_of_fit_ref   0.982
_refine_ls_hydrogen_treatment    constr
_refine_ls_matrix_type           full
_refine_ls_number_parameters     170
_refine_ls_number_reflns         2320
_refine_ls_number_restraints     5
_refine_ls_restrained_S_all      1.033
_refine_ls_R_factor_all          0.0971
_refine_ls_R_factor_gt           0.0802
_refine_ls_shift/su_max          0.081
_refine_ls_shift/su_mean         0.005
_refine_ls_structure_factor_coef Fsqd
_refine_ls_weighting_details
'w=1/[\s^2^(Fo^2^)+(0.0010P)^2^+55.0000P] where P=(Fo^2^+2Fc^2^)/3'
_refine_ls_weighting_scheme      calc
_refine_ls_wR_factor_gt          0.1577
_refine_ls_wR_factor_ref         0.1658
_reflns_Friedel_coverage         0.000
_reflns_number_gt                1861
_reflns_number_total             2320
_reflns_threshold_expression     'I > 2\s(I)'
_cod_data_source_file            ic6b00571_si_002.cif
_cod_data_source_block           2
_cod_original_cell_volume        2542.6(9)
_cod_original_sg_symbol_H-M      'C 2/m'
_cod_database_code               4347757
_shelx_shelxl_version_number     2014/7
_shelx_space_group_comment
;
The symmetry employed for this shelxl refinement is uniquely defined
by the following loop, which should always be used as a source of
symmetry information in preference to the above space-group names.
They are only intended as comments.
;
_shelx_estimated_absorpt_t_min   0.742
_shelx_estimated_absorpt_t_max   0.902
_shelx_res_file
;

    l.res created by SHELXL-2014/7

TITL t in C2/m
CELL 0.71073  22.5944   9.2189  12.4607  90.000 101.587  90.000
ZERR   4   0.0045   0.0018   0.0025   0.000   0.030   0.000
LATT 7
SYMM -X, Y, -Z
SFAC C  H  N  O  S  Mn
UNIT 76 84 8 28 24 4
L.S. 10
free c13 c14
free c13 c13
free c14 c14
dfix 1.40 0.02 o3 c13
dfix 1.40 0.02 o3' c13
dfix 1.49 0.02 n2 c13
dfix 1.49 0.02 n2 c14
dfix 2.42 0.02 c13 c14
dfix 1.49 0.02 n2' c13
dfix 1.49 0.02 n2' c14'
omit -3 50
omit 3 1 0
omit 2 2 0
omit 0 4 3
omit -6 0 4
omit 5 1 2
omit -2 2 2
omit 1 3 2
omit -1 1 2
omit 1 3 1
omit 13 1 0
omit -4 0 1
omit -2 0 3
omit -6 0 6
omit 10 0 2
omit 3 1 6
omit -3 5 3
omit 7 1 1
omit 4 0 2
omit 0 2 2
omit 2 0 4
omit 8 0 2
omit -6 2 6
omit -3 1 2
omit -3 1 3
omit 0 2 1
omit 3 1 7
omit 4 4 0
omit -2 4 11
omit 11 1 0
omit 8 2 2
omit -2 2 3
omit -4 4 9
omit -4 4 1
omit 4 2 0
omit -1 3 1
omit 8 0 3
omit -6 0 3
omit -4 0 2
omit 9 1 10
omit -3 1 7
omit 0 2 4
omit -6 2 3
omit -13 1 7
omit -9 3 1
omit -10 2 7
omit 0 0 6
omit -9 1 7
omit 8 0 1
omit -9 3 5

ACTA
BOND
FMAP 2
PLAN 10
SIZE 0.1000 0.2000 0.3000
WGHT    0.001000   55.000000
FVAR       0.09868
MN1   6    0.288004    0.500000    0.508168    10.50000    0.02127    0.02805 =
         0.05499    0.00000   -0.00014    0.00000
S1    5    0.438555    0.840475    0.568860    11.00000    0.02384    0.02797 =
         0.06353    0.00211   -0.00615    0.00197
S2    5    0.565220    1.160094    0.746007    11.00000    0.04602    0.05723 =
         0.07006   -0.00714   -0.01862   -0.01066
S3    5    0.678259    1.180337    0.918481    11.00000    0.09054    0.14876 =
         0.06479   -0.00384   -0.03740   -0.04753
O1    4    0.341774    0.685257    0.469292    11.00000    0.02811    0.02763 =
         0.06927   -0.00193    0.00878    0.00028
O2    4    0.229777    0.647460    0.575669    11.00000    0.02706    0.03215 =
         0.05544   -0.00584   -0.00479    0.00050
O4    4   -0.065605    0.000000   -0.625775    10.50000    0.15778    0.07142 =
         0.21687    0.00000    0.11640    0.00000
N1    3    0.351138    0.500000    0.675758    10.50000    0.03045    0.03739 =
         0.05821    0.00000   -0.01385    0.00000
C1    1    0.371481    0.926706    0.505319    11.00000    0.02081    0.03248 =
         0.03310   -0.00016    0.00099    0.00085
C2    1    0.476315    1.000000    0.619635    10.50000    0.02829    0.03706 =
         0.04637    0.00000    0.00240    0.00000
C3    1    0.528640    1.000000    0.692702    10.50000    0.02344    0.04747 =
         0.05891    0.00000   -0.00757    0.00000
C4    1    0.625007    1.071904    0.832641    11.00000    0.04107    0.09076 =
         0.04561   -0.00181   -0.00962   -0.00675
C5    1    0.698781    1.301935    0.830742    11.00000    0.16411    0.15022 =
         0.12617    0.01634   -0.07892   -0.08187
AFIX 137
H5A   2    0.708748    1.251603    0.769292    11.00000   -1.50000
H5B   2    0.733318    1.355640    0.867676    11.00000   -1.50000
H5C   2    0.665905    1.367463    0.805544    11.00000   -1.50000
AFIX   0
C6    1    0.323398    0.816634    0.462117    11.00000    0.02542    0.03009 =
         0.03351   -0.00424    0.00424   -0.00455
C7    1    0.331326    0.500000    0.770841    10.50000    0.03800    0.05123 =
         0.06079    0.00000   -0.00020    0.00000
AFIX  43
H7    2    0.289839    0.500000    0.767547    10.50000   -1.20000
AFIX   0
C8    1    0.368426    0.500000    0.871166    10.50000    0.04001    0.06800 =
         0.05601    0.00000   -0.00512    0.00000
AFIX  43
H8    2    0.351719    0.500000    0.933561    10.50000   -1.20000
AFIX   0
C9    1    0.431524    0.500000    0.882492    10.50000    0.03791    0.04033 =
         0.06362    0.00000   -0.01223    0.00000
C10   1    0.451599    0.500000    0.782921    10.50000    0.02742    0.04569 =
         0.06891    0.00000   -0.01504    0.00000
AFIX  43
H10   2    0.492893    0.500000    0.784173    10.50000   -1.20000
AFIX   0
C11   1    0.412087    0.500000    0.684117    10.50000    0.04105    0.03923 =
         0.05852    0.00000   -0.00318    0.00000
AFIX  43
H11   2    0.427477    0.500000    0.620274    10.50000   -1.20000
AFIX   0
C12   1    0.469943    0.500000    0.991209    10.50000    0.04703    0.05410 =
         0.07328    0.00000   -0.02231    0.00000
O3    4    0.242617    0.558068    0.359008    10.25000    0.04952
O3'   4    0.223566    0.500000    0.335115    10.25000    0.04639
C13   1    0.192416    0.613372    0.286240    10.50000    0.06486
N2    3    0.141258    0.500000    0.207832    10.50000    0.10796
C14   1    0.108612    0.624632    0.159277    11.00000    0.18976
O5    4    0.041318    0.500000    0.059723    10.50000    0.20493

HKLF 4

REM  t in C2/m
REM R1 =  0.0802 for    1861 Fo > 4sig(Fo)  and  0.0971 for all    2320 data
REM    170 parameters refined using      5 restraints

END

WGHT      0.1159     17.3928

REM Highest difference peak  1.577,  deepest hole -0.705,  1-sigma level  0.114
Q1    1   0.1378  0.6300  0.2072  11.00000  0.05    1.58
Q2    1   0.0597  0.3826  0.0896  11.00000  0.05    1.41
Q3    1   0.1105  0.5000  0.1577  10.50000  0.05    1.24
Q4    1   0.0221  0.4489  0.0355  11.00000  0.05    0.85
Q5    1   0.6953  1.1256  0.8780  11.00000  0.05    0.56
Q6    1  -0.0755  0.0000 -0.6564  10.50000  0.05    0.43
Q7    1   0.6671  1.1829  0.9459  11.00000  0.05    0.42
Q8    1   0.4477  0.5000  1.0459  10.50000  0.05    0.42
Q9    1   0.2064  0.5000  0.3183  10.50000  0.05    0.36
Q10   1   0.7174  1.5000  0.8255  10.50000  0.05    0.35
;
_shelx_res_checksum              92147
_shelx_hkl_file
;
   0   0  -2  136.81    0.83
   0   0   2  137.26    0.84
   0   0  -3  548.66    2.63
   0   0   3  559.41    2.41
   0   0  -4   96.16    1.00
   0   0   4   97.74    0.96
   0   0  -5   85.84    1.14
   0   0   5   85.20    1.10
   0   0  -6   19.30    0.82
   0   0   6   18.53    0.67
   0   0  -7   11.58    0.82
   0   0   7   10.24    0.52
   0   0  -8    0.90    0.45
   0   0   8    0.75    0.26
   0   0  -9    0.65    0.44
   0   0   9    0.35    0.36
   0   0 -10    0.84    0.70
   0   0 -11   -0.06    0.49
   0   0 -12   28.60    1.70
   0   0 -13    0.85    0.78
   0   0 -14    1.68    0.60
   0   0 -15    1.06    0.75
   0   2   0  226.98    1.19
   0  -2   0  228.90    1.22
   0   2  -1   14.98    0.53
   0  -2   1   16.90    0.70
   0   2  -2    8.70    0.62
   0  -2   2    6.85    0.45
   0   2   2    8.70    1.05
   0  -2  -2    6.62    0.44
   0  -2  -3    7.11    0.23
   0  -2  -3    6.70    0.17
   0   2  -3    6.91    0.53
   0  -2   3    7.19    0.47
   0  -2  -3    7.76    0.72
   0   2  -4    2.66    0.50
   0  -2   4    2.61    0.35
   0   2   4    2.51    0.16
   0  -2  -4    2.59    0.78
   0  -2  -5   13.18    0.43
   0   2  -5   13.97    0.80
   0  -2   5   13.87    0.62
   0   2   5   12.97    0.37
   0  -2  -5   13.62    1.41
   0  -2  -6  248.68    4.10
   0   2  -6  250.92    4.48
   0  -2   6  252.29    4.40
   0   2   6  253.24    4.16
   0  -2  -7   43.18    0.83
   0   2  -7   39.91    1.12
   0  -2   7   40.20    0.98
   0   2   7   43.29    0.74
   0  -2  -8   41.65    1.14
   0   2  -8   37.37    1.29
   0  -2  -9    5.24    1.24
   0  -2  -9    7.51    0.59
   0   2  -9    7.59    1.08
   0  -2 -10   16.87    0.87
   0  -2 -10   17.58    0.88
   0  -2 -11   24.44    1.21
   0  -2 -11   29.57    1.52
   0   2 -11   25.98    1.73
   0  -2 -12    0.16    0.36
   0  -2 -13    1.75    0.60
   0   2 -13    1.47    0.81
   0  -2 -14    0.57    0.37
   0   2 -14    0.18    0.68
   0  -2 -15    1.88    0.63
   0   2 -15    0.06    0.56
   0   4   0   11.01    0.49
   0  -4   0   11.34    0.44
   0   4   1    0.42    0.13
   0   4   1    0.37    0.24
   0   4  -1    0.25    0.39
   0  -4   1    0.24    0.43
   0   4   2    2.97    0.20
   0   4   2    2.81    0.23
   0   4  -2    3.01    0.45
   0  -4   2    3.43    0.44
   0   4   2    2.50    0.44
   0   4   3    1.72    0.10
   0   4  -3    1.93    0.54
   0  -4   3    1.32    0.32
   0   4   3    1.83    0.85
   0   4  -4    1.53    0.48
   0  -4   4    1.50    0.42
   0   4   4    1.09    0.59
   0   4  -5   47.28    1.52
   0  -4   5   45.46    1.22
   0  -4  -5   45.42    1.24
   0   4  -6  166.35    2.30
   0  -4  -6  159.58    1.95
   0   4  -7   59.26    2.16
   0  -4  -7   54.07    1.81
   0  -4  -8   18.75    0.54
   0   4  -8   19.09    1.30
   0  -4  -9    1.26    0.19
   0  -4  -9    1.51    0.25
   0   4  -9    2.25    1.10
   0  -4 -10   13.14    0.63
   0  -4 -10   12.37    0.65
   0   4 -10   11.78    1.15
   0  -4 -11    5.27    0.34
   0  -4 -11    5.73    0.38
   0   4 -11    3.44    0.80
   0  -4 -12    0.25    0.16
   0   4 -12    0.91    0.66
   0   4 -13    1.29    0.88
   0   4 -14    0.45    0.60
   0   6   0  749.63    5.76
   0   6   0  755.73   10.40
   0   6   1  135.35    1.57
   0   6   1  130.94    1.46
   0   6   2   24.60    0.64
   0   6   2   24.26    0.70
   0   6  -2   24.02    1.18
   0  -6   2   23.99    0.87
   0   6   2   22.33    1.07
   0   6   3   17.17    0.46
   0   6   3   16.59    0.51
   0   6  -3   17.29    1.08
   0  -6   3   15.26    0.85
   0   6   3   17.63    1.02
   0   6  -4   32.68    1.50
   0   6   4   33.05    3.58
   0   6  -5    4.03    0.85
   0   6   5    5.55    1.48
   0   6  -6   17.22    1.29
   0   6  -7    0.71    0.75
   0   6  -8   -0.83    0.67
   0   6  -9    5.06    1.07
   0   6 -10    1.39    0.77
   0   6 -11    1.04    0.68
   0   6 -12    1.36    0.70
   0   6 -13    1.11    0.71
   0   8   0    9.11    1.50
   0   8   0   12.71    0.96
   0   8   1    1.08    0.40
   0   8   1    1.60    0.60
   0   8  -1    0.29    0.46
   0   8   2    2.73    0.35
   0   8   2    2.31    0.38
   0   8  -2    3.54    0.63
   0   8   2    1.33    0.64
   0   8   3    0.23    0.19
   0   8   3    0.07    0.19
   0   8  -3    1.44    0.69
   0   8   3    0.23    0.58
   0   8  -4    0.09    0.54
   0   8   4    0.91    0.54
   0   8  -5    1.20    0.45
   0   8   5   -0.01    0.63
   0   8  -6    3.86    0.83
   0   8   6    4.29    1.29
   0   8  -7    0.71    0.66
   0   8  -9    0.74    0.68
   0   8 -10    7.22    1.34
   0   8 -11    3.86    1.10
   0  10   0    1.02    0.39
   0  10   1    0.46    0.32
   0  10  -1    0.40    0.38
   0  10   1    0.92    0.75
   0  10   2    1.27    0.32
   0  10  -2    1.49    0.65
   0  10   2    0.78    0.71
   0  10   3    1.93    0.92
   0  10  -4    3.10    0.91
   0  10   4    3.83    1.07
   0  10  -5   14.78    1.28
   0  10   5   10.37    3.67
   0  10  -6   22.47    2.55
   0  10   6   16.16    4.77
   0  10  -7    9.32    1.52
   0  10  -8    2.50    0.69
   1  -1 -15    1.03    0.44
   1   1 -15    0.87    0.50
   1  -1 -14    0.64    0.56
   1   1 -14    0.41    0.54
   1  -1 -13    2.38    0.77
   1   1 -13    2.97    0.68
   1  -1 -12    7.26    0.89
   1   1 -12    8.12    1.11
   1  -1 -11    1.53    0.68
   1   1 -11    3.15    0.83
   1  -1 -10    0.22    0.12
   1  -1 -10    1.71    0.64
   1   1 -10    0.80    0.64
   1  -1  -9    4.16    1.19
   1  -1  -9    6.89    0.78
   1   1  -9    7.13    1.09
   1  -1  -8    2.21    0.60
   1  -1  -8    2.73    0.54
   1   1  -8    1.99    0.58
  -1  -1   8    1.67    0.35
   1  -1  -7    9.07    0.67
   1   1  -7    9.68    0.81
  -1  -1   7    9.06    0.55
  -1   1   7    9.70    0.50
   1  -1  -6    9.42    0.56
   1   1  -6    9.19    0.63
  -1  -1   6    9.33    0.54
  -1   1   6    8.45    0.41
   1  -1  -5    9.08    0.47
   1   1  -5    8.56    0.53
  -1  -1   5    9.58    0.51
  -1   1   5    9.36    0.39
   1  -1  -4    0.07    0.24
   1   1  -4    0.17    0.34
  -1  -1   4    0.40    0.35
   1  -1  -3   34.42    0.65
   1  -1  -3   34.69    0.48
   1   1  -3   36.05    0.84
  -1  -1   3   34.67    0.67
   1  -1  -2   24.20    0.27
   1   1  -2   22.51    0.61
  -1  -1   2   24.01    0.54
   1  -1  -2   23.62    0.53
   1   1   1    8.20    0.16
  -1   1  -1    8.75    0.32
   1  -1   1    8.34    0.34
   1   1   1    8.53    0.23
  -1  -1  -1    8.19    0.23
  -1  -1  -2   10.42    0.34
   1   1   2    9.35    0.25
  -1   1  -2    9.38    0.52
   1  -1   2    9.98    0.43
  -1  -1  -3    1.42    0.39
  -1   1  -3    1.03    0.46
   1   1   3    1.45    0.24
   1  -1   3    0.77    0.22
  -1  -1  -4    6.26    0.37
  -1   1  -4    6.10    0.49
   1   1   4    6.49    0.32
   1  -1   4    6.76    0.43
  -1  -1  -5   35.39    0.75
  -1   1  -5   34.89    0.91
   1   1   5   34.87    0.64
   1  -1   5   32.32    0.76
  -1  -1  -6   92.71    1.83
  -1   1  -6   95.90    2.05
   1  -1   6   95.19    1.98
   1   1   6   95.40    1.81
  -1  -1  -7    0.24    0.31
  -1   1  -7    0.54    0.51
   1  -1   7    0.90    0.55
   1   1   7    0.71    0.26
  -1  -1  -8   19.77    0.89
  -1   1  -8   17.38    1.10
   1   1   8   17.20    0.66
   1  -1   8   17.74    0.76
  -1  -1  -9    3.15    0.63
  -1   1  -9    5.37    1.07
   1   1   9    3.15    0.40
  -1  -1 -10    6.66    0.89
  -1   1 -10    4.15    0.81
   1   1  10    5.25    0.54
  -1  -1 -11    0.86    0.78
  -1   1 -11    1.72    0.80
  -1  -1 -12    0.31    0.47
  -1   1 -12    0.53    0.53
  -1  -1 -13    2.25    0.71
  -1   1 -13    0.96    0.79
  -1  -1 -14    0.41    0.41
  -1   1 -14    0.50    0.54
  -1  -1 -15    0.88    0.63
  -1   1 -15    1.17    0.79
   1   3 -15    0.35    0.58
   1  -3 -14    0.67    0.40
   1   3 -14    0.84    0.59
   1  -3 -13    1.88    0.59
   1   3 -13    2.27    0.86
   1  -3 -12    2.54    0.39
   1   3 -12    3.76    1.07
   1  -3 -11    8.20    0.58
   1  -3 -11    8.59    0.73
   1   3 -11    9.42    1.07
   1  -3 -10    0.12    0.26
   1   3 -10    1.16    1.00
   1  -3  -9   28.20    0.97
   1  -3  -9   28.41    1.06
   1   3  -9   25.32    1.39
   1  -3  -8    0.20    0.16
   1  -3  -8    0.01    0.20
   1   3  -8    0.78    0.60
   1  -3  -7   68.34    0.72
   1   3  -7   66.36    1.52
   1  -3  -7   64.86    1.34
   1  -3  -6  165.32    2.49
   1  -3  -6  164.25    2.50
   1   3  -6  168.47    3.14
  -1  -3   6  165.43    2.91
   1  -3  -6  162.51    3.04
   1   3  -5    6.55    0.62
  -1  -3   5    8.41    0.68
   1  -3  -5    7.01    1.85
   1   3  -4    3.93    0.68
  -1  -3   4    3.51    0.43
   1  -3  -4    3.50    0.42
   1   3  -3   28.93    0.83
  -1  -3   3   29.01    0.74
  -1   3   3   30.18    1.79
   1  -3  -3   30.68    0.81
   1   3  -2    1.91    0.36
   1  -3  -2    1.85    0.15
  -1  -3   2    2.19    0.36
  -1   3   2    1.67    0.42
  -1   3   1    7.22    0.34
   1   3  -1    7.29    0.42
   1  -3  -1    7.89    0.31
  -1  -3   1    8.26    0.51
   1   3   0  751.47    3.36
  -1   3   0  754.06    3.25
   1   3   1   19.46    0.38
  -1   3  -1   19.00    0.70
   1  -3   1   19.47    0.55
   1   3   1   19.05    0.43
   1   3   2    1.11    0.15
  -1   3  -2    1.64    0.37
   1  -3   2    1.23    0.31
   1   3   2    1.12    0.15
   1   3   2    1.14    0.51
  -1   3  -3    5.01    0.57
   1  -3   3    6.30    0.53
   1   3   3    5.38    1.12
  -1   3  -4  103.32    1.56
   1  -3   4  108.14    1.52
  -1  -3  -4  105.35    1.40
  -1  -3  -5   12.84    0.35
  -1   3  -5   14.41    0.84
   1  -3   5   14.54    0.86
   1   3   5   13.81    0.34
  -1  -3  -5   12.86    1.30
  -1   3  -6   37.29    1.50
   1  -3   6   35.44    1.09
   1   3   6   34.83    0.68
  -1  -3  -6   33.11    1.02
  -1   3  -7    3.55    0.69
  -1  -3  -7    2.78    0.85
  -1  -3  -8    0.16    0.10
  -1  -3  -8    0.19    0.24
  -1   3  -8    0.36    0.70
  -1  -3  -8    0.37    0.30
  -1  -3  -9    1.15    0.27
  -1  -3  -9    1.09    0.47
  -1   3  -9    0.74    0.71
  -1  -3 -10    6.02    1.72
  -1  -3 -10   11.21    0.76
  -1   3 -10   10.15    1.11
  -1  -3 -11    2.79    0.95
  -1  -3 -11    5.82    0.63
  -1  -3 -12   11.43    0.68
  -1   3 -12   13.16    1.24
  -1  -3 -13    0.69    0.43
  -1   3 -13    0.93    0.86
  -1  -3 -14    0.90    0.37
  -1   3 -14    1.30    1.03
  -1   3 -15    0.48    0.64
   1   5 -13    1.07    0.98
   1   5 -12    1.73    0.74
   1   5 -11    0.86    0.74
   1   5 -10    0.82    0.68
   1   5  -9    0.00    0.64
   1   5  -8    0.31    0.74
   1   5  -7    3.30    0.86
   1   5  -6   11.95    1.22
   1   5  -5    1.36    0.91
  -1   5   5    1.13    0.44
   1   5  -4   21.92    1.19
  -1  -5   4   19.90    0.73
  -1   5   4   23.68    2.24
  -1   5   3    8.94    0.27
  -1   5   3    9.11    0.33
   1   5  -3    9.44    0.85
  -1  -5   3    9.79    0.58
  -1   5   3   11.78    1.64
  -1   5   2   10.55    1.31
  -1   5   2    9.62    0.43
   1   5  -2    8.82    0.67
  -1  -5   2    9.85    0.53
  -1   5   2   11.96    0.80
   1   5  -1    6.49    1.10
  -1   5   1    7.72    0.47
   1   5  -1    7.18    0.60
   1  -5  -1    7.41    0.38
   1   5   0   18.83    0.81
  -1   5   0   16.79    0.70
   1   5   0   18.54    0.72
   1  -5   0   17.76    0.62
   1   5   1    9.27    0.85
  -1   5  -1   10.13    0.77
   1   5   1    9.56    0.46
   1  -5   1    9.59    0.57
   1   5   2    0.07    0.15
  -1   5  -2    0.25    0.48
   1   5   2    0.35    0.23
   1  -5   2    0.06    0.32
   1   5   2    0.14    0.47
   1   5   3   15.22    0.37
   1   5   3   14.27    0.39
  -1   5  -3   13.78    0.85
   1  -5   3   14.92    0.70
   1   5   3   14.54    1.83
  -1   5  -4    4.47    0.68
   1  -5   4    4.45    0.56
   1   5   4    4.70    1.32
  -1   5  -5   18.16    1.13
   1   5   5   19.44    1.98
  -1   5  -6   52.64    2.29
  -1   5  -7    1.97    0.83
  -1   5  -8   14.46    1.08
  -1   5  -9    0.31    0.70
  -1   5 -10    7.76    0.98
  -1   5 -11    5.41    1.02
  -1   5 -12    2.86    0.74
  -1   5 -13    0.89    0.68
  -1   5 -14    0.08    0.70
   1   7 -12    1.34    0.67
   1   7 -11    0.12    0.61
   1   7  -9    0.02    0.65
   1   7  -8    0.81    0.70
   1   7  -7    8.32    1.05
   1   7  -6   13.27    1.19
  -1   7   6   14.94    2.68
   1   7  -5    1.95    0.64
  -1   7   5    1.63    0.52
   1   7  -4    0.56    0.57
  -1   7   4    0.81    0.70
  -1   7   3    0.30    0.19
  -1   7   3    0.23    0.34
   1   7  -3   -0.12    0.45
  -1   7   3   -0.31    0.72
  -1   7   2    0.14    0.14
  -1   7   2   -0.07    0.26
   1   7  -2    0.41    0.45
  -1   7   2    0.22    0.67
  -1   7   1   20.08    0.98
   1   7  -1   18.56    0.85
  -1   7   1   20.11    1.01
   1   7  -1   18.96    0.98
   1   7   0    3.07    0.82
  -1   7   0    4.24    0.58
   1   7   0    4.06    0.71
   1  -7   0    3.32    0.41
   1   7   1    0.23    0.34
  -1   7  -1    0.71    0.47
   1   7   1    0.92    0.56
   1  -7   1    0.38    0.33
   1   7   2    7.83    0.46
   1   7   2    6.50    0.49
  -1   7  -2    6.65    0.90
   1   7   2    5.89    0.96
   1   7   3    0.41    0.18
   1   7   3    0.60    0.34
  -1   7  -3    0.30    0.51
   1   7   3    0.77    0.90
  -1   7  -4    0.57    0.56
   1   7   4    0.41    0.56
  -1   7  -5   24.37    1.73
   1   7   5   21.22    4.01
  -1   7  -6   38.64    2.21
   1   7   6   43.89    3.75
  -1   7  -7    6.24    0.84
  -1   7  -8    8.00    1.21
  -1   7  -9    5.30    1.21
  -1   7 -10    1.15    0.70
  -1   7 -11    2.20    0.96
  -1   7 -12    1.77    0.93
   1   9 -10    0.83    0.76
   1   9  -9    1.21    0.72
   1   9  -8    1.15    0.85
   1   9  -7    4.58    1.05
   1   9  -6    8.50    0.98
  -1   9   6    9.28    2.03
   1   9  -5    0.20    0.56
  -1   9   5    0.45    0.43
  -1   9   4    0.83    0.13
   1   9  -4    0.15    0.59
  -1   9   4    1.18    0.51
  -1   9   3    0.17    0.18
   1   9  -3    1.93    0.77
  -1   9   3    0.47    0.63
  -1   9   2    0.07    0.16
  -1   9   2    0.02    0.29
   1   9  -2    0.40    0.48
  -1   9   2    0.39    0.66
  -1   9   1    6.76    0.69
   1   9  -1    6.93    0.69
  -1   9   0   40.92    2.14
   1   9   0   39.70    2.06
   1   9   1    5.00    0.48
  -1   9  -1    6.24    0.77
   1   9   1    6.63    0.72
   1   9   2    5.18    0.57
  -1   9  -2    4.00    0.78
   1   9   2    4.47    0.83
   1   9   3    7.05    0.44
  -1   9  -3    6.67    0.90
   1   9   3    7.09    1.04
  -1   9  -4    6.42    1.05
   1   9   4    6.33    2.05
  -1   9  -5    0.12    0.50
   1   9   5    0.62    0.37
  -1   9  -6    1.01    0.67
   1   9   6    1.38    0.71
  -1   9  -7    1.03    0.65
  -1   9  -9    2.11    1.30
  -1   9 -10    2.49    1.19
   1  11  -6    0.45    0.67
  -1  11   6    0.47    0.48
   1  11  -5    0.53    0.57
  -1  11   5    0.44    0.53
   1  11  -4    1.05    1.00
  -1  11   4    1.10    0.61
   1  11  -3    1.15    0.50
  -1  11   3    0.61    0.48
   1  11  -2    0.77    0.56
  -1  11   2   -0.09    0.67
  -1  11   1    0.50    0.41
   1  11  -1    0.07    0.38
  -1  11   1    1.07    1.02
  -1  11   0    2.16    0.57
   1  11   0    0.98    0.48
   1  11   1    0.55    0.39
  -1  11  -1    0.62    0.56
   1  11   1   -0.16    0.70
  -1  11  -2    0.92    0.67
   1  11   2    0.66    0.70
  -1  11  -3    0.49    0.64
   1  11   3    0.47    0.75
  -1  11  -4    0.34    0.57
   1  11   4    0.81    0.48
  -1  11  -5    0.65    0.56
   1  11   5   -0.55    0.56
  -1  11  -6    1.00    0.67
   1  11   6    0.88    0.35
   2   0 -16    0.61    0.63
   2   0 -15    0.66    0.87
   2   0 -14    3.43    0.79
   2   0 -13    5.28    0.83
   2   0 -12    1.51    0.46
   2   0 -11    7.84    0.96
   2   0 -10   10.06    0.88
   2   0  -9    0.15    0.13
   2   0  -9    0.28    0.44
   2   0  -8    1.67    0.56
   2   0  -8    1.34    0.48
   2   0  -7  120.17    2.33
   2   0  -7  117.38    2.22
   2   0  -6   47.17    0.89
   2   0  -6   46.52    0.94
   2   0  -5   23.61    1.48
   2   0  -5   23.69    0.66
   2   0  -4   12.55    1.37
   2   0  -4   13.20    0.50
   2   0  -3  218.83    1.37
   2   0  -3  220.16    1.47
  -2   0   2  400.51    1.85
   2   0  -2  404.57    1.69
  -2   0  -2   42.47    0.69
   2   0   2   42.77    0.57
  -2   0  -4    9.60    0.51
   2   0   4   10.08    0.45
  -2   0  -5  286.18    2.49
   2   0   5  286.35    2.38
  -2   0  -6   85.33    1.82
   2   0   6   86.24    1.75
  -2   0  -7   26.86    0.96
   2   0   7   27.58    0.88
  -2   0  -8    1.58    0.51
   2   0   8    0.87    0.29
  -2   0  -9   27.61    1.53
   2   0   9   23.34    1.00
  -2   0 -10  102.02    1.88
  -2   0 -11    4.21    0.86
  -2   0 -12    1.07    0.69
  -2   0 -14    2.03    0.94
  -2   0 -15    0.36    0.53
   2  -2 -15    1.09    0.52
   2   2 -15    0.69    0.54
   2  -2 -14    2.06    0.65
   2   2 -14    1.09    0.51
   2  -2 -13   12.81    0.89
   2   2 -13   11.57    1.02
   2  -2 -12   14.26    0.95
   2  -2 -11   10.22    0.69
   2  -2 -11    9.68    0.74
   2   2 -11   10.85    1.08
   2  -2 -10    3.32    0.50
   2  -2 -10    3.83    0.65
   2  -2  -9   12.21    1.41
   2  -2  -9   13.78    0.83
   2   2  -9   13.10    1.01
   2  -2  -8   92.74    1.71
   2  -2  -8   93.23    1.70
   2   2  -8   88.32    1.97
   2  -2  -7    8.40    0.40
   2  -2  -7    7.52    0.43
   2   2  -7    8.18    0.67
  -2  -2   7    8.06    0.54
   2  -2  -6   41.11    0.90
   2  -2  -6   39.12    0.88
   2   2  -6   41.31    1.29
  -2  -2   6   40.38    1.15
   2  -2  -5   91.50    0.87
   2  -2  -5   90.66    0.87
   2   2  -5   91.65    1.47
  -2  -2   5   93.98    1.28
   2  -2  -5   90.77    1.43
   2  -2  -4   30.19    0.40
   2   2  -4   29.90    0.92
  -2  -2   4   29.56    0.69
   2  -2  -4   29.03    0.83
  -2   2   3   53.13    0.42
   2  -2  -3   53.12    0.43
   2   2  -3   53.51    0.93
  -2  -2   3   53.32    0.86
   2  -2  -3   52.44    0.94
   2   2  -2   31.99    0.73
  -2   2   2   31.07    0.42
   2  -2  -2   29.75    0.37
   2   2  -2   32.25    0.77
  -2   2   2   32.64    0.85
   2  -2  -2   29.34    0.70
   2   2  -1  737.26    3.34
  -2  -2   0   29.50    0.94
   2   2   0   28.34    0.53
  -2   2   0   29.05    0.62
   2  -2   0   30.63    0.72
  -2  -2  -1    4.54    0.27
   2   2   1    4.46    0.31
  -2   2  -1    4.39    0.52
   2  -2   1    5.44    0.58
   2   2   2   37.11    0.46
  -2   2  -2   39.79    0.85
   2  -2   2   38.21    0.80
   2   2   2   39.10    0.82
  -2  -2  -2   38.03    0.64
   2   2   3   12.77    0.31
  -2   2  -3   10.62    0.58
   2  -2   3   11.04    0.51
  -2  -2  -3   15.65    1.60
  -2  -2  -4  132.83    1.17
   2   2   4  135.41    1.15
  -2   2  -4  134.59    1.70
   2  -2   4  137.50    1.58
  -2  -2  -4  135.49    1.79
  -2  -2  -5    1.05    0.26
  -2   2  -5    1.90    0.66
   2   2   5    1.12    0.23
  -2  -2  -6    0.83    0.42
  -2   2  -6   -0.05    0.51
   2   2   6    0.26    0.30
   2  -2   6    0.35    0.35
  -2  -2  -7    1.72    0.37
  -2   2  -7    2.35    0.61
   2  -2   7    2.45    0.46
   2   2   7    1.84    0.26
  -2  -2  -8    1.29    0.44
  -2   2  -8    2.52    0.71
   2   2   8    1.47    0.33
  -2  -2  -9    0.48    0.57
  -2   2  -9    0.70    0.64
   2   2   9    0.41    0.44
  -2  -2 -10    3.32    0.54
   2   2  10    2.96    0.36
  -2  -2 -11    0.49    0.50
  -2   2 -11    1.49    0.82
   2   2  11    0.77    0.29
  -2  -2 -12    0.20    0.36
  -2  -2 -13    0.95    0.44
  -2   2 -13    0.83    0.59
  -2  -2 -14    0.40    0.51
  -2   2 -14    0.95    0.57
  -2  -2 -15   -0.01    0.34
  -2   2 -15    0.53    0.53
   2   4 -15    0.97    0.86
   2   4 -14    0.93    0.85
   2  -4 -12   12.57    0.51
   2   4 -12   13.26    1.17
   2  -4 -11    0.50    0.15
   2  -4 -11    0.64    0.24
   2   4 -11    0.55    0.63
   2  -4 -10    0.26    0.14
   2  -4 -10    0.14    0.16
   2   4 -10    0.64    0.64
   2  -4  -9   14.44    0.35
   2  -4  -9   13.55    0.37
   2   4  -9   14.30    1.48
   2  -4  -8   15.24    0.42
   2  -4  -8   14.65    0.42
   2   4  -7    4.56    0.82
   2   4  -6    4.84    0.76
   2  -4  -6    4.12    0.48
   2   4  -5   24.71    1.15
  -2  -4   5   23.01    0.82
   2  -4  -5   22.96    0.89
   2   4  -4   23.06    1.17
  -2  -4   4   22.45    0.81
  -2   4   4   24.12    1.11
  -2   4   3   11.68    0.33
   2   4  -3   10.83    0.73
   2  -4  -3   12.43    0.31
  -2   4   3   14.14    1.53
   2   4  -2    0.34    0.16
  -2   4   2    0.28    0.25
   2  -4  -2    0.03    0.16
   2   4  -2    0.08    0.38
  -2   4   2    0.72    0.45
   2   4  -1  173.50    2.25
  -2   4   1  171.92    1.55
   2  -4  -1  175.08    1.51
   2   4  -1  175.55    1.74
   2   4   0    9.83    0.46
  -2   4   0    8.66    0.49
   2  -4   0    9.76    0.51
   2   4   0    8.38    0.48
   2   4   1    0.27    0.30
  -2   4  -1   -0.10    0.34
   2  -4   1    0.51    0.33
   2   4   1    0.47    0.18
   2   4   2   27.05    0.47
  -2   4  -2   28.44    1.05
   2  -4   2   26.21    0.80
   2   4   2   27.24    0.50
   2   4   2   27.56    0.85
   2   4   3  133.73    2.20
  -2   4  -3  131.84    2.70
   2  -4   3  141.95    2.70
   2   4   3  137.06    2.24
   2   4   3  140.72    2.76
  -2   4  -4   98.53    2.16
   2  -4   4   98.35    1.99
   2   4   4   96.39    1.94
  -2   4  -5   13.93    0.97
   2  -4   5   12.68    0.66
  -2  -4  -5   11.98    0.60
  -2   4  -6    3.28    0.78
  -2  -4  -6    2.28    0.44
  -2  -4  -7   14.67    0.63
  -2   4  -7   13.80    1.18
  -2  -4  -7    9.87    1.93
  -2  -4  -8    1.36    0.35
  -2  -4  -8    1.13    0.24
  -2   4  -8    2.29    0.84
  -2  -4  -9    1.79    0.48
  -2  -4  -9    2.46    0.31
  -2   4  -9    1.87    0.73
  -2  -4 -10    0.29    0.17
  -2  -4 -10    0.29    0.24
  -2   4 -10    0.68    0.67
  -2   4 -11    0.27    0.69
  -2   4 -12    0.86    0.68
  -2   4 -13   -0.01    0.62
  -2   4 -14    0.25    0.61
   2   6 -13    0.26    0.62
   2   6 -12    0.99    0.69
   2   6 -10    1.12    0.75
   2   6  -9    0.91    0.73
   2   6  -8    0.06    0.68
   2   6  -7   39.05    1.41
   2   6  -6   26.80    1.48
  -2   6   6   25.54    2.92
   2   6  -5    4.79    0.91
  -2   6   5    4.01    0.90
   2   6  -4   26.26    1.54
  -2   6   4   27.88    4.27
   2   6  -3   64.35    1.66
  -2   6   3   68.61    1.29
  -2   6   3   66.67    1.21
   2   6  -3   67.12    1.68
  -2   6   3   67.86    1.87
   2   6  -2   65.66    1.73
  -2   6   2   65.62    1.33
   2   6  -2   66.54    1.57
   2  -6  -2   67.36    1.22
  -2   6   2   64.60    1.83
   2   6  -1    7.21    1.42
  -2   6   1    9.11    0.55
   2   6  -1    9.03    0.70
   2  -6  -1   10.10    0.49
   2   6   0    1.10    0.44
  -2   6   0   -0.26    0.38
   2   6   0    0.85    0.45
   2  -6   0    0.49    0.30
   2   6   1    2.25    0.32
  -2   6  -1    2.27    0.53
   2   6   1    2.31    0.43
   2  -6   1    2.86    0.46
   2   6   2   31.50    0.76
  -2   6  -2   30.33    1.09
   2   6   2   30.89    0.79
   2  -6   2   28.80    1.03
   2   6   2   32.00    1.23
   2   6   3    6.81    0.33
  -2   6  -3    7.40    0.81
   2   6   3    6.73    0.35
   2   6   3    7.64    0.85
  -2   6  -4    0.99    0.93
   2   6   4    1.00    0.72
  -2   6  -5   65.40    2.39
   2   6   5   66.55    2.46
  -2   6  -6   25.16    1.41
  -2   6  -7   10.59    1.08
  -2   6  -8    2.23    0.97
  -2   6  -9   19.68    1.45
  -2   6 -10   24.76    1.72
  -2   6 -11    1.44    0.99
  -2   6 -12    0.89    0.65
  -2   6 -13    0.79    0.68
   2   8 -11    2.39    0.78
   2   8 -10    2.95    0.98
   2   8  -9    2.70    0.67
   2   8  -8    6.46    0.98
   2   8  -7    4.68    0.89
   2   8  -6    4.44    0.82
  -2   8   6    4.96    0.85
   2   8  -5    6.51    0.95
  -2   8   5    6.75    2.12
  -2   8   4   10.80    0.49
  -2   8   4   10.75    0.51
   2   8  -4   11.21    1.04
  -2   8   4   11.50    3.35
  -2   8   3    6.80    0.47
  -2   8   3    6.56    0.53
   2   8  -3    7.00    0.83
  -2   8   3    6.28    0.92
  -2   8   2    0.66    0.26
  -2   8   2    0.53    0.44
   2   8  -2    1.10    0.62
  -2   8   2    0.46    0.65
  -2   8   1   36.77    1.69
  -2   8   1   38.64    1.84
   2   8  -1   40.12    1.97
   2   8   0    0.87    0.33
  -2   8   0    1.72    0.66
   2   8   0    1.63    0.57
   2  -8   0    0.51    0.26
   2   8   1    0.25    0.22
  -2   8  -1    0.75    0.73
   2   8   1    0.79    0.32
   2   8   2    6.31    0.53
  -2   8  -2    6.38    0.83
   2   8   2    6.27    0.59
   2   8   2    5.98    0.98
   2   8   3    2.85    0.29
  -2   8  -3    3.47    0.94
   2   8   3    3.18    0.42
   2   8   3    3.97    0.86
   2   8   4    2.95    0.15
   2   8   4    3.46    0.23
  -2   8  -4    3.66    0.82
   2   8   4    5.03    1.13
  -2   8  -5    0.73    0.59
   2   8   5    0.75    0.56
  -2   8  -6    0.29    0.62
   2   8   6    0.54    0.36
  -2   8  -7    1.72    0.93
  -2   8  -8   -0.23    0.72
  -2   8  -9    0.52    0.66
  -2   8 -10    0.85    0.74
  -2   8 -11    2.82    1.32
   2  10  -8    1.76    1.12
   2  10  -7   -0.69    0.62
  -2  10   7    0.33    0.74
   2  10  -6    1.17    0.66
  -2  10   6    0.99    0.49
   2  10  -5    1.02    0.55
  -2  10   5   -0.03    0.68
   2  10  -4    0.94    0.75
  -2  10   4    2.51    0.77
  -2  10   3   -0.08    0.17
   2  10  -3    0.25    0.47
  -2  10   3   -0.16    0.67
  -2  10   2    1.99    0.49
   2  10  -2    1.04    0.47
  -2  10   2    1.51    1.03
   2  10  -1   15.18    0.98
  -2  10   1   16.84    1.42
  -2  10   0   12.27    0.95
   2  10   0   11.93    0.78
  -2  10  -1    4.45    0.82
   2  10   1    3.39    0.57
   2  10   2   12.21    0.65
  -2  10  -2   13.14    0.97
   2  10   2   12.40    1.20
  -2  10  -3   30.21    1.42
   2  10   3   27.73    2.38
  -2  10  -4   16.88    1.37
   2  10   4   18.16    2.27
  -2  10  -5    5.89    0.91
   2  10   5    4.25    1.41
  -2  10  -6    1.61    1.00
   2  10   6    1.70    0.75
  -2  10  -7    1.77    0.62
  -2  10  -8    0.26    0.68
   3  -1 -16    0.03    0.43
   3   1 -16    0.47    0.52
   3  -1 -15    0.18    0.40
   3   1 -15    0.01    0.49
   3  -1 -14    0.87    0.67
   3   1 -14    0.77    0.71
   3  -1 -13    1.74    0.66
   3   1 -13    1.85    0.72
   3  -1 -12    0.56    0.43
   3   1 -12    0.11    0.52
   3  -1 -11    3.87    0.72
   3   1 -11    2.38    0.64
   3  -1 -10    0.28    0.28
   3  -1 -10    0.78    0.54
   3   1 -10    0.80    0.57
   3  -1  -9    5.64    1.25
   3  -1  -9    6.35    0.59
   3   1  -9    7.73    1.02
   3   1  -8    3.78    0.77
   3  -1  -8    3.58    0.78
   3   1  -8    6.10    0.88
   3  -1  -8    3.42    0.41
   3   1  -7    1.53    0.42
   3  -1  -7    1.92    0.40
   3  -1  -7    1.38    0.33
   3   1  -7    2.02    0.60
   3   1  -6    1.90    0.49
   3  -1  -6    2.15    0.27
   3   1  -6    1.87    0.43
   3  -1  -6    2.92    0.38
   3   1  -5    3.88    0.71
   3  -1  -5    4.45    0.34
   3   1  -5    3.43    0.43
   3  -1  -5    3.26    0.34
  -3   1   4   32.72    1.21
   3   1  -4   32.59    0.71
   3  -1  -4   33.53    0.55
   3   1  -4   32.09    0.75
   3   1  -3  337.80    1.93
  -3   1   3  343.63    1.62
   3  -1  -3  344.58    1.62
   3   1  -3  345.50    2.01
  -3  -1   2   17.46    0.82
   3   1  -2   18.36    0.51
  -3   1   2   17.57    0.39
   3  -1  -2   17.27    0.39
   3  -1  -2   18.88    0.63
  -3  -1   1  288.88    1.46
   3  -1  -1  285.98    1.39
  -3   1   1  288.91    1.56
   3  -1  -1  292.61    1.52
  -3  -1   0   10.07    0.34
   3   1   0   10.23    0.30
  -3   1   0   10.01    0.35
   3  -1   0    9.71    0.34
  -3  -1  -1   14.68    0.43
   3   1   1   14.96    0.37
   3  -1   1   14.77    0.60
   3   1   1   15.01    0.32
  -3  -1  -2   56.85    0.77
   3   1   2   57.11    0.90
  -3   1  -2   54.61    0.99
   3  -1   2   57.58    1.10
   3   1   3  248.62    1.49
  -3   1  -3  250.75    1.78
   3  -1   3  252.47    1.75
  -3  -1  -4  167.30    1.37
  -3   1  -4  163.81    1.55
   3   1   4  164.69    1.29
  -3  -1  -5  117.36    1.36
  -3   1  -5  116.48    1.60
   3   1   5  118.50    1.29
   3  -1   5  118.15    1.48
  -3  -1  -6    1.78    0.45
  -3   1  -6    2.38    0.72
   3   1   6    1.43    0.27
   3  -1   6    1.44    0.37
  -3  -1  -7    5.30    0.57
  -3   1  -7    4.81    1.04
   3   1   7    4.47    0.38
   3  -1   7    3.69    0.42
  -3  -1  -8   14.31    0.84
   3   1   8   14.70    0.66
  -3  -1  -9    3.16    0.66
  -3   1  -9    5.29    1.14
   3   1   9    3.45    0.43
  -3  -1 -10    0.38    0.51
  -3   1 -10    0.28    0.63
   3   1  10    0.37    0.26
  -3  -1 -11    6.83    0.90
  -3   1 -11    7.48    0.88
  -3  -1 -12    0.78    0.48
  -3   1 -12    0.50    0.49
  -3  -1 -13    0.39    0.47
  -3   1 -13    0.17    0.57
  -3  -1 -14    0.19    0.60
  -3   1 -14    0.59    0.60
  -3  -1 -15    3.00    0.85
  -3   1 -15    1.93    0.67
   3   3 -15    0.28    0.59
   3  -3 -14    0.20    0.26
   3   3 -14   -0.52    0.60
   3  -3 -13    9.74    0.74
   3   3 -13    6.41    0.84
   3  -3 -12    1.03    0.27
   3  -3 -12    0.97    0.34
   3   3 -12    2.55    0.86
   3  -3 -11    0.48    0.16
   3  -3 -11    0.28    0.26
   3   3 -11    0.62    0.63
   3  -3 -10    8.00    0.59
   3   3 -10   11.05    1.14
   3  -3  -9   16.78    0.70
   3  -3  -9   18.08    0.80
   3   3  -9   17.63    1.26
   3  -3  -8    0.16    0.16
   3  -3  -8    0.79    0.34
   3   3  -8    1.18    0.61
   3  -3  -7   81.46    0.81
   3   3  -7   82.21    1.64
   3  -3  -7   82.01    1.69
   3   3  -6   16.72    2.19
   3  -3  -6   18.83    0.47
   3   3  -6   19.62    1.20
   3  -3  -6   16.75    1.95
   3  -3  -5   69.09    1.21
   3  -3  -5   67.61    1.18
   3   3  -4   15.91    0.63
  -3   3   4   16.42    0.30
   3  -3  -4   16.53    0.32
   3   3  -4   16.45    0.75
  -3   3   4   16.98    1.75
   3  -3  -4   16.75    0.73
   3   3  -3  234.15    2.29
  -3   3   3  232.83    1.57
   3  -3  -3  233.72    1.57
   3   3  -3  231.06    2.19
  -3   3   3  234.68    2.37
   3  -3  -3  231.33    2.27
   3   3  -2  104.54    1.16
  -3   3   2  100.52    0.88
   3  -3  -2  100.89    0.81
   3   3  -2  103.21    1.23
  -3   3   2  104.51    1.40
   3   3  -1    0.30    0.26
  -3   3   1    0.21    0.28
   3  -3  -1    0.06    0.22
   3   3  -1    0.60    0.43
  -3  -3   0   40.36    0.65
   3   3   0   40.80    0.64
  -3   3   0   39.94    0.84
   3  -3   0   41.28    0.72
  -3  -3  -1   12.69    0.61
   3   3   1   12.75    0.37
  -3   3  -1   12.56    0.58
   3  -3   1   13.21    0.53
  -3  -3  -2    0.25    0.19
   3   3   2    0.19    0.24
  -3   3  -2   -0.06    0.47
   3  -3   2    0.28    0.43
   3   3   2    0.30    0.29
   3   3   3  335.70    2.27
  -3   3  -3  335.00    2.95
   3  -3   3  338.07    2.89
   3   3   3  336.87    2.71
   3   3   4   61.14    1.15
  -3   3  -4   63.22    1.71
   3  -3   4   60.30    1.44
  -3  -3  -4   60.40    1.33
  -3   3  -5   86.61    1.90
   3   3   5   86.76    1.46
   3  -3   5   87.39    1.84
  -3  -3  -5   86.56    1.77
  -3  -3  -6   12.31    0.48
  -3   3  -6   11.91    0.97
   3   3   6   12.26    0.41
  -3  -3  -6   11.08    1.44
  -3  -3  -7    6.75    0.46
  -3   3  -7    6.62    0.86
   3   3   7    5.55    0.36
  -3  -3  -7    4.99    1.48
  -3  -3  -8    1.14    0.46
  -3   3  -8    0.41    0.76
   3   3   8    0.28    0.25
  -3  -3  -8    0.61    0.32
  -3  -3  -9   80.38    1.27
  -3   3  -9   82.77    2.31
   3   3   9   78.82    1.07
  -3  -3 -10   64.17    1.24
  -3   3 -10   60.78    1.81
   3   3  10   56.95    2.35
  -3  -3 -11    4.18    0.57
  -3  -3 -12    3.18    0.52
  -3   3 -12    2.37    0.82
  -3  -3 -13    0.53    0.39
  -3   3 -13    0.58    0.57
  -3  -3 -14    1.59    0.51
  -3   3 -14    1.41    0.67
   3   5 -13    2.94    1.06
   3   5 -12    1.11    0.73
   3   5 -11    2.36    0.74
   3   5 -10    0.07    0.61
   3   5  -9    2.31    0.72
   3   5  -8    4.10    0.87
   3   5  -7    1.07    0.73
   3   5  -6   24.99    1.69
   3   5  -5    1.53    0.60
  -3   5   5    2.00    0.79
   3   5  -4    0.75    0.50
  -3   5   4    0.62    0.09
   3   5  -4    1.73    0.66
  -3   5   4    1.56    0.75
   3   5  -3    1.94    0.68
  -3   5   3    1.57    0.28
   3   5  -3    1.65    0.53
   3  -5  -3    1.95    0.22
  -3   5   3    2.93    0.86
   3   5  -2    1.09    0.39
  -3   5   2    1.76    0.36
   3  -5  -2    1.66    0.23
   3   5  -2    0.88    0.29
  -3   5   2    1.17    0.71
   3   5  -1  146.93    2.53
  -3   5   1  148.32    2.56
   3  -5  -1  152.30    2.55
   3   5  -1  150.10    2.63
   3   5   0   74.19    1.52
  -3   5   0   72.81    1.59
   3  -5   0   71.84    1.51
   3   5   0   71.72    1.53
   3   5   1   39.55    0.93
  -3   5  -1   37.21    1.09
   3  -5   1   37.91    0.98
   3   5   1   37.29    0.86
   3   5   2   13.06    0.46
  -3   5  -2   13.16    0.90
   3  -5   2   13.13    0.67
   3   5   2   12.37    0.46
   3   5   2   12.95    0.73
   3   5   3   79.57    0.80
  -3   5  -3   76.45    1.40
   3  -5   3   76.05    1.28
   3   5   3   77.86    0.77
   3   5   3   77.41    1.39
   3   5   4   58.80    0.55
  -3   5  -4   61.90    1.45
   3   5   4   61.28    0.53
   3   5   4   60.72    1.34
  -3   5  -5   27.16    1.34
  -3   5  -6   23.92    1.46
  -3   5  -7    3.20    0.82
  -3   5  -8    8.36    1.09
  -3   5  -9    5.75    0.94
  -3   5 -10    3.92    0.91
  -3   5 -11    5.25    1.36
  -3   5 -12    0.94    1.01
  -3   5 -13    1.72    1.03
   3   7 -13    0.61    0.64
   3   7 -12    3.40    0.94
   3   7 -11    2.88    0.98
   3   7 -10    2.08    1.10
   3   7  -9    9.27    1.01
   3   7  -8    8.14    1.03
   3   7  -7   -0.07    0.65
   3   7  -6    0.38    0.68
  -3   7   6   -0.10    0.58
   3   7  -5    5.89    1.19
  -3   7   5    4.85    1.59
  -3   7   4   11.14    0.31
  -3   7   4   10.41    0.33
   3   7  -4   11.69    1.24
  -3   7   4    9.65    1.51
  -3   7   3   17.48    1.29
  -3   7   3   18.46    0.78
   3   7  -3   17.20    1.06
  -3   7   3   19.13    1.64
  -3   7   2    0.75    0.44
   3   7  -2    1.33    0.72
   3  -7  -2    1.10    0.30
  -3   7   2    1.28    1.03
   3   7  -1   23.81    1.03
  -3   7   1   25.54    1.11
   3   7  -1   24.49    1.14
   3  -7  -1   24.94    0.97
   3   7   0   28.79    1.09
  -3   7   0   29.50    1.29
   3   7   0   28.14    1.17
   3  -7   0   29.25    1.14
   3   7   1   15.45    0.72
  -3   7  -1   15.00    1.00
   3   7   1   17.04    0.82
   3  -7   1   16.20    0.80
   3   7   2   31.64    1.07
  -3   7  -2   28.89    1.32
   3   7   2   30.03    1.06
   3   7   2   31.80    1.56
   3   7   3   95.57    2.55
  -3   7  -3   91.44    3.05
   3   7   3   89.14    2.41
   3   7   3   93.88    3.02
   3   7   4   54.17    0.55
   3   7   4   54.99    0.55
  -3   7  -4   56.01    1.89
   3   7   4   57.93    1.84
  -3   7  -5   19.06    1.40
   3   7   5   19.83    2.97
  -3   7  -6    2.60    0.74
  -3   7  -7   11.73    1.27
  -3   7  -8    0.90    0.67
  -3   7  -9   -0.03    0.71
  -3   7 -10    1.43    0.96
  -3   7 -11    1.04    0.69
  -3   7 -12    0.45    0.62
   3   9  -9    1.21    0.94
   3   9  -8    0.82    0.65
   3   9  -7    9.43    1.49
   3   9  -6   17.49    1.23
  -3   9   6   13.66    3.80
   3   9  -5    9.57    1.17
  -3   9   5    7.76    2.31
  -3   9   4    4.26    0.27
   3   9  -4    4.89    0.99
  -3   9   4    5.99    2.07
  -3   9   3   23.19    0.76
   3   9  -3   23.72    1.13
  -3   9   3   28.15    1.62
  -3   9   2   12.12    0.73
   3   9  -2   13.27    1.06
  -3   9   2   12.92    1.25
  -3   9   1    1.31    0.38
  -3   9   1    2.54    0.52
   3   9  -1    3.26    0.74
  -3   9   0    0.63    0.42
   3   9   0    0.99    0.48
   3   9   1    1.15    0.35
  -3   9  -1    1.92    0.67
   3   9   1    1.07    0.43
  -3   9  -2    0.78    0.69
   3   9   2    0.07    0.23
   3   9   2    0.78    0.84
  -3   9  -3    9.58    1.00
   3   9   3    8.81    0.47
   3   9   3    9.82    1.29
  -3   9  -4    2.29    0.78
   3   9   4    1.70    0.59
  -3   9  -5    2.41    0.83
   3   9   5    2.66    0.69
  -3   9  -6    0.18    0.66
   3   9   6    1.16    0.53
  -3   9  -7    1.04    0.94
  -3   9  -8    2.28    1.23
  -3   9  -9   10.94    1.87
   3  11  -6    1.43    0.82
  -3  11   6   -0.08    0.56
   3  11  -5    1.06    0.75
  -3  11   5    1.40    0.77
   3  11  -4    0.75    0.52
  -3  11   4    1.04    0.37
   3  11  -3    2.00    0.85
  -3  11   3    0.61    0.56
   3  11  -2    0.44    0.39
  -3  11   2    0.91    0.73
  -3  11   1    3.68    0.66
   3  11  -1    4.65    0.73
  -3  11   1    6.59    1.31
  -3  11   0    4.33    0.93
   3  11   0    3.63    0.73
  -3  11  -1    1.14    0.62
   3  11   1    1.68    0.86
  -3  11  -2    0.76    0.47
   3  11   2    0.28    0.58
  -3  11  -3    1.02    0.66
   3  11   3    0.89    0.44
  -3  11  -4    2.51    0.90
   3  11   4    0.69    0.36
  -3  11  -5    2.95    0.86
   3  11   5    1.12    1.07
   4   0 -16    1.07    0.66
   4   0 -15    0.14    0.50
   4   0 -14    4.47    0.87
   4   0 -13    7.96    0.92
   4   0 -12    2.55    0.68
   4   0 -11    6.13    0.68
   4   0 -10    2.79    0.49
   4   0  -9   47.10    1.63
   4   0  -9   48.84    1.68
   4   0  -8    0.96    0.37
   4   0  -8    0.25    0.42
   4   0  -7   33.74    0.99
   4   0  -7   32.98    1.01
   4   0  -6   62.56    1.37
   4   0  -6   60.60    1.38
   4   0  -5  108.85    1.23
   4   0  -5  108.70    1.32
  -4   0   4   99.35    1.34
   4   0  -4  101.02    1.07
  -4   0   2  223.37    1.39
   4   0  -2  225.90    1.39
  -4   0   1   19.19    0.50
   4   0  -1   19.03    0.43
  -4   0   0   47.50    0.65
   4   0   0   47.95    0.62
  -4   0   0   48.09    0.53
   4   0   0   48.56    0.41
  -4   0  -1   93.64    1.00
   4   0   1   90.45    0.93
  -4   0  -2    2.67    0.56
   4   0   2    3.09    0.45
  -4   0  -3  635.77    3.06
   4   0   3  636.53    2.94
  -4   0  -4   81.10    1.19
   4   0   4   79.49    1.14
  -4   0  -5    3.68    0.60
   4   0   5    4.04    0.48
  -4   0  -6    0.81    0.44
   4   0   6   -0.16    0.32
  -4   0  -7    7.07    0.80
   4   0   7    5.62    0.47
  -4   0  -8   17.13    1.05
   4   0   8   17.08    0.75
  -4   0  -9   77.21    2.50
  -4   0 -10    0.50    0.55
  -4   0 -11    0.56    0.58
  -4   0 -12    2.73    0.78
  -4   0 -13    1.47    0.91
  -4   0 -14    1.71    0.68
  -4   0 -15    2.71    0.86
   4  -2 -15    0.39    0.48
   4   2 -15   -0.01    0.51
   4  -2 -14    0.32    0.50
   4   2 -14    0.62    0.49
   4  -2 -13    0.52    0.37
   4   2 -13    0.77    0.52
   4  -2 -12    0.39    0.46
   4   2 -12    0.46    0.53
   4  -2 -11    0.61    0.35
   4  -2 -11    0.66    0.47
   4   2 -11    0.53    0.54
   4  -2 -10    5.42    0.44
   4  -2 -10    4.47    0.64
   4  -2  -9    0.79    0.34
   4  -2  -9    0.39    0.33
   4   2  -9    1.25    0.79
   4  -2  -8   45.48    1.01
   4  -2  -8   43.86    1.11
   4   2  -8   44.17    1.35
   4   2  -7   78.00    1.74
   4  -2  -7   81.80    1.53
   4   2  -7   82.82    1.92
   4  -2  -7   79.37    1.53
   4   2  -6   24.05    0.86
   4  -2  -6   22.27    0.65
   4   2  -6   22.66    1.04
   4  -2  -6   21.04    0.61
   4  -2  -6   19.74    2.76
  -4   2   5   53.15    0.90
   4   2  -5   54.87    1.05
   4  -2  -5   53.44    0.73
   4   2  -5   52.71    1.12
   4  -2  -5   56.64    1.32
   4   2  -4  113.63    1.39
  -4   2   4  111.23    1.05
   4  -2  -4  114.60    1.05
   4   2  -4  111.36    1.45
   4  -2  -4  115.89    2.11
  -4  -2   3  104.09    1.30
   4   2  -3  102.96    1.14
  -4   2   3  100.75    0.83
   4  -2  -3  101.46    0.83
  -4   2   3  104.90    1.36
   4  -2  -3  101.83    1.25
  -4  -2   2  203.32    1.68
   4   2  -2  203.65    1.50
  -4   2   2  201.03    1.26
   4  -2  -2  202.10    1.28
  -4   2   2  200.60    1.83
   4  -2  -2  203.59    1.61
  -4  -2   1  112.17    1.08
   4   2  -1  113.82    1.06
  -4   2   1  114.15    1.10
   4  -2  -1  115.97    1.10
  -4   2   1  111.87    1.27
  -4  -2   0   12.02    0.44
   4   2   0   12.39    0.45
  -4   2   0   12.91    0.59
   4  -2   0   11.67    0.61
  -4  -2  -1    0.02    0.25
   4   2   1   -0.16    0.27
  -4   2  -1    0.25    0.45
   4  -2   1   -0.01    0.47
  -4  -2  -2   23.75    0.51
   4   2   2   22.61    0.51
  -4   2  -2   25.37    0.72
   4  -2   2   24.80    0.71
   4   2   2   23.97    0.48
  -4  -2  -3  203.50    1.72
  -4  -2  -4    0.52    0.27
  -4   2  -4    0.57    0.53
   4   2   4    0.98    0.26
   4  -2   4    0.66    0.40
  -4  -2  -4    0.61    0.26
  -4  -2  -5    0.75    0.42
  -4   2  -5    0.27    0.52
   4   2   5    0.54    0.20
   4  -2   5    0.90    0.35
  -4  -2  -5    0.87    0.27
  -4  -2  -6   14.33    0.67
  -4   2  -6   13.52    1.08
   4   2   6   14.22    0.58
   4  -2   6   14.24    0.70
  -4  -2  -7    0.68    0.54
  -4   2  -7    0.85    0.82
   4   2   7    0.88    0.30
  -4  -2  -8    5.92    0.67
  -4   2  -8    5.82    0.80
   4   2   8    4.97    0.40
  -4  -2  -9    9.50    0.74
  -4   2  -9    8.21    1.06
   4   2   9   10.22    0.61
  -4  -2 -10    0.53    0.37
  -4   2 -10    0.89    0.64
   4   2  10    0.57    0.32
  -4  -2 -11    0.26    0.36
  -4   2 -11    0.63    0.58
  -4  -2 -12    0.61    0.54
  -4   2 -12    1.32    0.60
  -4  -2 -13    0.91    0.43
  -4   2 -13    1.45    0.83
  -4  -2 -14    0.23    0.38
  -4   2 -14    1.94    0.89
  -4  -2 -15    0.64    0.37
  -4   2 -15    0.94    0.58
   4   4 -15    1.64    0.88
   4   4 -14    0.96    0.62
   4  -4 -13    0.65    0.31
   4  -4 -12    0.59    0.30
   4   4 -12    0.48    0.92
   4  -4 -11    0.38    0.21
   4  -4 -11    0.39    0.26
   4   4 -11    0.81    0.60
   4  -4 -10    0.16    0.12
   4  -4 -10    0.32    0.18
   4   4 -10   -0.38    0.55
   4  -4  -9    0.57    0.26
   4  -4  -9    0.99    0.27
   4   4  -9    0.57    0.70
   4  -4  -8   16.22    0.56
   4  -4  -8   15.43    0.54
   4   4  -8   17.35    1.34
   4  -4  -7   52.05    0.82
   4  -4  -7   51.18    0.80
   4   4  -7   50.25    1.66
   4   4  -6   53.72    1.58
  -4   4   5   11.20    0.39
   4   4  -5    8.71    2.25
   4  -4  -5   11.47    0.31
   4   4  -5   11.65    0.84
   4  -4  -5   10.68    0.73
   4   4  -4  103.24    2.38
  -4   4   4  102.14    1.73
   4  -4  -4  103.39    1.76
   4   4  -4  106.90    2.29
  -4   4   4  103.93    2.33
   4   4  -3  199.73    3.77
  -4   4   3  200.59    3.34
   4  -4  -3  201.62    3.33
  -4   4   3  203.13    4.04
   4   4  -2   76.16    1.19
  -4   4   2   73.02    1.01
   4  -4  -2   76.18    0.96
   4   4  -2   72.69    1.20
  -4   4   2   70.20    1.45
   4   4  -1    3.87    0.40
  -4   4   1    4.12    0.44
   4  -4  -1    4.40    0.35
   4   4  -1    4.62    0.53
  -4  -4   0   13.46    0.52
   4   4   0   13.79    0.49
  -4   4   0   12.59    0.59
   4  -4   0   14.12    0.55
  -4  -4  -1    6.90    1.48
   4   4   1    5.45    0.31
  -4   4  -1    5.79    0.52
   4  -4   1    5.41    0.42
  -4  -4  -2    9.16    0.71
   4   4   2    9.13    0.41
  -4   4  -2   10.55    0.89
   4  -4   2    9.48    0.56
   4   4   2    9.95    0.57
  -4  -4  -3   55.75    1.09
   4   4   3   58.56    1.16
  -4   4  -3   57.77    1.55
   4  -4   3   58.17    1.41
   4   4   3   57.58    1.61
   4   4   4    0.59    0.21
  -4   4  -4    1.20    0.82
   4  -4   4    1.51    0.52
   4   4   4    1.31    0.49
  -4   4  -5    0.80    0.62
   4   4   5    0.09    0.14
  -4   4  -6    4.83    1.00
   4   4   6    5.20    0.29
  -4  -4  -6    4.90    0.52
  -4   4  -7    0.66    0.84
   4   4   7    0.21    0.21
  -4  -4  -7    0.42    0.39
  -4   4  -8    2.69    1.13
   4   4   8    1.68    0.28
  -4  -4  -8    0.76    0.42
  -4   4  -9   28.90    1.93
   4   4   9   28.62    1.26
  -4   4 -10    5.49    1.03
   4   4  10    4.01    0.30
  -4  -4 -11    0.73    0.30
  -4   4 -11    0.58    0.69
  -4  -4 -12    0.42    0.27
  -4   4 -12    0.39    0.63
  -4   4 -13   -0.03    0.65
  -4   4 -14    0.27    0.65
   4   6 -13    8.56    1.35
   4   6 -12    8.25    1.39
   4   6 -11    2.71    0.99
   4   6 -10    8.62    1.01
   4   6  -9   28.07    1.92
   4   6  -8    2.19    0.67
   4   6  -7    2.96    0.82
   4   6  -6    0.73    0.67
  -4   6   6    0.26    0.40
   4   6  -5    2.54    0.85
  -4   6   5    3.58    1.07
  -4   6   4    8.82    0.33
   4   6  -4    8.79    1.06
   4  -6  -4    8.53    0.31
  -4   6   4    9.67    2.86
  -4   6   3   71.09    1.37
   4   6  -3   68.89    1.73
   4  -6  -3   72.31    1.26
  -4   6   3   74.91    3.67
   4   6  -2    3.90    0.45
  -4   6   2    3.20    0.41
   4   6  -2    3.41    0.53
   4  -6  -2    4.76    0.40
  -4   6   2    4.78    0.77
   4   6  -1   21.18    0.77
  -4   6   1   20.80    0.84
   4  -6  -1   19.34    0.71
   4   6  -1   21.55    0.90
   4   6   0   13.77    0.59
  -4   6   0   13.37    0.85
   4  -6   0   13.83    0.64
   4   6   0   14.62    0.72
   4   6   1   12.54    0.55
  -4   6  -1   13.91    1.01
   4  -6   1   11.78    0.76
   4   6   1   13.08    0.66
   4   6   2   34.11    0.84
  -4   6  -2   32.31    1.26
   4  -6   2   33.49    1.07
   4   6   2   34.68    0.88
   4   6   2   34.97    1.26
   4   6   3  202.66    5.16
  -4   6  -3  199.27    5.52
   4   6   3  206.05    1.44
   4   6   3  211.10    2.41
   4   6   4   51.16    1.42
  -4   6  -4   52.05    2.34
   4   6   4   50.09    1.36
   4   6   4   53.55    1.91
  -4   6  -5    6.85    1.04
   4   6   5    6.27    1.79
  -4   6  -6   17.89    1.20
  -4   6  -7    8.63    1.14
  -4   6  -8    2.72    1.09
  -4   6  -9    3.00    1.10
  -4   6 -10    0.09    0.69
  -4   6 -11    0.83    0.65
  -4   6 -12   -0.06    0.65
  -4   6 -13    2.09    1.06
   4   8 -12    2.50    1.10
   4   8 -11    0.77    0.98
   4   8 -10    4.85    1.19
   4   8  -9    4.74    0.93
   4   8  -8    8.85    1.13
   4   8  -7   19.17    1.57
   4   8  -6    8.93    0.99
  -4   8   6   10.35    3.07
   4   8  -5   21.54    1.48
  -4   8   5   22.88    2.96
  -4   8   4   17.52    0.80
  -4   8   4   16.53    0.78
   4   8  -4   17.88    1.33
  -4   8   4   15.01    3.59
   4   8  -3   20.56    1.33
  -4   8   3   19.94    1.49
  -4   8   2   36.15    1.72
   4   8  -2   35.13    1.82
   4  -8  -2   34.79    1.59
  -4   8   2   36.05    2.19
  -4   8   1   25.60    1.36
   4   8  -1   26.64    1.46
   4  -8  -1   24.95    1.24
   4   8   0   10.93    0.75
  -4   8   0   11.83    0.94
   4   8   0   12.44    0.88
   4   8   1    7.65    0.56
  -4   8  -1    9.27    1.05
   4   8   1    8.98    0.69
   4   8   2   10.27    0.63
  -4   8  -2   11.40    0.96
   4   8   2   12.38    0.78
   4   8   2    9.60    0.91
   4   8   3    0.90    0.26
  -4   8  -3    0.83    0.75
   4   8   3    0.48    0.27
   4   8   3   -0.06    0.54
   4   8   4    1.10    0.18
  -4   8  -4    2.57    0.66
   4   8   4    1.44    0.21
   4   8   4    1.54    0.41
  -4   8  -5    0.98    0.86
   4   8   5   -0.36    0.49
  -4   8  -6    0.04    0.65
  -4   8  -7    2.91    1.14
  -4   8  -8    1.15    0.74
  -4   8 -10    1.13    1.09
  -4   8 -11    0.87    1.04
   4  10  -8    0.66    0.92
   4  10  -7    2.24    0.93
  -4  10   7    1.92    1.10
   4  10  -6    2.63    1.00
  -4  10   6    3.00    1.68
   4  10  -5    2.41    0.71
  -4  10   5    2.54    0.85
   4  10  -4    8.25    1.17
  -4  10   4    9.22    2.15
  -4  10   3   13.00    0.86
   4  10  -3   13.06    1.24
  -4  10   3   12.35    2.78
  -4  10   2    7.85    0.69
   4  10  -2    6.20    0.88
  -4  10   2    8.80    1.42
  -4  10   1    0.63    0.48
   4  10  -1    0.75    0.40
  -4  10   1    0.66    0.72
  -4  10   0    0.71    0.59
   4  10   0    0.17    0.49
  -4  10  -1    1.62    0.75
   4  10   1    0.90    0.39
   4  10   1    1.33    0.80
  -4  10  -2    2.44    0.70
   4  10   2    3.17    0.44
   4  10   2    3.38    0.89
  -4  10  -3    6.29    0.90
   4  10   3    4.77    1.23
  -4  10  -4    0.69    0.54
   4  10   4    0.59    0.47
  -4  10  -5    0.11    0.63
   4  10   5   -0.06    0.47
  -4  10  -6    0.26    0.64
   4  10   6    0.68    0.32
   5  -1 -16    0.73    0.55
   5   1 -16    0.34    0.71
   5  -1 -15    0.34    0.39
   5   1 -15    0.55    0.51
   5   1 -14    0.86    0.70
   5  -1 -14    0.56    0.55
   5  -1 -13    1.16    0.67
   5   1 -13    0.53    0.67
   5  -1 -12    2.64    0.72
   5   1 -12    2.39    0.67
   5  -1 -11    0.31    0.41
   5   1 -11    0.44    0.53
   5  -1 -10    0.91    0.38
   5   1 -10    0.58    0.56
   5  -1 -10    0.70    0.41
   5  -1  -9    2.43    0.35
   5  -1  -9    3.72    0.60
   5   1  -9    2.93    0.64
   5   1  -8   16.15    2.26
   5  -1  -8   20.80    0.68
   5   1  -8   19.12    0.96
   5  -1  -8   20.36    0.80
   5   1  -7   15.55    1.03
   5  -1  -7   18.85    0.68
   5   1  -7   17.05    0.83
   5  -1  -7   17.65    0.71
   5   1  -6   18.59    0.72
   5  -1  -6   18.04    0.63
   5   1  -6   19.17    0.85
   5  -1  -6   18.85    0.69
  -5   1   5   15.70    0.59
   5   1  -5   17.15    0.61
   5  -1  -5   15.68    0.53
   5   1  -5   16.66    0.67
  -5  -1   4   92.95    1.18
  -5   1   4   94.82    1.00
   5   1  -4   95.85    1.13
   5  -1  -4   97.90    0.99
   5   1  -3 1013.21   76.35
   5  -1  -3 1012.61   94.41
   5   1  -2   48.51    0.82
   5  -1  -2   50.70    0.77
   5  -1  -2   52.16    0.82
  -5  -1   1   39.57    0.76
   5   1  -1   42.01    0.79
  -5   1   1   42.02    0.88
   5  -1  -1   39.33    0.87
  -5   1   1   39.33    1.02
   5  -1  -1   39.68    0.75
  -5  -1   0   46.36    0.87
   5   1   0   46.56    0.84
  -5   1   0   47.32    1.06
   5  -1   0   47.01    0.99
  -5  -1  -1   34.88    0.72
   5   1   1   37.70    0.83
  -5   1  -1   35.54    1.05
   5  -1   1   35.49    0.80
  -5  -1  -2    4.81    0.49
   5   1   2    4.47    0.44
  -5   1  -2    4.90    0.48
   5  -1   2    4.79    0.51
  -5  -1  -3   13.90    0.55
   5   1   3   12.59    0.54
  -5   1  -3   14.35    0.63
   5  -1   3   13.45    0.65
  -5  -1  -4  279.19    2.42
  -5   1  -4  281.55    2.63
   5   1   4  279.30    2.34
   5  -1   4  280.52    2.48
  -5  -1  -5   14.75    0.69
  -5   1  -5   14.46    0.89
   5   1   5   14.27    0.62
   5  -1   5   14.49    0.71
  -5  -1  -6   58.58    1.36
  -5   1  -6   60.49    1.60
   5   1   6   63.85    1.42
   5  -1   6   61.34    1.45
  -5  -1  -7    3.25    0.67
  -5   1  -7    2.20    0.64
   5   1   7    3.14    0.47
   5  -1   7    2.51    0.47
  -5  -1  -8   26.93    1.29
   5   1   8   22.25    0.95
  -5  -1  -9   36.50    1.55
  -5   1  -9   36.02    1.64
   5   1   9   30.83    1.17
  -5  -1 -10    1.35    0.68
  -5   1 -10    0.21    0.55
  -5  -1 -11   15.65    1.26
  -5   1 -11   12.18    1.10
  -5  -1 -12   11.48    1.00
  -5   1 -12   10.35    1.11
  -5  -1 -13    4.43    0.69
  -5   1 -13    3.36    0.91
  -5  -1 -14    1.69    0.53
  -5   1 -14    2.41    0.86
  -5  -1 -15    0.56    0.43
   5   3 -15    0.61    0.62
   5  -3 -14    2.78    0.54
   5   3 -14    2.78    0.85
   5  -3 -13    1.75    0.51
   5   3 -13    0.69    0.58
   5  -3 -12    2.14    0.47
   5   3 -12    2.40    0.90
   5  -3 -11    0.11    0.15
   5  -3 -11    0.35    0.27
   5   3 -11    0.65    0.58
   5  -3 -10   13.71    0.76
   5  -3 -10   15.93    0.92
   5   3 -10   15.97    1.39
   5  -3  -9   56.32    1.64
   5  -3  -9   57.47    1.72
   5   3  -9   53.06    2.20
   5  -3  -8    0.70    0.38
   5   3  -8   -0.09    0.60
   5  -3  -8    0.35    0.30
   5  -3  -7    7.61    0.37
   5   3  -7    7.45    0.79
   5  -3  -7    7.69    0.38
   5   3  -6    0.32    0.20
   5  -3  -6    0.38    0.25
   5   3  -6   -0.11    0.54
   5  -3  -6    0.35    0.26
   5   3  -5   14.67    1.46
  -5   3   5   19.82    0.57
   5  -3  -5   18.53    0.55
   5   3  -5   18.17    0.82
   5  -3  -5   15.78    2.20
   5   3  -4   17.23    0.59
  -5   3   4   16.78    0.42
   5  -3  -4   17.52    0.50
   5   3  -4   17.81    0.90
  -5   3   4   17.50    1.93
   5  -3  -4   17.77    0.81
   5   3  -3    3.95    0.43
  -5   3   3    3.97    0.32
   5  -3  -3    4.28    0.31
   5   3  -3    3.93    0.54
  -5   3   3    4.46    1.43
   5  -3  -3    5.67    0.63
  -5  -3   2  279.07    2.39
   5   3  -2  277.64    2.32
  -5   3   2  280.55    2.25
   5  -3  -2  281.49    2.19
  -5  -3   1   75.24    1.06
   5   3  -1   73.95    1.04
  -5   3   1   73.57    1.08
   5  -3  -1   75.11    1.00
  -5  -3   0    5.10    0.36
   5   3   0    6.03    0.39
  -5   3   0    5.55    0.44
   5  -3   0    5.74    0.48
  -5  -3  -1   18.67    0.50
   5   3   1   19.26    0.53
  -5   3  -1   17.99    0.71
   5  -3   1   19.25    0.67
  -5  -3  -2  103.05    1.13
   5   3   2  102.95    1.12
  -5   3  -2  102.91    1.55
   5  -3   2  103.11    1.41
   5   3   2  103.10    1.10
  -5  -3  -3  301.08    4.92
   5   3   3  309.60    5.09
  -5   3  -3  291.45    5.11
   5  -3   3  309.13    5.27
  -5  -3  -4   43.61    0.97
   5   3   4   42.94    1.00
  -5   3  -4   46.98    1.39
   5  -3   4   47.52    1.27
  -5  -3  -4   44.48    1.02
  -5  -3  -5   52.91    1.11
  -5   3  -5   53.68    1.54
   5   3   5   53.69    1.12
   5  -3   5   50.12    1.30
  -5  -3  -5   52.57    1.13
  -5  -3  -6   10.85    0.52
  -5   3  -6   11.44    0.91
   5   3   6   12.71    0.51
  -5  -3  -6   10.56    0.82
  -5  -3  -7   86.10    2.47
  -5   3  -7   83.79    2.75
   5   3   7   81.28    2.26
  -5  -3  -7   85.58    2.55
  -5  -3  -8    5.75    0.60
  -5   3  -8    6.75    1.07
   5   3   8    5.09    0.38
  -5  -3  -8    4.68    1.22
  -5  -3  -9    9.99    0.77
  -5   3  -9    9.74    1.23
   5   3   9    8.01    0.59
  -5  -3  -9    4.98    1.50
  -5  -3 -10    5.45    0.62
  -5   3 -10    5.67    0.89
   5   3  10    5.24    0.47
  -5  -3 -11    0.12    0.32
  -5  -3 -12    1.54    0.59
  -5   3 -12    0.58    0.47
  -5  -3 -13    4.55    0.60
  -5   3 -13    4.49    1.02
  -5   3 -14    0.20    0.63
   5   5 -14    0.64    0.75
   5   5 -13    1.47    0.95
   5   5 -12    1.04    0.74
   5   5 -11    1.17    0.96
   5   5 -10    1.47    0.61
   5   5  -9    0.30    0.65
   5   5  -8    9.91    1.02
   5   5  -7    0.83    0.67
   5   5  -6    0.98    0.71
  -5   5   5    0.16    0.14
   5  -5  -5    0.25    0.18
   5   5  -5    0.79    0.88
  -5   5   5    0.18    0.28
   5   5  -4   28.54    0.87
  -5   5   4   28.17    0.54
   5  -5  -4   30.16    0.55
   5   5  -4   32.34    1.34
  -5   5   4   30.41    1.26
   5   5  -3   83.07    1.40
  -5   5   3   83.10    1.07
   5  -5  -3   87.30    0.97
   5   5  -3   84.50    1.43
  -5   5   3   85.25    1.73
   5   5  -2   24.20    0.78
  -5   5   2   26.15    0.84
   5  -5  -2   24.04    0.67
   5   5  -2   22.64    0.89
  -5   5   2   24.86    1.14
   5   5  -1   27.40    0.85
  -5   5   1   26.60    0.90
   5  -5  -1   27.71    0.80
   5   5  -1   26.84    0.90
   5   5   0    2.64    0.49
  -5   5   0    1.85    0.43
   5  -5   0    1.78    0.40
   5   5   0    1.85    0.39
   5   5   1   18.91    0.64
  -5   5  -1   20.79    0.96
   5  -5   1   19.09    0.70
  -5  -5  -2    2.23    0.46
   5   5   2    2.68    0.28
  -5   5  -2    2.27    0.56
   5  -5   2    2.17    0.41
   5   5   2    2.79    0.47
  -5  -5  -3    0.16    0.17
   5   5   3    0.51    0.29
  -5   5  -3    0.14    0.61
   5  -5   3    0.83    0.43
   5   5   3    0.74    0.38
   5   5   4   59.42    1.10
  -5   5  -4   59.45    1.81
   5   5   4   62.89    1.64
  -5  -5  -5    0.98    0.20
   5   5   5    0.73    0.23
  -5   5  -5    1.00    0.72
  -5  -5  -6    9.62    0.41
  -5   5  -6    8.70    1.33
   5   5   6    9.38    0.41
  -5  -5  -7    0.66    0.21
  -5   5  -7    1.02    0.83
   5   5   7    0.63    0.17
  -5  -5  -8    4.17    0.28
  -5   5  -8    3.67    0.67
   5   5   8    4.24    0.27
  -5  -5  -9   12.38    0.63
  -5   5  -9   11.44    1.21
  -5  -5 -10    1.64    0.20
  -5   5 -10    0.88    1.00
  -5   5 -11    5.47    1.05
  -5   5 -12    0.70    0.72
  -5   5 -13    3.49    1.22
   5   7 -13    0.07    0.63
   5   7 -12    0.42    0.65
   5   7 -11    1.73    1.00
   5   7 -10    0.49    0.71
   5   7  -9    0.36    0.68
   5   7  -8    2.96    0.85
   5   7  -7    7.17    1.02
   5   7  -6    1.99    0.65
  -5   7   6    1.26    0.45
  -5   7   5    0.35    0.09
   5   7  -5    1.06    0.62
  -5   7   5    0.58    0.47
  -5   7   4   34.97    0.73
   5   7  -4   34.28    1.38
   5  -7  -4   36.06    0.65
  -5   7   4   37.58    3.76
  -5   7   3   54.44    1.71
   5   7  -3   56.12    2.05
   5  -7  -3   53.97    1.60
  -5   7   3   52.42    2.13
  -5   7   2   35.52    1.33
   5   7  -2   35.58    1.47
   5  -7  -2   34.61    1.17
  -5   7   2   36.60    1.76
   5   7  -1    0.71    0.28
  -5   7   1    0.44    0.44
   5   7  -1    1.08    0.61
   5  -7  -1    0.19    0.28
   5   7   0    5.79    0.52
  -5   7   0    6.42    0.77
   5  -7   0    5.09    0.54
   5   7   0    7.20    0.77
   5   7   1   20.21    0.85
  -5   7  -1   20.75    1.18
   5   7   1   20.41    0.95
   5   7   2    0.10    0.23
  -5   7  -2    0.04    0.52
   5   7   2    0.57    0.41
   5   7   2    0.54    0.60
   5   7   3    0.84    0.35
  -5   7  -3    0.17    0.60
   5   7   3    0.44    0.22
   5   7   3    1.44    0.73
   5   7   4   12.80    0.67
  -5   7  -4   14.11    1.20
   5   7   4   13.77    0.69
   5   7   4   12.22    2.81
  -5   7  -5    2.77    0.81
   5   7   5    2.56    0.64
  -5   7  -6    1.22    0.65
  -5   7  -7    0.72    0.65
  -5   7  -8    6.29    1.31
  -5   7  -9    1.90    0.71
  -5   7 -10    1.25    0.72
  -5   7 -11    0.23    0.62
  -5   7 -12    0.78    0.68
   5   9 -10    2.92    1.09
   5   9  -9    5.72    1.34
   5   9  -8    1.48    0.64
   5   9  -7    0.62    0.57
  -5   9   7    0.86    0.44
   5   9  -6    1.80    0.68
  -5   9   6    2.51    0.85
   5   9  -5    0.46    0.52
  -5   9   5    0.52    0.46
  -5   9   4    0.10    0.20
   5   9  -4    0.22    0.51
  -5   9   4    1.75    0.90
  -5   9   3    0.84    0.53
   5   9  -3    0.34    0.50
  -5   9   3    1.41    0.95
  -5   9   2    3.55    0.55
   5   9  -2    3.61    0.76
   5  -9  -2    3.45    0.42
  -5   9   2    3.82    1.01
  -5   9   1    1.16    0.52
  -5   9   1    0.95    0.77
  -5   9   0    0.94    0.46
   5   9   0    0.77    0.66
  -5   9  -1    1.49    0.72
  -5   9  -2   16.32    1.35
   5   9   2   14.25    0.64
   5   9   2   14.74    1.11
  -5   9  -3   35.53    1.63
   5   9   3   36.40    0.80
   5   9   3   35.35    3.13
  -5   9  -4   18.52    1.24
   5   9   4   20.06    2.11
  -5   9  -5    2.45    0.97
   5   9   5    2.87    0.91
  -5   9  -6    6.26    0.97
  -5   9  -7   14.98    1.54
  -5   9  -8    0.74    0.73
  -5   9  -9    0.28    0.86
   5  11  -6    0.82    0.80
  -5  11   6    1.59    0.76
   5  11  -5    0.42    0.55
  -5  11   5    1.06    0.48
   5  11  -4    2.54    0.71
   5  11  -3    5.89    1.12
  -5  11   3    4.74    1.43
   5  11  -2    5.32    0.89
  -5  11   2    6.87    1.57
  -5  11   1    2.47    0.62
   5  11  -1    2.47    0.71
  -5  11   1    0.93    0.82
  -5  11   0    0.45    0.38
  -5  11   0    2.02    1.19
  -5  11  -1    0.72    0.46
   5  11   1    0.70    0.32
   5  11   1    2.53    0.82
  -5  11  -2    1.67    0.74
  -5  11  -3    1.86    0.72
   5  11   3    2.52    0.74
  -5  11  -4    2.92    0.90
   5  11   4    1.04    0.50
  -5  11  -5    1.51    0.85
   5  11   5    1.12    0.88
   6   0 -16    1.18    0.52
   6   0 -15    1.97    0.81
   6   0 -14    1.03    0.64
   6   0 -13    9.52    0.81
   6   0 -12    2.92    0.57
   6   0 -11    5.17    0.73
   6   0 -10    5.24    0.69
   6   0  -9    0.39    0.28
   6   0  -9    0.28    0.42
   6   0  -8    2.69    0.42
   6   0  -8    1.67    0.38
   6   0  -7   11.84    0.55
  -6   0   6   22.36    1.93
   6   0  -6   22.11    0.74
  -6   0   5   45.28    0.89
   6   0  -5   45.86    0.88
  -6   0   4    0.26    0.36
   6   0  -4    0.68    0.43
  -6   0   3   11.70    0.50
   6   0  -3   12.36    0.62
  -6   0   2    4.97    0.40
   6   0  -2    4.98    0.37
  -6   0   1    9.46    0.58
   6   0  -1    9.86    0.70
   6   0  -1    8.97    1.51
  -6   0   0    2.22    0.67
   6   0   0    1.67    0.50
  -6   0   0    1.41    0.42
  -6   0  -1  347.11    2.16
   6   0   1  343.94    2.15
  -6   0  -2  217.50    1.76
   6   0   2  209.63    1.68
  -6   0  -3  120.25    1.49
   6   0   3  120.46    1.45
  -6   0  -4   21.96    0.79
   6   0   4   21.95    0.79
  -6   0  -5   68.85    1.69
   6   0   5   63.92    1.47
  -6   0  -6   25.85    1.07
   6   0   6   28.65    1.04
  -6   0  -7  169.46    3.10
   6   0   7  159.07    2.79
  -6   0  -8    7.99    0.75
  -6   0  -9    1.87    0.66
  -6   0 -10    4.14    0.99
  -6   0 -11    1.42    0.87
  -6   0 -12    4.39    0.76
  -6   0 -13   23.39    1.34
  -6   0 -14    0.52    0.50
   6  -2 -15    0.37    0.47
   6   2 -15    1.64    0.78
   6  -2 -14    0.10    0.37
   6   2 -14   -0.01    0.51
   6  -2 -13    0.94    0.62
   6   2 -13    1.19    0.75
   6  -2 -12    0.22    0.42
   6   2 -12    0.24    0.49
   6  -2 -11    0.65    0.22
   6  -2 -11    0.80    0.40
   6   2 -11    1.09    0.53
   6  -2 -10    7.48    0.50
   6  -2 -10    8.46    0.60
   6   2 -10   10.45    1.13
   6  -2  -9    6.29    0.46
   6   2  -9    9.04    0.92
   6  -2  -9    6.95    0.74
   6  -2  -8    1.14    0.31
   6   2  -8    0.49    0.51
   6  -2  -8    0.45    0.31
   6   2  -7   17.40    0.70
   6  -2  -7   17.29    0.55
   6   2  -7   17.66    0.86
   6  -2  -7   17.39    0.62
  -6   2   6    0.32    0.19
   6   2  -6    1.27    0.49
   6   2  -6    0.99    0.70
   6  -2  -6    0.87    0.26
   6   2  -5   85.85    1.81
  -6   2   5   87.22    1.66
   6  -2  -5   87.82    1.67
   6   2  -5   81.86    1.83
   6  -2  -5   83.80    2.80
  -6  -2   4    7.25    1.74
   6   2  -4    6.19    0.50
  -6   2   4    5.80    0.36
   6  -2  -4    5.88    0.37
   6  -2  -4    6.05    1.23
  -6  -2   3    7.40    1.31
   6   2  -3    5.97    0.46
  -6   2   3    5.55    0.44
   6  -2  -3    5.97    0.44
  -6   2   3    6.81    1.58
   6  -2  -3    5.43    1.15
  -6  -2   2    7.66    0.51
   6   2  -2    8.35    0.46
  -6   2   2    7.03    0.52
   6  -2  -2    7.59    0.52
  -6   2   2    7.75    0.97
   6  -2  -2    8.34    0.49
  -6  -2   1   20.64    0.60
   6   2  -1   19.63    0.58
  -6   2   1   19.14    0.64
   6  -2  -1   18.48    0.61
  -6   2   1   20.12    0.71
  -6  -2   0   15.07    0.52
   6   2   0   14.74    0.48
  -6   2   0   13.30    0.62
   6  -2   0   15.35    0.63
  -6  -2  -1   32.16    0.66
   6   2   1   32.73    0.69
  -6   2  -1   32.35    0.86
   6  -2   1   32.17    0.80
  -6  -2  -2  162.40    1.56
   6   2   2  159.57    1.61
  -6   2  -2  163.65    1.88
   6  -2   2  162.81    1.79
  -6  -2  -3   22.55    0.65
   6   2   3   21.70    0.67
  -6   2  -3   22.45    0.87
   6  -2   3   23.18    0.84
  -6  -2  -3   23.55    0.44
  -6  -2  -4   19.05    0.69
  -6   2  -4   19.21    1.13
   6   2   4   20.50    0.74
   6  -2   4   20.04    0.79
  -6  -2  -4   20.08    1.30
  -6  -2  -5   21.40    0.78
  -6   2  -5   22.74    1.00
   6   2   5   21.67    0.76
   6  -2   5   22.13    0.84
  -6  -2  -5   22.41    1.34
  -6  -2  -6   15.03    0.75
  -6   2  -6   15.10    0.95
   6   2   6   14.67    0.59
  -6  -2  -7   25.84    1.03
  -6   2  -7   25.82    1.54
   6   2   7   23.41    0.80
  -6  -2  -8    2.57    0.51
  -6   2  -8    4.59    0.98
   6   2   8    3.37    0.38
  -6  -2  -9    2.71    0.61
  -6   2  -9    2.51    0.64
   6   2   9    3.94    0.49
  -6  -2 -10    2.93    0.55
  -6   2 -10    3.12    0.73
  -6  -2 -11    2.99    0.58
  -6   2 -11    4.35    0.79
  -6  -2 -12    0.50    0.45
  -6   2 -12   -0.49    0.62
  -6  -2 -13    7.82    0.80
  -6   2 -13    8.87    1.09
  -6  -2 -14    0.05    0.44
  -6   2 -14    0.42    0.61
   6   4 -15    0.29    0.67
   6   4 -14    0.52    0.83
   6   4 -12   -0.07    0.60
   6  -4 -11    1.09    0.23
   6   4 -11    0.77    0.59
   6  -4 -10    6.40    0.42
   6   4 -10    6.91    0.94
   6  -4  -9   14.46    0.47
   6   4  -9   14.71    1.08
   6  -4  -8    8.70    0.47
   6   4  -8    7.44    1.06
   6  -4  -7    4.30    0.31
   6   4  -7    3.39    0.83
  -6   4   6   15.13    0.96
   6  -4  -6   14.43    0.47
   6   4  -6   15.35    1.07
  -6   4   5   49.04    0.71
   6  -4  -5   46.17    0.72
   6   4  -5   47.42    1.29
   6   4  -4    1.21    0.34
  -6   4   4    1.48    0.25
   6  -4  -4    1.45    0.28
   6   4  -4    1.68    0.66
  -6   4   4    2.12    0.61
   6   4  -3    1.03    0.43
  -6   4   3    0.73    0.26
   6  -4  -3    0.37    0.25
   6   4  -3    0.83    0.49
  -6   4   3    1.24    0.54
  -6  -4   2    0.64    0.33
   6   4  -2    0.72    0.32
  -6   4   2    0.17    0.37
   6  -4  -2    0.43    0.29
  -6   4   2    0.80    0.67
  -6  -4   1    2.20    0.42
   6   4  -1    2.00    0.31
  -6   4   1    1.81    0.43
   6  -4  -1    1.71    0.31
  -6  -4   0   44.14    1.07
   6   4   0   46.85    1.12
  -6   4   0   44.74    1.30
   6  -4   0   46.50    1.16
  -6  -4  -1   17.20    0.63
   6   4   1   17.93    0.63
  -6   4  -1   16.95    0.84
   6  -4   1   18.97    0.85
  -6  -4  -2    8.07    0.49
   6   4   2    6.90    0.47
  -6   4  -2    7.25    0.81
   6  -4   2    7.04    0.52
   6   4   2    6.54    0.44
  -6  -4  -3    1.09    0.29
   6   4   3    1.24    0.31
  -6   4  -3    1.61    0.59
   6  -4   3    0.79    0.31
   6   4   3    1.38    0.48
  -6  -4  -4    3.20    0.28
   6   4   4    3.86    0.36
  -6   4  -4    4.27    0.74
  -6  -4  -5    0.60    0.28
   6   4   5    0.39    0.26
  -6   4  -5   -0.04    0.74
  -6  -4  -6   50.88    1.50
   6   4   6   50.51    1.50
  -6  -4  -6   49.61    1.58
  -6  -4  -7   18.76    0.78
  -6   4  -7   17.15    1.28
   6   4   7   17.17    0.70
  -6  -4  -7   17.39    0.84
  -6  -4  -8    3.33    0.38
  -6   4  -8    3.06    0.84
   6   4   8    3.86    0.36
  -6  -4  -8    2.70    0.41
  -6  -4  -9    1.17    0.33
  -6   4  -9    1.51    1.00
   6   4   9    1.26    0.26
  -6  -4 -10    0.09    0.24
  -6   4 -10    0.86    1.06
  -6  -4 -11    1.40    0.48
  -6   4 -11    0.64    0.69
  -6  -4 -12    4.99    0.51
  -6   4 -13    3.69    1.08
   6   6 -13    2.59    1.00
   6   6 -12    5.27    1.05
   6   6 -11    1.71    0.72
   6   6 -10   -0.35    0.69
   6   6  -9    1.21    0.98
   6   6  -8    1.68    0.69
   6   6  -7    2.87    0.77
   6   6  -6    6.20    0.90
  -6   6   6    7.10    1.45
  -6   6   5    0.03    0.11
   6  -6  -5    0.34    0.20
   6   6  -5    0.57    0.68
  -6   6   5   -0.54    0.76
  -6   6   4   16.27    0.70
   6  -6  -4   16.30    0.66
   6   6  -4   18.34    1.41
  -6   6   4   18.57    2.31
  -6   6   3   16.38    0.81
   6  -6  -3   17.34    0.72
   6   6  -3   15.81    0.97
  -6   6   3   16.66    1.98
   6   6  -2    2.53    0.45
  -6   6   2    2.86    0.61
   6  -6  -2    1.91    0.38
   6   6  -2    2.57    0.61
  -6   6   2    1.87    1.02
   6   6  -1    0.97    0.39
  -6   6   1    0.55    0.46
   6  -6  -1    1.32    0.59
   6   6  -1    0.76    0.40
   6   6   0   10.03    0.62
  -6   6   0   10.71    0.82
   6  -6   0   10.48    0.67
   6   6   0    8.42    0.68
   6   6   1   38.67    0.97
  -6   6  -1   41.58    1.40
   6  -6   1   38.97    1.10
   6   6   1   42.76    1.13
   6   6   2   23.97    0.94
  -6   6  -2   24.34    1.33
   6   6   2   22.85    0.89
   6   6   2   23.46    1.12
   6   6   3   19.14    0.76
  -6   6  -3   20.70    1.83
   6   6   3   18.69    0.75
   6   6   3   21.45    2.88
   6   6   4    7.94    0.46
  -6   6  -4   10.29    1.23
   6   6   4    7.55    2.02
  -6  -6  -5    9.39    0.88
   6   6   5    8.87    0.40
  -6   6  -5   11.25    1.18
  -6   6  -6   18.67    1.40
   6   6   6   18.97    0.83
  -6   6  -7   33.64    1.99
  -6   6  -8    0.61    1.10
  -6   6  -9    1.03    0.75
  -6   6 -10    0.88    1.01
  -6   6 -11    0.10    0.67
  -6   6 -12    1.27    1.04
   6   8 -11    0.25    0.65
   6   8 -10    1.36    1.02
   6   8  -8    0.69    0.86
   6   8  -7    0.26    0.61
   6   8  -6    1.97    0.91
  -6   8   6    1.26    0.61
  -6   8   5    6.29    0.71
  -6   8   5    8.29    0.46
   6   8  -5    7.95    0.90
  -6   8   5    9.08    2.08
  -6   8   4    0.67    0.35
   6   8  -4    0.00    0.58
   6  -8  -4    0.44    0.17
  -6   8   4    0.98    0.74
  -6   8   3    2.80    0.43
   6   8  -3    2.36    0.56
   6  -8  -3    2.46    0.34
  -6   8   3    1.87    0.96
  -6   8   2   12.86    0.99
   6   8  -2   10.75    0.89
   6  -8  -2   10.11    0.67
  -6   8   2    9.50    1.06
  -6   8   1    1.49    0.49
   6   8  -1    0.60    0.45
   6  -8  -1    1.76    0.36
   6   8   0    5.01    0.54
  -6   8   0    4.30    0.74
   6   8   0    5.95    0.71
   6   8   1    1.71    0.37
  -6   8  -1    1.45    0.43
   6   8   1    1.62    0.34
   6   8   2    7.71    0.56
  -6   8  -2    9.09    0.89
   6   8   2    8.18    0.59
   6   8   2    8.31    0.88
   6   8   3    6.20    0.49
  -6   8  -3    6.51    0.94
   6   8   3    7.11    0.53
   6   8   3    6.41    1.66
   6   8   4    0.25    0.19
  -6   8  -4    0.54    0.55
   6   8   4    0.55    0.19
   6   8   4    0.68    0.34
  -6   8  -5    0.84    0.66
   6   8   5    0.25    0.28
  -6   8  -6    0.40    0.66
  -6   8  -7    1.36    0.90
  -6   8  -8    1.80    1.00
  -6   8  -9    0.83    0.73
  -6   8 -10    1.78    0.83
   6  10  -8    1.80    0.92
   6  10  -7    0.75    0.59
  -6  10   7    1.09    0.80
   6  10  -6    3.01    0.86
  -6  10   6    2.08    0.96
   6  10  -5    1.67    0.75
  -6  10   5    1.43    0.67
   6  10  -4    0.58    0.55
  -6  10   4    1.09    0.60
  -6  10   3    2.00    0.47
   6  10  -3    1.65    0.58
  -6  10   3    2.38    0.71
  -6  10   2    1.84    0.44
   6  10  -2    1.36    0.52
  -6  10   2    1.87    1.09
  -6  10   1    5.67    0.83
   6  10  -1    4.54    0.67
  -6  10   1    6.30    1.11
  -6  10   0   14.67    1.14
   6  10   0   16.01    1.10
  -6  10  -1    5.59    0.91
   6  10   1    6.05    0.73
   6  10   1    5.44    0.86
  -6  10  -2    1.08    0.64
   6  10   2    0.19    0.30
   6  10   2    0.12    0.50
  -6  10  -3    0.98    0.57
   6  10   3    0.78    0.28
  -6  10  -4    0.34    0.57
   6  10   4    0.67    0.40
  -6  10  -5    0.27    0.66
   6  10   5    0.52    0.41
  -6  10  -6    8.10    1.56
  -6  10  -7    1.59    0.95
   7  -1 -16   -0.02    0.40
   7   1 -16    0.86    0.76
   7  -1 -15    1.92    0.73
   7   1 -15    1.35    0.72
   7  -1 -14    0.70    0.42
   7   1 -14    0.07    0.46
   7   1 -13    1.45    0.61
   7  -1 -13    0.04    0.41
   7  -1 -12    0.93    0.55
   7   1 -12    1.64    0.76
   7  -1 -11    4.56    0.57
   7   1 -11    4.37    0.70
   7  -1 -10   24.32    0.83
   7   1 -10   27.51    1.15
   7  -1 -10   29.27    1.06
   7  -1  -9   40.52    1.40
   7  -1  -9   39.43    1.46
   7   1  -8   67.69    1.48
   7   1  -8   74.40    1.78
  -7   1   7   69.71    1.71
   7   1  -7   68.81    1.54
   7  -1  -7   72.37    1.49
   7   1  -7   69.63    1.69
  -7  -1   6  121.13    2.41
  -7   1   6  122.44    2.68
   7   1  -6  119.20    2.37
   7  -1  -6  123.14    2.32
  -7  -1   5   26.76    0.94
  -7   1   5   26.82    0.69
   7   1  -5   25.92    0.74
   7  -1  -5   28.14    0.78
  -7  -1   4    0.62    0.41
   7   1  -4    0.95    0.35
  -7   1   4    0.04    0.30
   7  -1  -4    0.66    0.47
  -7  -1   3   25.45    0.76
   7   1  -3   26.44    0.71
  -7   1   3   24.51    0.64
   7  -1  -3   25.87    0.65
   7  -1  -3   26.57    0.72
  -7  -1   2    2.55    0.41
   7   1  -2    1.93    0.34
  -7   1   2    3.31    0.35
   7  -1  -2    3.42    0.48
   7  -1  -2    4.19    0.66
  -7  -1   1   22.90    0.62
   7   1  -1   22.74    0.62
  -7   1   1   22.51    0.69
   7  -1  -1   23.30    0.76
  -7   1   1   23.17    0.68
   7  -1  -1   23.68    0.57
  -7  -1   0    0.87    0.34
   7   1   0    1.03    0.58
  -7   1   0    1.23    0.43
   7  -1   0    1.60    0.56
  -7   1   0    0.95    0.27
  -7  -1  -1    0.11    0.40
   7   1   1    0.07    0.41
  -7   1  -1    0.35    0.47
   7  -1   1   -0.04    0.52
  -7  -1  -2   96.51    1.32
   7   1   2   96.37    1.34
  -7   1  -2   94.68    1.41
   7  -1   2   94.45    1.33
  -7  -1  -3  229.68    2.18
  -7   1  -3  224.59    2.35
   7   1   3  228.42    2.19
   7  -1   3  232.81    2.31
  -7  -1  -4   64.85    1.59
   7   1   4   61.85    1.44
   7  -1   4   64.07    1.57
  -7  -1  -5   11.04    0.73
  -7   1  -5    9.03    0.75
   7   1   5    9.50    0.56
   7  -1   5    9.76    0.59
  -7   1  -6  173.36    2.23
   7  -1   6  171.84    2.03
  -7  -1  -7   76.08    1.81
  -7   1  -7   70.62    1.83
   7   1   7   72.19    2.22
  -7  -1  -8    0.37    0.51
   7   1   8   -0.07    0.35
  -7  -1  -9   20.57    1.09
  -7   1  -9   20.03    1.13
  -7  -1 -10    8.01    0.90
  -7   1 -10   10.50    1.00
  -7  -1 -11    3.87    0.69
  -7   1 -11    2.77    0.71
  -7  -1 -12    1.82    0.56
  -7   1 -12    1.92    0.72
  -7  -1 -13   -0.01    0.50
  -7   1 -13   -0.19    0.60
  -7  -1 -14    0.61    0.49
  -7   1 -14    1.45    0.62
   7   3 -15    1.84    0.76
   7  -3 -14    0.65    0.39
   7   3 -14    0.47    0.53
   7  -3 -13    3.32    0.49
   7   3 -13    2.59    0.72
   7  -3 -12    1.19    0.38
   7  -3 -11    0.56    0.22
   7  -3 -11    0.82    0.39
   7   3 -11    0.94    0.81
   7  -3 -10    9.84    0.62
   7   3 -10   10.17    1.09
   7  -3 -10    9.45    0.67
   7  -3  -9    0.90    0.36
   7  -3  -9    0.62    0.43
   7   3  -9    1.21    0.66
   7  -3  -8    1.30    0.26
   7   3  -8    2.24    0.66
   7  -3  -8    0.89    0.33
  -7   3   7    1.32    0.31
   7  -3  -7    0.39    0.35
   7   3  -7    0.65    0.57
  -7   3   6   10.74    0.48
   7  -3  -6   10.58    0.47
   7   3  -6    8.73    0.85
   7   3  -5    7.03    0.57
  -7   3   5    7.72    0.45
   7  -3  -5    6.80    0.44
   7   3  -5    8.34    0.73
   7  -3  -5    6.10    1.20
  -7  -3   4  287.24    5.23
   7   3  -4  281.68    4.85
  -7   3   4  277.88    4.62
   7  -3  -4  292.46    4.90
  -7   3   4  271.61    4.86
   7  -3  -4  287.66    5.02
  -7  -3   3   62.06    1.27
   7   3  -3   62.11    1.08
  -7   3   3   61.62    1.01
   7  -3  -3   63.25    1.02
  -7   3   3   60.72    1.31
   7  -3  -3   61.69    1.18
  -7  -3   2  252.46    2.35
  -7   3   2  251.10    2.23
   7  -3  -2  260.09    2.28
  -7   3   2  253.13    2.93
  -7  -3   1  387.82    3.13
   7   3  -1  394.06    6.49
  -7   3   1  393.30    6.50
   7  -3  -1  392.70    6.48
  -7  -3   0  745.38   11.98
   7   3   0  780.93   12.47
  -7   3   0  739.18   11.92
   7  -3   0  763.59   12.26
  -7  -3  -1  307.39    2.50
   7   3   1  308.06    2.48
  -7   3  -1  301.24    2.77
   7  -3   1  308.23    2.76
  -7  -3  -2    0.78    0.39
   7   3   2    0.99    0.42
  -7   3  -2    0.47    0.55
   7  -3   2    1.07    0.60
   7   3   2    1.14    0.28
  -7  -3  -3  122.64    2.32
   7   3   3  123.43    2.34
  -7   3  -3  122.83    2.54
   7  -3   3  119.91    2.41
  -7  -3  -4    3.66    0.53
   7   3   4    2.91    0.39
  -7   3  -4    3.04    0.76
   7  -3   4    4.11    0.62
  -7  -3  -5    8.02    0.59
  -7   3  -5    8.25    1.03
   7   3   5    5.85    0.45
  -7  -3  -5    7.04    0.40
  -7  -3  -6   47.69    1.23
  -7   3  -6   47.59    1.60
   7   3   6   51.09    1.18
  -7  -3  -6   49.93    1.39
  -7  -3  -7   20.13    1.01
  -7   3  -7   19.23    1.38
   7   3   7   18.86    0.85
  -7  -3  -7   17.54    1.62
  -7  -3  -8   26.03    0.94
   7   3   8   23.21    0.77
  -7  -3  -8   25.40    1.00
  -7  -3  -9    1.83    0.51
  -7   3  -9    1.36    0.75
   7   3   9    0.99    0.27
  -7  -3  -9    0.39    0.23
  -7  -3 -10   15.12    1.03
  -7   3 -10   12.73    1.23
  -7  -3 -11    0.57    0.51
  -7   3 -11    1.54    0.97
  -7  -3 -12   12.61    0.98
  -7   3 -12   12.91    1.23
  -7  -3 -13    8.40    1.10
  -7   3 -13   10.23    1.61
  -7   3 -14    0.41    0.69
   7   5 -14    0.99    0.98
   7   5 -13    0.85    0.91
   7   5 -12    0.65    0.71
   7  -5 -11    0.12    0.08
   7   5 -11    0.54    0.63
   7  -5 -10    7.92    0.42
   7  -5 -10    6.80    0.36
   7   5 -10    8.83    1.09
   7  -5  -9    2.83    0.19
   7  -5  -9    2.57    0.20
   7   5  -9    3.23    0.75
   7  -5  -8    9.56    0.33
   7   5  -8    9.38    1.06
   7  -5  -8   10.07    0.33
  -7   5   7   13.04    0.83
   7  -5  -7   13.75    0.55
   7   5  -7   13.76    1.13
  -7   5   6    6.42    0.35
   7  -5  -6    6.61    0.40
   7   5  -6    5.92    0.93
  -7   5   5   19.69    0.61
   7  -5  -5   19.33    0.58
   7   5  -5   20.88    1.22
  -7   5   5   23.54    3.42
  -7   5   4    2.07    0.39
   7  -5  -4    1.31    0.27
   7   5  -4    1.57    0.59
  -7   5   4    2.92    0.89
   7   5  -3    0.57    0.32
  -7   5   3    1.44    0.41
   7  -5  -3    0.82    0.28
   7   5  -3    2.22    0.68
  -7   5   3    1.77    0.72
   7   5  -2    0.22    0.33
  -7   5   2    0.44    0.39
   7  -5  -2    0.13    0.26
   7   5  -2    0.11    0.46
  -7   5   2    0.46    0.80
  -7  -5   1   14.14    1.21
   7   5  -1   14.44    0.60
  -7   5   1   13.35    0.75
   7  -5  -1   14.19    0.62
  -7  -5   0    2.96    0.83
   7   5   0    2.72    0.43
  -7   5   0    2.66    0.55
   7  -5   0    3.03    0.39
  -7  -5  -1    4.20    0.84
   7   5   1    2.76    0.36
  -7   5  -1    3.87    0.80
   7  -5   1    3.93    0.62
  -7  -5  -2   28.25    0.78
   7   5   2   26.75    0.75
  -7   5  -2   25.23    1.12
   7   5   2   26.75    0.79
  -7  -5  -3   12.81    0.58
   7   5   3   11.83    0.54
  -7   5  -3   13.37    1.06
   7   5   3   13.67    2.05
  -7  -5  -4   11.59    0.57
   7   5   4   11.41    0.63
  -7   5  -4   13.16    1.50
   7   5   4    9.81    1.49
  -7  -5  -5    0.36    0.27
   7   5   5    0.14    0.25
  -7   5  -5    0.07    0.71
  -7  -5  -6    5.98    0.38
  -7   5  -6    7.26    1.12
   7   5   6    7.10    0.44
  -7   5  -7   17.96    1.44
   7   5   7   16.49    0.83
   7   5   8    0.31    0.22
  -7   5  -9   10.15    1.17
  -7  -5 -10    1.78    0.30
  -7   5 -10    1.61    0.66
  -7   5 -11    2.71    1.03
  -7   5 -12    0.41    0.75
  -7   5 -13    0.83    0.76
   7   7 -13    0.81    0.89
   7   7 -12    0.33    0.64
   7   7 -11   -0.08    0.65
   7   7 -10    6.75    1.39
   7   7  -9    7.16    1.06
   7   7  -8    8.48    1.00
   7   7  -7   22.50    1.59
  -7   7   6   17.96    0.72
   7   7  -6   19.34    1.30
  -7   7   6   18.73    3.00
  -7   7   5    6.28    0.45
   7  -7  -5    6.16    0.40
   7   7  -5    8.12    0.96
  -7   7   5    7.19    1.87
  -7   7   4    0.32    0.41
   7  -7  -4    0.44    0.27
   7   7  -4   -0.02    0.61
  -7   7   4    0.60    0.52
  -7   7   3    2.86    0.65
   7  -7  -3    1.72    0.28
   7   7  -3    1.46    0.70
  -7   7   3    3.47    1.14
  -7   7   2    0.20    0.47
   7  -7  -2    0.34    0.27
   7   7  -2    0.13    0.49
  -7   7   2    0.88    0.73
   7   7  -1    0.51    0.36
   7  -7  -1    0.84    0.45
   7   7  -1    0.93    0.46
   7   7   0   10.10    0.55
  -7   7   0   12.28    1.01
   7   7   1    0.54    0.36
  -7   7  -1   -0.03    0.52
   7   7   1    0.60    0.48
   7   7   2   24.93    0.77
  -7   7  -2   27.26    1.39
   7   7   2   26.04    0.81
   7   7   2   27.70    1.07
   7   7   3   25.40    1.22
  -7   7  -3   28.60    1.81
   7   7   3   27.22    1.29
   7   7   3   29.12    3.33
   7   7   4    6.42    0.46
  -7   7  -4    7.08    0.91
   7   7   4    6.75    0.50
   7   7   4    7.81    0.98
   7   7   5   13.18    0.66
  -7   7  -5   14.30    1.18
   7   7   5   14.95    0.72
  -7   7  -6   39.63    2.38
   7   7   6   35.31    1.56
   7   7   6   30.72    1.36
  -7   7  -7   11.67    1.13
  -7   7  -8    3.86    0.93
  -7   7  -9    1.15    0.72
  -7   7 -10    3.90    1.10
  -7   7 -11    0.20    0.70
   7   9 -10    1.57    1.10
   7   9  -9    0.71    0.67
   7   9  -8   -0.34    0.60
   7   9  -7    0.16    0.61
  -7   9   7    0.22    0.39
   7   9  -6    1.07    0.56
  -7   9   6    0.84    0.45
   7   9  -5    1.61    0.59
  -7   9   5    0.94    0.56
  -7   9   4   15.28    0.62
   7   9  -4   16.36    1.07
  -7   9   4   17.26    3.70
  -7   9   3   18.49    0.80
   7   9  -3   20.50    1.18
  -7   9   3   20.81    2.07
  -7   9   2    8.15    0.72
   7   9  -2    8.69    0.79
  -7   9   2   10.45    1.20
  -7   9   1   32.32    1.27
   7   9  -1   29.75    1.12
  -7   9   1   30.75    1.69
  -7   9   0   58.82    1.57
   7   9   0   56.31    1.41
  -7   9  -1   25.42    1.23
   7   9   1   21.83    0.86
  -7   9  -2    6.56    0.85
   7   9   2    6.46    0.58
   7   9   2    6.75    0.78
  -7   9  -3    4.41    0.92
   7   9   3    5.45    0.44
   7   9   3    5.09    1.29
  -7   9  -4    0.29    0.59
   7   9   4    0.31    0.22
   7   9   4    0.87    0.69
  -7   9  -5    1.25    0.99
   7   9   5   -0.13    0.34
  -7   9  -6    3.54    0.80
  -7   9  -7    1.36    0.70
  -7   9  -8    0.63    0.80
   7  11  -5    1.64    0.76
  -7  11   5    4.10    1.66
   7  11  -4    0.97    0.71
  -7  11   4    1.56    0.93
   7  11  -3    1.29    0.76
  -7  11   3    1.99    0.82
   7  11  -2    1.48    0.62
  -7  11   2    1.79    0.90
  -7  11   1    3.20    0.76
   7  11  -1    3.82    0.77
  -7  11   1    4.49    1.30
  -7  11   0    2.96    0.78
   7  11   0    3.80    0.73
  -7  11   0    2.80    1.23
  -7  11  -1    1.01    0.50
   7  11   1    1.40    0.73
  -7  11  -2    2.11    0.72
   7  11   2    1.47    0.66
  -7  11  -3    1.68    0.66
   7  11   3    1.43    0.66
  -7  11  -4    0.55    0.80
   7  11   4    0.35    0.21
   8   0 -16    0.23    0.50
   8   0 -15    0.23    0.46
   8   0 -14    0.48    0.41
   8   0 -13    1.64    0.62
   8   0 -12    0.39    0.47
   8   0 -11   13.46    1.22
   8   0 -10   37.38    1.23
   8   0  -9   19.09    1.19
   8   0  -8   36.58    1.10
   8   0  -8   35.79    1.18
  -8   0   7   39.01    1.80
   8   0  -7   36.85    0.95
  -8   0   6  497.78    7.75
   8   0  -6  496.76    8.17
  -8   0   5   13.53    0.72
   8   0  -5   11.97    0.69
  -8   0   4   79.61    1.26
   8   0  -4   77.71    1.14
  -8   0   3   11.46    0.59
   8   0  -3   13.62    0.60
  -8   0   2    6.33    0.47
   8   0  -2    6.19    0.53
  -8   0   1   31.78    0.79
   8   0  -1   32.24    0.78
   8   0  -1   33.58    0.59
  -8   0  -1    0.13    0.48
   8   0   1    0.12    0.49
  -8   0  -1    0.07    0.11
  -8   0  -2    5.40    0.47
   8   0   2    5.54    0.48
  -8   0  -3   11.81    0.76
   8   0   3   12.77    0.67
  -8   0  -4    3.60    0.64
   8   0   4    2.50    0.40
  -8   0  -5   45.33    1.44
   8   0   5   45.05    1.23
   8   0   6   85.63    1.42
  -8   0  -7   11.54    1.12
  -8   0  -8   12.00    1.09
  -8   0  -9    2.77    0.81
  -8   0 -10    4.32    0.78
  -8   0 -11    4.05    0.79
  -8   0 -12   21.49    1.60
  -8   0 -13    0.39    0.47
  -8   0 -14    0.13    0.50
   8  -2 -15    0.57    0.34
   8   2 -15    0.46    0.53
   8  -2 -14    0.81    0.48
   8   2 -14    0.70    0.52
   8  -2 -13    0.76    0.48
   8   2 -13    0.46    0.55
   8  -2 -12    0.95    0.44
   8   2 -12    0.59    0.48
   8  -2 -11    1.51    0.31
   8  -2 -11    2.37    0.45
   8   2 -11    1.62    0.54
   8  -2 -10    4.22    0.50
   8   2 -10    3.96    0.80
   8  -2 -10    4.65    0.61
   8  -2  -9   -0.08    0.23
   8   2  -9    0.36    0.56
   8  -2  -9    0.62    0.33
   8  -2  -8   11.30    0.63
   8   2  -8    9.91    0.82
  -8   2   7    1.32    0.35
   8  -2  -7    0.85    0.25
   8   2  -7    1.09    0.68
  -8  -2   6    0.30    0.37
  -8   2   6    0.64    0.31
   8   2  -6    0.62    0.34
   8  -2  -6    0.98    0.53
   8  -2  -6    0.29    0.17
  -8  -2   5    8.23    1.33
   8   2  -5    6.42    0.51
  -8   2   5    6.50    0.46
   8  -2  -5    6.03    0.44
   8  -2  -5    5.61    1.34
  -8  -2   4   -0.11    0.41
   8   2  -4    0.27    0.52
  -8   2   4    0.57    0.43
   8  -2  -4    0.27    0.35
   8  -2  -4    0.32    0.22
  -8  -2   3    0.22    0.43
   8   2  -3   -0.05    0.32
  -8   2   3    0.27    0.32
   8  -2  -3    0.34    0.37
   8  -2  -3    0.08    0.23
  -8  -2   2    7.33    0.60
   8   2  -2    7.47    0.49
  -8   2   2    7.03    0.45
   8  -2  -2    7.30    0.55
  -8   2   2    6.86    1.61
   8  -2  -2    8.14    0.53
  -8  -2   1    1.82    0.37
   8   2  -1    2.02    0.28
  -8   2   1    2.37    0.50
   8  -2  -1    2.43    0.41
  -8   2   1    3.04    0.60
  -8  -2   0  137.39    1.55
   8   2   0  143.30    1.59
  -8   2   0  137.93    1.75
   8  -2   0  138.46    1.67
  -8  -2  -1    0.91    0.25
   8   2   1    0.59    0.58
  -8   2  -1    0.70    0.59
   8  -2   1    0.80    0.50
   8   2   1    0.65    0.09
  -8  -2  -2    6.91    0.54
   8   2   2    7.22    0.51
  -8   2  -2    7.27    0.92
   8  -2   2    7.51    0.61
  -8  -2  -3   23.12    0.86
   8   2   3   24.47    0.85
  -8   2  -3   25.20    1.13
   8  -2   3   25.45    1.04
  -8  -2  -4    3.35    0.47
   8   2   4    2.58    0.48
  -8   2  -4    2.83    0.59
   8  -2   4    2.64    0.42
  -8  -2  -4    3.09    0.60
  -8  -2  -5   10.68    0.66
  -8   2  -5   11.24    1.02
   8   2   5   10.62    0.59
  -8  -2  -5   10.63    1.17
  -8  -2  -6   30.81    1.07
  -8   2  -6   32.65    1.37
   8   2   6   32.04    1.00
  -8  -2  -6   32.07    0.82
  -8  -2  -7    9.73    0.85
  -8   2  -7    8.26    1.28
   8   2   7    7.24    0.59
  -8  -2  -8    0.48    0.48
  -8   2  -8    0.29    0.74
   8   2   8   -0.20    0.28
  -8  -2  -9   -0.19    0.47
  -8   2  -9    0.48    0.71
  -8  -2 -10    2.36    0.70
  -8   2 -10    2.68    0.78
  -8  -2 -11    5.07    0.79
  -8   2 -11    3.61    0.91
  -8  -2 -12    3.10    0.73
  -8   2 -12    2.79    0.85
  -8  -2 -13    1.34    0.66
  -8   2 -13    0.47    0.69
  -8  -2 -14    0.43    0.42
  -8   2 -14    1.23    0.65
   8   4 -15    0.42    0.59
   8   4 -14    0.24    0.58
   8  -4 -13    1.17    0.38
   8   4 -13    1.17    0.58
   8  -4 -12    0.31    0.21
   8   4 -12    0.65    0.60
   8  -4 -11    0.84    0.26
   8  -4 -11    0.33    0.19
   8   4 -11    1.11    0.63
   8  -4 -10    3.76    0.41
   8   4 -10    2.86    0.89
   8  -4 -10    3.58    0.40
   8  -4  -9    3.66    0.40
   8   4  -9    3.47    0.75
   8  -4  -9    3.56    0.36
   8  -4  -8    1.30    0.46
   8   4  -8    0.39    0.63
   8  -4  -8    0.68    0.24
  -8   4   7    8.37    1.28
   8  -4  -7    8.24    0.50
   8   4  -7    7.43    1.09
  -8   4   6    2.90    0.38
   8  -4  -6    3.36    0.42
   8   4  -6    2.59    0.89
  -8   4   5    1.44    0.30
   8  -4  -5    1.43    0.30
   8   4  -5    0.96    0.77
  -8  -4   4    1.35    0.35
   8   4  -4    0.81    0.29
  -8   4   4    0.89    0.41
   8  -4  -4    0.94    0.28
  -8   4   4    0.54    0.61
  -8  -4   3   -0.19    0.46
   8   4  -3    0.07    0.30
  -8   4   3    0.08    0.32
   8  -4  -3    0.10    0.28
  -8   4   3    0.92    0.47
  -8  -4   2    0.78    0.37
   8   4  -2    0.60    0.31
  -8   4   2    0.04    0.37
   8  -4  -2    0.54    0.45
  -8   4   2    0.24    0.35
  -8  -4   1    0.49    0.40
   8   4  -1    0.34    0.39
  -8   4   1   -0.05    0.65
   8  -4  -1    0.10    0.33
  -8   4   1    0.15    0.48
  -8  -4   0   17.60    0.72
  -8   4   0   16.32    0.82
   8  -4   0   17.86    0.80
  -8  -4  -1    1.56    0.43
   8   4   1    1.40    0.33
  -8   4  -1    1.81    0.59
   8  -4   1    1.07    0.27
  -8  -4  -2   25.16    0.80
   8   4   2   25.18    0.71
  -8   4  -2   25.74    1.11
   8  -4   2   25.68    0.83
   8   4   2   25.69    0.77
  -8  -4  -3   24.71    0.73
   8   4   3   26.64    0.80
  -8   4  -3   24.99    1.11
   8   4   3   26.33    0.75
  -8  -4  -4    0.72    0.39
   8   4   4    0.48    0.41
  -8   4  -4    0.17    0.78
  -8  -4  -5    5.94    0.55
   8   4   5    5.77    0.47
  -8   4  -5    5.78    1.03
  -8  -4  -6   88.27    2.48
  -8   4  -6   77.62    2.75
   8   4   6   86.74    2.50
  -8  -4  -7   12.82    0.62
  -8   4  -7   13.52    1.35
   8   4   7   11.65    0.58
  -8  -4  -8    3.95    0.52
  -8   4  -8    3.92    1.16
   8   4   8    3.62    0.42
  -8  -4  -8    3.71    0.41
  -8  -4  -9    0.46    0.38
  -8   4  -9    0.68    0.74
   8   4   9    0.39    0.19
  -8  -4  -9    0.42    0.26
  -8  -4 -10    5.07    0.50
  -8   4 -10    7.10    1.03
  -8  -4 -11    1.53    0.45
  -8   4 -11    1.50    0.99
  -8  -4 -12    0.52    0.34
  -8   4 -13    2.00    0.76
   8   6 -13    0.70    0.64
   8   6 -12    0.41    0.85
   8   6 -11    0.82    0.96
   8   6 -10   10.00    1.13
   8   6  -9    1.68    0.65
   8   6  -8    1.14    0.64
  -8   6   7   10.02    0.59
   8  -6  -7   10.88    0.54
   8   6  -7   12.77    1.55
  -8   6   6   36.78    0.65
   8  -6  -6   34.49    0.65
   8   6  -6   34.93    1.39
  -8   6   6   36.38    3.67
  -8   6   5    0.74    0.38
   8  -6  -5    1.15    0.47
   8   6  -5   -0.27    0.62
  -8   6   5   -0.76    0.75
  -8   6   4   20.08    0.87
   8  -6  -4   23.50    0.90
   8   6  -4   20.16    1.23
  -8   6   4   26.04    3.83
  -8   6   3   12.79    0.80
   8  -6  -3   11.48    0.69
   8   6  -3   11.71    1.13
  -8   6   3   15.52    3.84
  -8   6   2    6.34    0.61
   8  -6  -2    6.92    0.63
   8   6  -2    7.55    0.72
  -8   6   2    6.12    0.99
   8   6  -1   36.03    1.30
  -8   6   1   39.05    1.52
   8  -6  -1   38.32    1.39
   8   6  -1   39.31    1.50
  -8   6   1   43.34    1.98
  -8  -6   0  184.82    4.99
   8   6   0  179.67    4.84
  -8   6   0  196.61    5.49
   8  -6   0  177.84    4.78
  -8  -6  -1   18.44    1.44
   8   6   1   19.06    0.85
  -8   6  -1   20.82    1.18
  -8  -6  -2    4.73    1.09
   8   6   2    5.36    0.58
  -8   6  -2    5.21    1.02
   8   6   2    5.58    0.63
  -8  -6  -3   31.84    1.90
   8   6   3   33.24    1.18
  -8   6  -3   32.12    1.59
   8   6   3   32.85    1.50
  -8  -6  -4   13.12    0.61
   8   6   4   16.29    0.62
  -8   6  -4   14.96    1.43
   8   6   4   13.91    1.44
  -8  -6  -5    2.52    0.29
   8   6   5    2.85    0.34
  -8   6  -5    2.65    0.80
  -8   6  -6    2.06    1.08
   8   6   6    0.86    0.22
  -8  -6  -7    5.31    0.42
  -8   6  -7    5.55    1.09
   8   6   7    4.74    0.39
  -8  -6  -8    4.09    0.28
  -8   6  -8    5.07    1.03
  -8  -6  -9    0.20    0.09
  -8   6  -9    0.91    0.74
  -8   6 -10    0.64    0.70
  -8   6 -11    0.26    0.72
  -8   6 -12   12.71    1.70
   8   8 -11    1.57    1.05
   8   8 -10    0.33    0.70
   8   8  -9    1.35    0.64
   8   8  -8    5.56    0.90
   8   8  -7    1.90    0.88
   8   8  -6    0.75    0.81
  -8   8   6    2.37    0.87
  -8   8   5    6.07    0.39
   8   8  -5    6.52    1.09
   8  -8  -5    5.70    0.38
  -8   8   5    6.72    1.43
  -8   8   4    3.79    0.51
   8   8  -4    4.67    1.12
   8  -8  -4    3.22    0.38
  -8   8   4    4.37    1.35
  -8   8   3    3.35    0.62
   8  -8  -3    2.90    0.36
   8   8  -3    1.94    0.73
  -8   8   3    3.77    1.03
  -8   8   2    1.33    0.54
   8  -8  -2    0.52    0.28
   8   8  -2    0.24    0.46
  -8   8   2    1.11    0.74
  -8   8   1    2.96    0.60
   8   8  -1    3.54    0.66
  -8   8   1    3.80    1.07
  -8   8   0    0.80    0.54
   8   8   0    0.02    0.39
   8   8   1    0.57    0.34
  -8   8  -1   -0.10    0.54
   8   8   1    0.01    0.32
   8   8   2    0.16    0.30
  -8   8  -2    0.43    0.52
   8   8   2    0.53    0.41
   8   8   2    0.18    0.38
   8   8   3    0.62    0.31
  -8   8  -3    0.54    0.58
   8   8   3    0.37    0.33
   8   8   3   -0.24    0.39
  -8   8  -4    0.75    0.60
   8   8   4    0.10    0.20
   8   8   4    0.57    0.45
  -8   8  -5    0.01    0.69
   8   8   5    0.30    0.18
   8   8   5    0.70    0.48
  -8   8  -6    6.20    0.99
  -8   8  -7    4.21    0.85
  -8   8  -8    1.28    1.03
  -8   8  -9    2.31    1.10
  -8   8 -10    1.86    1.14
   8  10  -8   -0.25    0.60
   8  10  -7    1.33    1.05
  -8  10   7   -0.39    0.62
   8  10  -6    0.08    0.60
  -8  10   6    1.00    0.59
   8  10  -5    0.15    0.51
  -8  10   5    1.38    0.90
   8  10  -4   -0.16    0.52
  -8  10   4    0.42    0.34
  -8  10   3    0.10    0.26
   8  10  -3    1.35    0.64
  -8  10   3    1.02    0.90
  -8  10   2    0.77    0.62
   8  10  -2    0.37    0.69
  -8  10   2    0.59    0.71
  -8  10   1    1.40    0.72
   8  10  -1    1.74    0.60
  -8  10   1    1.41    0.74
  -8  10   0    1.06    0.43
  -8  10   0    1.65    0.78
  -8  10  -1    0.76    0.64
   8  10   1    0.27    0.27
   8  10   1    0.46    0.48
  -8  10  -2    3.35    0.90
   8  10   2    2.62    0.46
   8  10   2    1.96    0.62
  -8  10  -3    2.79    0.94
   8  10   3    0.83    0.37
  -8  10  -4    0.83    0.63
   8  10   4    0.63    0.70
  -8  10  -5    8.83    1.41
   8  10   5    5.95    2.04
  -8  10  -6   14.03    1.66
   9  -1 -16    0.47    0.41
   9   1 -16    1.68    0.95
   9  -1 -15   -0.11    0.38
   9   1 -15    0.16    0.51
   9  -1 -14    1.07    0.42
   9   1 -14    1.36    0.71
   9   1 -13    0.96    0.47
   9  -1 -13    1.13    0.59
   9   1 -12    2.08    0.58
   9  -1 -12    3.67    0.64
   9  -1 -11    2.03    0.61
   9   1 -11    1.43    0.51
   9  -1 -10    7.88    0.76
   9   1 -10    7.22    0.77
   9  -1  -9   12.58    0.73
   9  -1  -9   14.48    0.87
  -9   1   8   22.00    1.30
   9  -1  -8   19.91    0.80
   9   1  -8   20.68    1.00
  -9  -1   7    0.74    0.33
  -9   1   7   -0.20    0.42
   9   1  -7    0.32    0.31
   9  -1  -7    0.12    0.25
  -9  -1   6   19.82    1.46
  -9   1   6   18.00    0.77
   9   1  -6   18.30    0.83
   9  -1  -6   18.63    0.74
  -9  -1   5   99.34    2.13
  -9   1   5  102.07    2.11
   9   1  -5  102.03    2.08
   9  -1  -5  101.10    2.03
  -9   1   4   41.16    0.91
   9   1  -4   39.88    0.91
   9  -1  -4   41.68    0.96
   9  -1  -4   39.55    1.14
  -9  -1   3   16.05    0.76
   9   1  -3   15.16    0.85
  -9   1   3   14.91    0.68
   9  -1  -3   13.63    0.60
   9  -1  -3   14.68    1.04
  -9   1   2   27.97    0.84
   9   1  -2   28.74    0.80
   9  -1  -2   29.13    0.80
   9  -1  -2   28.49    0.71
  -9  -1   1   17.54    0.71
  -9   1   1   18.56    0.74
   9   1  -1   18.53    0.65
   9  -1  -1   18.73    0.77
  -9   1   1   16.48    0.56
  -9  -1   0   11.01    0.61
   9   1   0   10.48    0.64
  -9   1   0   10.76    0.68
   9  -1   0   11.56    0.64
   9   1   0    9.88    0.44
  -9   1   0   10.11    0.48
  -9  -1  -1    6.63    0.70
  -9   1  -1    4.60    0.64
   9   1   1    5.67    0.49
   9  -1   1    4.87    0.53
  -9  -1  -2   60.87    1.19
  -9   1  -2   61.29    1.27
   9   1   2   62.62    1.21
   9  -1   2   65.18    1.28
  -9  -1  -3    4.96    0.53
  -9   1  -3    5.23    0.82
   9   1   3    4.85    0.60
   9  -1   3    4.03    0.51
  -9   1  -4   54.12    1.48
   9   1   4   54.90    1.37
   9  -1   4   55.22    1.43
  -9  -1  -5    3.84    0.57
  -9   1  -5    5.85    0.86
   9   1   5    4.52    0.52
   9  -1   5    4.89    0.51
  -9  -1  -6    6.01    0.78
  -9   1  -6    7.01    1.05
   9   1   6    5.39    0.74
  -9  -1  -7   11.05    0.88
  -9   1  -7   12.05    1.10
   9   1   7    9.39    0.76
  -9  -1  -8    4.21    0.85
  -9   1  -8    4.87    0.87
  -9  -1  -9    1.63    0.57
  -9   1  -9    2.12    0.89
  -9  -1 -10    3.35    0.70
  -9   1 -10    3.12    0.90
  -9  -1 -11    1.04    0.70
  -9   1 -11    2.57    0.86
  -9  -1 -12    0.16    0.52
  -9   1 -12    1.20    0.79
  -9  -1 -13    0.92    0.60
  -9   1 -13    1.00    0.83
  -9  -1 -14    0.40    0.61
  -9   1 -14    1.58    0.79
   9   3 -15    0.18    0.52
   9  -3 -14    0.54    0.49
   9   3 -14    1.01    0.58
   9  -3 -13   -0.12    0.28
   9   3 -13    0.75    0.75
   9  -3 -12    0.14    0.29
   9  -3 -11    4.49    0.45
   9  -3 -11    5.79    0.72
   9   3 -11    7.14    1.15
   9  -3 -10    6.22    0.50
   9   3 -10    5.36    0.81
   9  -3 -10    6.25    0.53
   9  -3  -9    5.18    0.51
   9  -3  -9    4.48    0.55
  -9   3   8    1.58    0.41
   9  -3  -8    2.07    0.42
   9   3  -8    2.25    0.91
  -9   3   7   13.05    0.64
   9  -3  -7   13.38    0.70
   9   3  -7   13.66    1.00
  -9  -3   6   75.02    3.96
  -9   3   6   77.47    1.18
   9  -3  -6   78.13    1.16
  -9  -3   5   10.12    1.97
   9   3  -5    8.40    0.60
  -9   3   5    9.47    0.54
   9  -3  -5    8.98    0.53
   9  -3  -5    7.14    1.65
  -9  -3   4   54.85    1.40
   9   3  -4   57.46    1.36
  -9   3   4   54.79    1.25
   9  -3  -4   56.83    1.30
   9  -3  -4   55.25    1.42
  -9  -3   3   81.41    1.84
   9   3  -3   84.52    1.85
  -9   3   3   76.63    1.65
   9  -3  -3   81.69    1.77
  -9   3   3   77.87    1.86
  -9  -3   2  138.80    2.72
   9   3  -2  147.31    2.76
  -9   3   2  142.92    2.81
   9  -3  -2  146.77    2.78
  -9  -3   1    4.53    0.52
   9   3  -1    4.71    0.67
  -9   3   1    4.18    0.74
   9  -3  -1    4.28    0.52
  -9   3   1    5.04    0.72
  -9  -3   0  112.65    2.23
   9   3   0  111.31    2.22
  -9   3   0  109.74    2.39
   9  -3   0  109.82    2.25
  -9  -3  -1   55.30    1.36
   9   3   1   60.32    1.43
  -9   3  -1   58.25    1.71
   9  -3   1   59.41    1.47
  -9  -3  -2   11.41    0.65
   9   3   2   11.86    0.68
  -9   3  -2   12.04    0.89
   9  -3   2   10.94    0.67
  -9  -3  -3    3.36    0.42
   9   3   3    3.25    0.51
  -9   3  -3    2.89    0.62
   9  -3   3    3.68    0.45
  -9  -3  -4   10.83    0.64
   9   3   4    9.22    0.64
  -9   3  -4   11.29    1.02
  -9  -3  -5   27.08    0.97
  -9   3  -5   27.77    1.62
   9   3   5   25.06    0.89
  -9   3  -6  136.50    4.12
   9   3   6  135.77    3.72
  -9  -3  -6  137.23    3.60
  -9  -3  -7    0.95    0.52
  -9   3  -7    0.52    0.85
   9   3   7    1.28    0.56
  -9  -3  -7    0.47    0.27
  -9  -3  -8   27.27    1.43
  -9   3  -8   25.52    1.66
   9   3   8   23.35    1.24
  -9  -3  -8   24.67    1.21
  -9  -3  -9   15.02    1.07
  -9   3  -9   16.18    1.44
   9   3   9   12.04    0.81
  -9  -3  -9    9.77    1.90
  -9  -3 -10   24.71    0.98
  -9   3 -10   27.02    1.43
  -9  -3 -11    1.74    0.57
  -9   3 -11    1.86    1.01
  -9  -3 -12    0.59    0.55
  -9   3 -12    0.79    0.98
  -9  -3 -13    2.70    0.61
  -9   3 -13    5.27    1.17
   9   5 -14    0.64    0.91
   9   5 -13    0.79    0.69
   9   5 -12    5.02    1.19
   9  -5 -11    0.50    0.26
   9   5 -11    0.65    0.69
   9  -5 -10    6.21    0.39
   9   5 -10    7.25    1.04
   9  -5 -10    7.45    0.39
   9  -5  -9   11.60    0.63
   9   5  -9   11.96    1.40
  -9   5   8    2.54    0.57
   9  -5  -8    2.23    0.26
   9   5  -8    2.09    0.57
  -9   5   7    2.16    0.37
   9  -5  -7    1.44    0.31
   9   5  -7    3.24    0.85
  -9   5   6    2.49    0.39
   9  -5  -6    2.03    0.33
   9   5  -6    2.51    0.61
  -9   5   5   27.90    1.00
   9  -5  -5   30.24    1.09
   9   5  -5   28.89    1.48
  -9   5   4   19.51    0.88
   9  -5  -4   19.91    0.79
   9   5  -4   19.19    1.11
  -9   5   4   21.04    2.65
  -9  -5   3   38.12    1.22
  -9   5   3   38.22    1.16
   9  -5  -3   39.20    1.07
  -9   5   3   37.74    1.47
   9   5  -2   25.85    0.88
  -9   5   2   25.39    1.03
   9  -5  -2   26.38    0.88
  -9   5   2   27.29    1.27
  -9  -5   1   12.66    1.88
   9   5  -1   12.84    0.77
  -9   5   1   11.75    0.88
   9  -5  -1   12.30    0.73
  -9   5   1   12.44    0.91
  -9  -5   0   38.72    1.13
   9   5   0   38.75    1.05
  -9   5   0   36.23    1.26
   9  -5   0   37.35    1.10
  -9  -5  -1    4.93    0.48
   9   5   1    4.81    0.53
  -9   5  -1    4.87    0.70
   9  -5   1    4.41    0.50
  -9  -5  -2   22.03    0.83
   9   5   2   23.09    0.84
  -9   5  -2   22.81    1.26
   9   5   2   21.59    0.77
  -9  -5  -3    9.31    0.63
   9   5   3    9.68    0.63
  -9   5  -3   10.41    1.14
   9   5   3   10.59    1.21
  -9  -5  -4    8.97    0.60
   9   5   4    8.49    0.63
  -9   5  -4    7.80    1.02
  -9  -5  -5    2.44    0.38
   9   5   5    1.72    0.39
  -9   5  -5    3.39    1.05
  -9  -5  -6    1.20    0.44
  -9   5  -6    1.73    0.76
   9   5   6    1.59    0.45
  -9  -5  -7    2.45    0.42
  -9   5  -7    2.64    1.03
   9   5   7    1.35    0.28
  -9  -5  -8    0.39    0.36
  -9   5  -8    0.53    0.77
  -9  -5  -9    3.32    0.40
  -9   5  -9    3.85    1.03
  -9  -5 -10    1.70    0.31
  -9   5 -10    1.41    0.71
  -9   5 -11    0.51    0.71
  -9   5 -12    0.31    0.73
   9   7 -12    1.51    0.68
   9   7 -11    1.81    1.01
   9   7 -10    2.93    1.02
   9   7  -9    4.68    0.87
   9   7  -8    1.51    0.66
  -9   7   7    0.31    0.14
   9  -7  -7    0.27    0.13
   9   7  -7    0.55    0.62
  -9   7   6    0.31    0.18
   9  -7  -6    0.24    0.17
   9   7  -6   -0.19    0.54
  -9   7   6    0.71    0.56
  -9   7   5    3.87    0.42
   9  -7  -5    3.84    0.37
   9   7  -5    3.38    0.64
  -9   7   5    4.06    1.10
  -9   7   4   17.75    1.00
   9  -7  -4   15.36    0.85
   9   7  -4   16.88    1.22
  -9   7   4   21.11    3.70
  -9   7   3    4.31    0.61
   9  -7  -3    4.24    0.40
   9   7  -3    3.74    0.91
  -9   7   3    3.64    0.98
  -9   7   2    2.56    0.64
   9  -7  -2    1.30    0.32
   9   7  -2    2.67    0.59
  -9   7   2    1.38    0.61
  -9   7   1   36.24    1.25
   9   7  -1   36.88    1.16
  -9   7   1   36.65    1.53
  -9   7   0   25.38    1.17
   9   7   0   22.75    0.91
   9   7   1   16.93    0.96
  -9   7  -1   18.24    1.34
   9   7   1   19.99    1.15
   9   7   2   28.68    1.40
  -9   7  -2   30.96    1.91
   9   7   2   31.41    1.60
  -9  -7  -3   31.68    1.82
   9   7   3   28.93    1.35
  -9   7  -3   33.90    1.89
   9   7   3   32.48    1.61
  -9  -7  -4   20.32    1.88
   9   7   4   19.43    0.99
  -9   7  -4   21.49    1.49
   9   7   4   20.55    2.22
  -9  -7  -5    2.58    0.60
   9   7   5    2.22    0.33
  -9   7  -5    1.88    1.00
  -9  -7  -6    1.38    0.47
  -9   7  -6    1.65    0.73
  -9   7  -7    1.90    0.80
  -9   7  -8    1.14    0.74
  -9   7  -9    1.38    0.72
  -9   7 -10    1.49    0.74
   9   9 -10    2.27    1.15
   9   9  -9    1.42    0.93
   9   9  -8    3.53    0.90
   9   9  -7    5.37    0.94
  -9   9   7    5.37    1.41
   9   9  -6   14.34    1.29
  -9   9   6   12.32    2.41
  -9   9   5    6.52    0.38
   9   9  -5    8.04    0.99
  -9   9   5    7.29    2.33
  -9   9   4    7.82    0.53
   9   9  -4    8.12    0.91
  -9   9   4    7.59    2.30
  -9   9   3   11.11    0.87
   9   9  -3    9.74    0.91
  -9   9   3   10.88    2.19
  -9   9   2    8.22    0.76
   9   9  -2    8.09    0.85
  -9   9   2    9.13    1.12
  -9   9   1   -0.08    0.51
   9   9  -1    0.49    0.44
  -9   9   1    0.61    1.01
  -9   9   0    7.28    1.01
   9   9   0    5.37    0.89
  -9   9  -1    0.75    0.67
   9   9   1    0.77    0.53
  -9   9  -2    5.01    1.12
   9   9   2    4.44    0.59
   9   9   2    4.69    0.76
  -9   9  -3    0.51    0.78
   9   9   3    0.34    0.19
   9   9   3    0.62    0.35
  -9   9  -4    0.79    0.65
   9   9   4    0.76    0.40
  -9   9  -5    7.66    1.05
  -9   9  -6   18.05    2.34
  -9   9  -7    6.64    1.49
  -9   9  -8    3.32    1.02
   9  11  -4    2.16    0.59
  -9  11   4    4.57    1.74
   9  11  -3    1.38    0.66
  -9  11   3    1.60    0.91
   9  11  -2    4.73    0.93
  -9  11   2    3.52    1.41
  -9  11   1    1.33    0.55
   9  11  -1    1.12    0.40
  -9  11   1    2.02    0.91
  -9  11   0    1.36    0.56
   9  11   0    0.23    0.28
  -9  11   0   -0.06    0.78
  -9  11  -1    1.07    0.66
   9  11   1    0.86    0.44
  -9  11  -1    2.02    0.82
  -9  11  -2    0.90    0.51
   9  11   2    1.29    0.52
  10   0 -15    0.68    0.61
  10   0 -14    1.42    0.65
  10   0 -13    2.01    0.66
  10   0 -12    2.21    0.75
  10   0 -11    1.05    0.52
  10   0 -10    7.09    0.74
  10   0  -9    3.20    0.66
 -10   0   8   15.09    1.87
 -10   0   7   16.02    2.56
  10   0  -7   14.33    0.67
 -10   0   6   93.69    2.05
  10   0  -6   88.17    1.82
 -10   0   5    4.27    0.58
  10   0  -5    3.57    0.56
 -10   0   4   45.78    1.27
  10   0  -4   46.00    1.22
 -10   0   3   11.29    0.77
  10   0  -3   11.32    0.64
 -10   0   2   45.04    1.16
  10   0  -2   45.68    1.01
  10   0  -2   47.27    0.94
 -10   0   1  108.32    1.52
  10   0  -1  111.07    1.52
  10   0  -1  106.80    1.35
 -10   0   0  159.76    1.93
  10   0   0  164.79    1.91
 -10   0  -1    0.00    0.50
  10   0   1    0.96    0.44
 -10   0  -2   23.81    1.03
  10   0   2   24.63    0.91
 -10   0  -3    0.46    0.63
  10   0   3    0.19    0.40
 -10   0  -4   79.92    1.61
  10   0   4   81.37    1.43
 -10   0  -5  118.74    2.43
  10   0   5  114.69    1.71
 -10   0  -7    2.25    0.71
 -10   0  -8   68.73    3.16
 -10   0  -9  100.32    2.01
 -10   0 -10   95.82    2.10
 -10   0 -11    1.50    0.82
 -10   0 -12    3.05    0.75
 -10   0 -13    1.22    0.77
  10  -2 -15    0.65    0.37
  10   2 -15    0.76    0.54
  10  -2 -14    0.12    0.31
  10   2 -14    0.94    0.58
  10  -2 -13    1.24    0.54
  10   2 -13    0.74    0.57
  10   2 -12    3.22    0.72
  10  -2 -12    1.78    0.42
  10   2 -11    0.98    0.56
  10  -2 -11    0.09    0.33
  10  -2 -10    2.42    0.37
  10   2 -10    2.05    0.70
  10  -2 -10    2.96    0.59
  10  -2  -9    0.66    0.30
  10   2  -9    0.87    0.80
 -10   2   8    7.38    1.27
  10  -2  -8    6.87    0.58
  10   2  -8    7.18    0.85
 -10  -2   7    0.81    0.39
 -10   2   7    0.86    0.34
  10  -2  -7    0.68    0.36
 -10  -2   6   11.84    1.99
 -10   2   6    9.72    0.59
  10  -2  -6   10.24    0.64
 -10  -2   5   44.11    1.69
  10   2  -5   41.85    1.17
 -10   2   5   43.08    1.16
  10  -2  -5   42.34    1.13
  10  -2  -5   42.26    1.24
 -10  -2   4    7.58    0.65
  10   2  -4    7.26    0.55
 -10   2   4    6.81    0.60
  10  -2  -4    6.90    0.50
  10  -2  -4    5.91    1.08
 -10  -2   3    6.55    0.69
  10   2  -3    5.00    0.48
 -10   2   3    5.78    0.77
  10  -2  -3    4.81    0.57
  10  -2  -3    4.82    0.58
 -10  -2   2    2.55    0.51
  10   2  -2    3.27    0.59
 -10   2   2    2.59    0.50
  10  -2  -2    3.44    0.65
 -10   2   2    3.04    0.67
 -10  -2   1  146.48    2.77
  10   2  -1  150.55    2.80
 -10   2   1  147.47    2.87
  10  -2  -1  148.10    2.84
 -10   2   1  146.30    3.03
 -10  -2   0   22.34    0.92
  10   2   0   22.35    0.95
 -10   2   0   20.49    1.05
  10  -2   0   22.69    0.91
 -10   2   0   22.36    0.80
 -10  -2  -1   39.08    1.15
  10   2   1   40.83    1.16
 -10   2  -1   36.91    1.36
  10  -2   1   39.09    1.16
 -10  -2  -2  157.30    2.98
  10   2   2  160.79    3.06
 -10   2  -2  162.14    3.20
  10  -2   2  154.42    3.00
  10   2   3   53.67    1.35
 -10   2  -3   51.43    1.55
  10  -2   3   54.23    1.45
 -10  -2  -4  105.54    1.60
 -10   2  -4  103.47    1.91
  10   2   4  101.43    1.52
 -10  -2  -5    1.38    0.48
 -10   2  -5    2.05    0.58
  10   2   5    1.35    0.37
 -10  -2  -5    1.76    0.38
 -10  -2  -6    2.75    0.50
 -10   2  -6    3.06    0.88
  10   2   6    3.03    0.54
 -10  -2  -6    2.59    0.62
 -10  -2  -7    3.14    0.69
 -10   2  -7    4.08    0.93
  10   2   7    1.93    0.38
 -10  -2  -7    2.42    0.52
 -10  -2  -8    0.47    0.44
 -10   2  -8    0.47    0.74
 -10  -2  -8    0.12    0.12
 -10  -2  -9    9.48    0.96
 -10  -2 -10    5.31    0.87
 -10   2 -10    4.18    0.88
 -10  -2 -11    2.64    0.65
 -10   2 -11    3.03    0.95
 -10  -2 -12    0.74    0.43
 -10   2 -12    1.36    0.95
 -10  -2 -13    0.29    0.46
 -10   2 -13    1.22    0.98
  10   4 -15    1.16    0.62
  10   4 -14    0.25    0.59
  10  -4 -13    0.97    0.36
  10   4 -13    0.97    0.62
  10  -4 -12    3.42    0.49
  10   4 -12    4.55    0.93
  10  -4 -11    0.62    0.29
  10   4 -11    0.99    0.58
  10  -4 -10    0.98    0.38
  10   4 -10    1.24    0.63
  10  -4 -10    0.42    0.32
 -10   4   9    4.10    1.04
  10  -4  -9    2.59    0.35
  10   4  -9    3.65    0.70
 -10   4   8    2.04    0.50
  10   4  -8    2.44    0.77
 -10   4   7    2.25    0.39
  10  -4  -7    2.81    0.44
  10   4  -7    2.07    0.88
 -10   4   6    0.64    0.29
  10  -4  -6    0.38    0.44
  10   4  -6    0.75    0.67
 -10  -4   5    0.86    0.33
 -10   4   5    1.07    0.60
  10  -4  -5    0.91    0.43
 -10  -4   4    0.94    0.32
 -10   4   4    0.30    0.33
  10  -4  -4    0.47    0.49
 -10   4   4    0.59    0.49
 -10  -4   3   12.68    2.48
  10   4  -3   10.91    0.61
 -10   4   3   12.21    0.67
  10  -4  -3   11.41    0.60
 -10   4   3   12.93    1.98
 -10  -4   2    0.41    0.50
  10   4  -2    0.43    0.32
 -10   4   2   -0.11    0.46
  10  -4  -2    0.20    0.34
 -10   4   2    0.68    0.38
 -10  -4   1   69.63    1.28
  10   4  -1   72.52    1.25
 -10   4   1   73.12    1.56
  10  -4  -1   70.31    1.24
 -10   4   1   72.09    1.54
  10   4   0   22.91    0.76
 -10   4   0   24.05    1.02
  10  -4   0   22.85    0.91
 -10  -4  -1   48.57    1.10
 -10   4  -1   51.20    1.32
 -10  -4  -2   83.00    1.67
  10   4   2   82.53    1.68
 -10   4  -2   82.95    2.07
  10   4   2   83.26    1.38
 -10  -4  -3  153.01    2.57
  10   4   3  156.16    2.67
 -10   4  -3  151.17    3.05
 -10  -4  -4   63.07    1.96
  10   4   4   59.57    1.87
 -10   4  -4   68.95    2.60
 -10  -4  -5    0.18    0.37
  10   4   5    0.74    0.48
 -10   4  -5    0.77    0.82
 -10  -4  -6    0.83    0.44
 -10   4  -6   -0.69    0.80
  10   4   6    1.28    0.61
 -10  -4  -7    1.79    0.39
 -10   4  -7    1.80    0.72
  10   4   7    1.11    0.30
 -10  -4  -8    0.52    0.44
 -10   4  -8    0.96    0.95
  10   4   8    0.66    0.36
 -10  -4  -9    0.85    0.43
 -10   4  -9    1.49    1.06
 -10  -4 -10    1.23    0.42
 -10   4 -10    1.03    0.78
 -10  -4 -11    2.92    0.49
 -10   4 -11    2.20    1.08
 -10  -4 -12    0.58    0.40
  10   6 -13    0.48    0.62
  10   6 -12    0.82    0.60
  10   6 -11    0.94    0.65
  10  -6 -10    0.47    0.11
  10   6 -10    0.66    0.58
  10  -6  -9    0.25    0.18
  10   6  -9    0.75    0.91
  10  -6  -9    0.61    0.20
 -10   6   8    0.32    0.18
  10  -6  -8    1.15    0.30
  10   6  -8    0.78    0.68
 -10   6   7   12.61    0.70
  10  -6  -7   13.15    0.70
  10   6  -7   11.29    1.07
 -10   6   6   30.48    1.43
  10  -6  -6   29.39    1.37
  10   6  -6   28.22    1.74
 -10   6   6   32.92    4.05
 -10   6   5   12.58    0.61
  10  -6  -5   13.80    0.55
  10   6  -5   13.39    1.28
 -10   6   5   11.85    2.65
 -10   6   4    6.78    0.59
  10  -6  -4    6.53    0.56
  10   6  -4    7.40    1.01
 -10   6   4    7.20    1.93
 -10   6   3   15.77    0.94
  10  -6  -3   13.36    0.72
  10   6  -3   14.62    1.01
 -10   6   3   17.36    2.17
 -10  -6   2   28.23    1.28
 -10   6   2   28.65    1.30
  10  -6  -2   27.45    1.14
 -10   6   2   27.69    1.61
 -10  -6   1   11.97    2.36
 -10   6   1   12.68    0.95
  10  -6  -1   10.91    0.79
 -10   6   1   11.50    1.15
 -10  -6   0   18.87    0.95
  10   6   0   18.35    0.89
 -10   6   0   20.85    1.24
 -10  -6  -1    1.80    0.47
  10   6   1    0.47    0.34
 -10   6  -1    1.35    0.81
 -10  -6  -2    0.37    0.34
  10   6   2    0.90    0.44
 -10   6  -2    0.76    0.67
  10   6   2    0.23    0.31
 -10  -6  -3    2.68    0.39
  10   6   3    2.63    0.51
 -10   6  -3    2.69    0.65
  10   6   3    3.03    0.85
 -10  -6  -4    7.79    0.69
  10   6   4    4.97    0.44
 -10   6  -4    8.47    1.28
 -10  -6  -5   21.11    1.07
  10   6   5   16.87    0.93
 -10   6  -5   23.26    1.66
 -10  -6  -6   16.34    0.93
 -10   6  -6   16.58    1.47
  10   6   6   13.89    0.82
 -10  -6  -7   14.05    0.57
 -10   6  -7   13.43    1.26
 -10   6  -8    8.37    1.09
 -10   6  -9   28.87    1.98
 -10   6 -10   39.14    1.83
 -10   6 -11    0.18    0.68
  10   8 -11    1.03    0.99
  10   8 -10    1.32    0.98
  10   8  -9    0.79    0.64
  10   8  -8    2.03    0.73
  10   8  -7    1.98    0.61
 -10   8   6    5.52    0.33
  10   8  -6    6.54    0.94
 -10   8   6    6.90    1.40
 -10   8   5   18.21    0.70
  10   8  -5   19.65    1.18
 -10   8   5   20.40    5.07
 -10   8   4    4.31    0.48
  10  -8  -4    3.12    0.38
  10   8  -4    3.79    0.81
 -10   8   4    3.66    1.11
 -10   8   3    8.12    0.82
  10   8  -3    8.17    0.86
 -10   8   3    6.66    1.91
 -10   8   2    9.89    0.94
  10   8  -2    9.42    0.99
 -10   8   2    9.26    1.28
 -10   8   1   15.32    1.18
  10   8  -1   14.21    1.06
 -10   8   1   15.88    1.38
 -10   8   0   10.16    0.98
  10   8   0   10.51    0.91
 -10   8  -1    8.80    0.99
  10   8   1    9.30    0.80
 -10   8  -2    6.83    0.82
  10   8   2    7.43    0.69
  10   8   2    8.07    0.97
 -10   8  -3    1.55    0.65
  10   8   3    2.26    0.42
  10   8   3    2.66    0.90
 -10   8  -4   11.71    1.20
  10   8   4   11.56    0.57
  10   8   4   10.76    1.72
 -10   8  -5    1.02    0.74
  10   8   5    1.11    0.27
 -10   8  -6    0.57    0.67
 -10   8  -7    0.51    0.72
 -10   8  -8    0.76    0.78
 -10   8  -9    2.82    1.20
  10  10  -7    0.46    0.61
 -10  10   7    1.53    0.89
  10  10  -6    2.12    0.89
 -10  10   6    0.60    0.46
  10  10  -5    0.89    0.74
 -10  10   5    1.47    0.72
  10  10  -4    0.48    0.48
 -10  10   4    1.72    0.93
 -10  10   3    3.13    0.54
  10  10  -3    2.72    0.68
 -10  10   3    4.77    1.09
 -10  10   2    0.35    0.35
  10  10  -2    0.24    0.43
 -10  10   2    1.21    1.04
 -10  10   1    6.06    0.83
  10  10  -1    6.32    0.77
 -10  10   1    7.97    1.37
 -10  10   0    7.97    0.98
  10  10   0    8.13    0.76
 -10  10   0    6.26    1.00
 -10  10  -1    9.52    0.99
  10  10   1    9.09    0.72
  10  10   1   10.29    0.90
 -10  10  -2   13.00    1.79
  10  10   2   10.26    1.17
  10  10   2   11.44    1.77
 -10  10  -3   26.80    3.06
  10  10   3   21.65    3.73
 -10  10  -4    8.55    1.32
  10  10   4    5.14    2.57
 -10  10  -5    1.56    1.00
  11  -1 -15   -0.03    0.41
  11   1 -15    0.37    0.76
  11  -1 -14    0.09    0.42
  11   1 -14    0.24    0.68
  11  -1 -13    0.42    0.38
  11   1 -13    0.69    0.71
  11  -1 -12    0.87    0.54
  11   1 -12    0.84    0.67
  11   1 -11    0.62    0.49
  11  -1 -11    0.17    0.36
  11   1 -10    0.64    0.49
  11  -1 -10    1.04    0.69
 -11   1   9    0.18    0.29
 -11  -1   8   13.02    1.94
 -11   1   8   13.34    2.55
  11  -1  -8    8.26    0.61
 -11  -1   7   35.53    3.53
 -11   1   7   30.53    1.07
  11  -1  -7   28.21    0.94
 -11  -1   6   13.24    0.83
 -11   1   6   13.76    0.78
  11   1  -6   12.29    0.61
  11  -1  -6   14.25    0.66
 -11  -1   5   23.77    0.94
 -11   1   5   23.35    0.88
  11   1  -5   23.53    0.96
  11  -1  -5   25.65    0.96
  11  -1  -5   25.59    0.93
 -11  -1   4   33.75    1.07
 -11   1   4   32.61    1.03
  11   1  -4   35.89    1.07
  11  -1  -4   37.15    1.07
  11  -1  -4   34.01    1.08
 -11  -1   3   60.13    1.57
  11   1  -3   62.02    1.50
  11  -1  -3   59.18    1.43
  11  -1  -3   59.55    1.38
 -11  -1   2   37.75    1.16
  11   1  -2   39.74    1.16
  11  -1  -2   40.77    1.22
  11  -1  -2   37.74    1.00
 -11  -1   1   34.15    1.12
 -11   1   1   30.68    1.20
  11   1  -1   33.47    1.13
  11  -1  -1   33.34    1.10
  11   1  -1   31.85    0.75
 -11   1   1   32.75    0.93
 -11  -1   0    7.83    0.64
 -11   1   0    7.78    0.79
  11   1   0    7.48    0.55
  11  -1   0    8.96    0.65
 -11   1   0    7.51    1.12
  11   1   0    7.84    0.29
 -11  -1  -1    0.62    0.57
 -11   1  -1   -0.03    0.53
  11   1   1    0.92    0.64
  11  -1   1    0.40    0.46
 -11   1  -1    0.46    0.36
 -11  -1  -2    2.19    0.66
 -11   1  -2    1.43    0.58
  11   1   2    1.13    0.42
  11  -1   2    2.20    0.66
 -11  -1  -3   32.05    1.15
 -11   1  -3   33.80    1.21
  11   1   3   32.07    1.07
  11  -1   3   32.71    1.09
 -11  -1  -4    6.89    0.94
 -11   1  -4    6.30    0.76
  11   1   4    6.64    0.70
 -11  -1  -5   22.80    1.18
 -11   1  -5   20.18    1.19
  11   1   5   18.67    0.86
 -11  -1  -6    2.15    0.64
 -11   1  -6    1.72    0.71
 -11  -1  -7    0.62    0.64
 -11   1  -7    1.08    1.04
 -11  -1  -8    0.53    0.57
 -11   1  -8    0.75    0.69
 -11  -1  -9    7.68    1.09
 -11   1  -9    5.92    0.94
 -11   1 -10    1.17    0.80
 -11  -1 -11    1.92    0.83
 -11   1 -11    0.54    0.55
 -11  -1 -12    0.18    0.56
 -11   1 -12    0.26    0.80
 -11  -1 -13    0.71    0.54
 -11   1 -13    0.75    0.74
  11   3 -15    1.23    0.61
  11  -3 -14    2.30    0.56
  11   3 -14    1.73    0.55
  11   3 -13   10.15    1.25
  11  -3 -13   11.02    0.88
  11  -3 -12    3.42    0.51
  11  -3 -11    4.61    0.57
  11   3 -11    4.26    0.77
  11  -3 -10   10.09    0.69
  11   3 -10   11.14    1.01
  11  -3 -10   12.82    0.87
 -11   3   9    6.07    1.28
  11  -3  -9    4.42    0.58
  11   3  -9    5.43    0.91
 -11   3   8    0.78    0.36
  11  -3  -8    1.03    0.43
  11   3  -8    1.23    0.69
 -11  -3   7   24.65    2.37
 -11   3   7   23.48    1.05
  11  -3  -7   25.47    1.01
 -11  -3   6    5.96    1.28
 -11   3   6    5.01    0.50
  11  -3  -6    4.60    0.57
 -11  -3   5   11.52    1.70
 -11   3   5   11.14    0.67
  11  -3  -5   10.17    0.70
 -11  -3   4    9.93    0.78
 -11   3   4    7.71    0.59
  11  -3  -4    9.03    0.66
  11  -3  -4   10.54    0.68
 -11  -3   3   28.78    1.09
  11   3  -3   28.67    0.95
 -11   3   3   28.77    1.19
 -11  -3   2    2.88    0.69
  11   3  -2    1.70    0.38
 -11   3   2    1.57    0.57
  11  -3  -2    1.55    0.45
 -11   3   2    2.16    0.68
 -11  -3   1   83.93    1.83
  11   3  -1   85.74    1.82
 -11   3   1   84.56    1.87
  11  -3  -1   85.82    1.86
 -11   3   1   85.24    1.96
 -11  -3   0   13.29    0.91
  11   3   0   12.39    0.66
 -11   3   0   12.63    0.82
  11  -3   0   10.92    0.85
 -11   3   0   11.34    0.85
  11   3   1   25.25    0.84
 -11   3  -1   22.46    1.23
  11  -3   1   23.06    1.02
  11   3   1   23.84    0.32
 -11  -3  -2   34.20    1.00
  11   3   2   31.35    0.91
 -11   3  -2   32.64    1.20
 -11  -3  -3  174.69    1.96
  11   3   3  173.95    2.95
 -11   3  -3  173.39    3.28
 -11  -3  -4   50.81    1.77
 -11   3  -4   48.00    1.97
  11   3   4   50.43    1.70
 -11  -3  -5   31.19    1.30
 -11   3  -5   30.38    1.70
  11   3   5   29.54    1.21
 -11  -3  -6    1.22    0.62
 -11   3  -6    2.46    1.17
  11   3   6    1.23    0.52
 -11  -3  -7    4.27    0.65
 -11   3  -7    4.44    0.89
  11   3   7    3.32    0.41
 -11  -3  -7    4.21    0.30
 -11  -3  -8    3.27    0.64
 -11   3  -8    2.93    0.56
 -11  -3  -8    3.16    0.32
 -11  -3  -9   18.12    0.96
 -11   3  -9   17.79    1.60
 -11  -3 -10   17.12    0.97
 -11   3 -10   13.06    1.18
 -11  -3 -11    5.54    0.73
 -11   3 -11    7.30    1.37
 -11  -3 -12    0.53    0.42
 -11   3 -12    0.24    0.68
  11   5 -14    0.22    0.64
  11   5 -13    0.60    0.66
  11   5 -12    0.97    0.86
  11  -5 -11    0.37    0.21
  11   5 -11    1.31    0.70
  11   5 -10    0.88    0.70
  11  -5 -10    0.86    0.29
 -11   5   9    3.90    0.99
  11  -5  -9    4.04    0.48
  11   5  -9    4.02    0.87
 -11   5   8    6.21    0.50
  11  -5  -8    4.49    0.44
  11   5  -8    5.91    0.85
 -11   5   7   27.69    1.35
  11  -5  -7   24.51    1.26
  11   5  -7   26.15    1.61
 -11   5   6   18.47    0.74
  11  -5  -6   17.83    0.76
  11   5  -6   17.24    1.06
 -11  -5   5   23.01    3.40
 -11   5   5   23.25    1.06
  11  -5  -5   19.42    0.88
 -11   5   5   22.01    2.61
 -11  -5   4   21.89    1.17
 -11   5   4   21.40    1.07
  11  -5  -4   21.75    0.93
 -11   5   4   21.49    3.31
 -11  -5   3   39.01    2.45
 -11   5   3   40.26    1.54
  11  -5  -3   38.89    1.40
 -11   5   3   40.45    1.77
 -11   5   2   73.53    2.35
  11  -5  -2   72.14    2.24
 -11   5   2   72.95    3.31
 -11  -5   1   -0.09    0.51
 -11   5   1    0.79    0.81
  11  -5  -1    2.08    0.67
 -11   5   1    2.07    1.00
 -11  -5   0   19.05    0.92
  11   5   0   16.89    0.87
 -11   5   0   18.65    1.18
 -11  -5  -1   12.24    0.84
  11   5   1    9.87    0.61
 -11   5  -1   11.81    1.11
 -11  -5  -2    4.92    0.66
  11   5   2    4.83    0.56
 -11   5  -2    4.46    0.88
  11   5   2    5.41    1.04
 -11  -5  -3    6.95    0.71
  11   5   3    4.67    0.54
 -11   5  -3    4.20    0.89
 -11  -5  -4    2.93    0.52
  11   5   4    2.61    0.45
 -11   5  -4    4.11    0.94
 -11  -5  -5    1.06    0.38
  11   5   5    1.48    0.52
 -11   5  -5    1.09    0.72
 -11  -5  -6    1.17    0.37
 -11   5  -6    0.36    0.72
  11   5   6    1.02    0.45
 -11  -5  -7    0.24    0.25
 -11   5  -7    0.37    0.78
  11   5   7    0.18    0.33
 -11  -5  -8    0.26    0.29
 -11   5  -8    0.91    0.74
 -11  -5  -9    0.52    0.45
 -11   5  -9    0.21    0.67
 -11  -5 -10    4.71    0.55
 -11   5 -10    2.77    0.94
 -11   5 -11    1.83    1.00
  11   7 -12    0.52    0.66
  11   7 -11    1.32    0.69
  11   7 -10    0.00    0.64
  11   7  -9    1.65    0.86
 -11   7   8    7.63    0.52
  11   7  -8    8.30    1.25
 -11   7   7   17.40    0.58
  11   7  -7   17.59    1.55
 -11   7   6   20.12    1.10
  11  -7  -6   20.67    1.09
  11   7  -6   22.48    1.56
 -11   7   6   21.08    2.80
 -11   7   5   14.31    0.89
  11  -7  -5   16.26    0.98
  11   7  -5   16.69    1.26
 -11   7   5   14.90    3.77
 -11   7   4   14.86    0.93
  11  -7  -4   12.89    0.87
  11   7  -4   13.40    1.06
 -11   7   4   15.80    3.12
 -11   7   3   37.66    1.87
  11  -7  -3   33.68    1.59
  11   7  -3   34.56    1.79
 -11   7   3   35.78    4.30
 -11   7   2    5.86    0.77
  11   7  -2    6.28    0.89
 -11   7   2    5.43    1.10
 -11   7   1    1.87    0.74
  11   7  -1    1.98    0.49
 -11   7   1    2.04    0.77
 -11  -7   0    0.35    0.22
 -11   7   0    0.08    0.49
 -11  -7  -1    0.55    0.21
 -11   7  -1    0.83    0.52
 -11  -7  -2    0.44    0.31
  11   7   2   -0.06    0.24
 -11   7  -2    0.42    0.73
  11   7   2   -0.07    0.34
 -11  -7  -3    6.60    1.45
  11   7   3    6.29    0.60
 -11   7  -3    7.13    0.91
  11   7   3    6.27    1.47
 -11  -7  -4    0.31    0.17
 -11   7  -4    0.28    0.71
 -11  -7  -5    1.33    0.40
 -11   7  -5    3.06    1.04
 -11  -7  -6    3.19    0.81
 -11   7  -6    5.20    0.92
 -11   7  -7    0.48    0.71
 -11   7  -8    5.27    1.09
 -11   7  -9   19.33    2.39
 -11   7 -10    1.43    1.08
  11   9  -9    3.17    0.94
  11   9  -8    0.77    0.59
  11   9  -7    0.61    0.55
  11   9  -6    0.96    0.82
 -11   9   6    0.32    0.41
 -11   9   5    0.49    0.24
  11   9  -5    0.27    0.47
 -11   9   5    0.26    0.33
 -11   9   4    1.08    0.47
  11   9  -4    0.71    0.50
 -11   9   4   -0.32    0.72
 -11   9   3    2.52    0.64
  11   9  -3    1.88    0.72
 -11   9   3    1.90    0.80
 -11   9   2    0.95    0.58
  11   9  -2    0.56    0.46
 -11   9   2    0.81    0.77
 -11   9   1    1.79    0.55
  11   9  -1    1.44    0.48
 -11   9   1    2.30    0.98
 -11   9   0    8.83    1.07
  11   9   0    8.93    0.78
 -11   9   0    7.71    1.29
 -11   9  -1    6.57    0.91
  11   9   1    7.17    0.69
  11   9   1    7.80    0.75
 -11   9  -2    7.51    0.92
  11   9   2    9.06    0.72
  11   9   2    7.61    1.28
 -11   9  -3   23.81    1.73
  11   9   3   23.52    1.23
  11   9   3   22.44    3.08
 -11   9  -4   10.93    1.18
  11   9   4    5.84    1.87
 -11   9  -5    0.11    0.68
 -11   9  -6    1.26    0.76
 -11   9  -7    0.53    0.76
  11  11  -3    0.65    0.45
 -11  11   3    0.15    0.70
  11  11  -2    3.41    0.78
 -11  11   2    3.60    1.19
 -11  11   1    0.58    0.39
  11  11  -1    0.65    0.33
 -11  11   1    1.67    0.80
  11  11   0    0.85    0.51
 -11  11   0    2.24    0.89
  11  11   0    0.82    0.56
  12   0 -15    0.64    0.59
  12   0 -14    0.89    0.45
  12   0 -13    9.55    0.89
  12   0 -12    4.27    0.90
  12   0 -11   10.39    0.93
  12   0 -10   25.89    1.55
 -12   0   9   62.50    3.72
 -12   0   8    0.56    0.56
 -12   0   7    2.26    0.58
 -12   0   6   25.24    0.98
  12   0  -6   25.79    1.02
 -12   0   5    2.88    0.47
  12   0  -5    3.37    0.52
 -12   0   4   11.06    0.76
  12   0  -4   11.59    0.69
 -12   0   3    4.13    0.53
  12   0  -3    3.72    0.45
  12   0  -3    4.00    0.84
 -12   0   2   27.03    1.19
  12   0  -2   28.23    1.04
  12   0  -2   27.82    0.82
 -12   0   1    6.98    0.66
  12   0  -1    7.09    0.57
  12   0  -1    7.97    0.50
 -12   0   0   22.30    0.96
  12   0   0   22.79    0.93
 -12   0  -1   12.43    0.78
  12   0   1   13.71    0.74
 -12   0  -2   -0.07    0.54
  12   0   2    0.36    0.40
 -12   0  -3  385.85    3.24
 -12   0  -4   17.65    1.17
 -12   0  -5    0.56    0.63
 -12   0  -7   14.24    1.03
 -12   0  -8   60.39    2.83
 -12   0  -9    6.92    1.01
 -12   0 -10    2.18    0.69
 -12   0 -11    6.07    0.85
 -12   0 -12    2.51    1.04
 -12   0 -13    0.15    0.60
  12   2 -15   -0.19    0.56
  12  -2 -15    0.34    0.38
  12  -2 -14   -0.05    0.32
  12   2 -14    1.00    0.86
  12   2 -13    0.03    0.61
  12  -2 -13   -0.01    0.34
  12  -2 -12    0.59    0.40
  12   2 -12    0.73    0.60
  12   2 -11    0.94    0.97
  12  -2 -11    0.68    0.40
 -12   2  10    4.34    1.04
  12   2 -10    3.78    0.85
 -12   2   9    2.86    0.64
  12   2  -9    2.97    0.74
 -12  -2   8    1.95    0.59
 -12   2   8    1.40    0.40
  12  -2  -8    1.43    0.46
 -12  -2   7   17.31    3.40
 -12   2   7   15.98    0.85
  12  -2  -7   13.85    0.77
 -12  -2   6    7.29    1.48
 -12   2   6    5.95    0.56
  12  -2  -6    5.69    0.53
 -12  -2   5   49.21    1.32
 -12   2   5   48.20    1.22
  12  -2  -5   45.60    1.08
  12  -2  -5   46.29    1.16
 -12   2   4   64.99    1.31
  12  -2  -4   63.51    1.20
  12  -2  -4   64.82    1.26
  12   2  -3  214.02    2.27
 -12   2   3  214.50    2.39
  12  -2  -3  212.10    2.15
  12  -2  -3  205.86    3.53
 -12  -2   2  106.09    2.17
 -12   2   2  101.45    2.12
  12   2  -2  104.50    2.10
  12  -2  -2  106.28    2.18
 -12  -2   1    6.27    0.73
  12   2  -1    5.71    0.66
 -12   2   1    5.99    0.68
  12  -2  -1    6.13    0.55
 -12   2   1    6.48    1.18
 -12  -2   0  149.91    2.79
  12   2   0  153.83    2.82
 -12   2   0  154.05    2.97
  12  -2   0  148.47    2.76
  12   2   0  148.83    2.27
 -12   2   0  149.73    2.77
 -12  -2  -1   57.72    1.62
 -12   2  -1   59.59    1.77
  12   2   1   59.12    1.51
  12  -2   1   59.41    1.59
 -12   2  -1   55.49    1.29
 -12  -2  -2   93.82    1.65
  12   2   2   95.34    1.62
 -12   2  -2   94.17    1.80
 -12   2  -3    2.68    0.77
  12   2   3    3.22    0.51
 -12  -2  -4   16.68    1.01
 -12   2  -4   17.28    1.24
  12   2   4   13.84    0.86
 -12  -2  -5   27.39    1.25
 -12   2  -5   27.65    1.60
 -12  -2  -6   14.00    0.83
 -12  -2  -6   15.97    0.77
 -12  -2  -7   11.08    0.94
 -12   2  -7   13.30    1.59
 -12  -2  -7   10.47    1.06
 -12  -2  -8    6.76    0.73
 -12   2  -8    6.01    0.99
 -12  -2  -8    4.30    1.12
 -12  -2  -9   19.95    1.00
 -12  -2 -10    2.02    0.61
 -12   2 -10    2.83    0.91
 -12  -2 -11    0.93    0.70
 -12   2 -11    0.68    0.62
 -12  -2 -12    4.43    0.79
 -12   2 -12    4.15    1.00
  12   4 -14    1.17    0.87
  12   4 -13   -0.30    0.58
  12  -4 -13    0.60    0.41
  12  -4 -12    0.04    0.25
  12   4 -12    0.29    0.61
  12   4 -11    0.21    0.58
  12  -4 -11    0.56    0.42
  12  -4 -10    1.17    0.33
  12   4 -10    1.06    0.56
 -12   4   9    0.72    0.21
  12  -4  -9    0.32    0.27
  12   4  -9    1.17    0.79
 -12   4   8    3.32    0.40
  12  -4  -8    4.06    0.54
  12   4  -8    4.14    0.86
 -12   4   7    5.55    0.56
  12  -4  -7    4.74    0.61
  12   4  -7    4.63    0.85
 -12  -4   6    2.33    0.62
 -12   4   6    2.59    0.47
  12  -4  -6    2.03    0.44
 -12  -4   5    7.47    1.46
 -12   4   5    7.36    0.76
  12  -4  -5    5.99    0.60
 -12  -4   4   42.01    3.29
 -12   4   4   42.89    1.53
  12  -4  -4   41.88    1.53
 -12   4   4   41.07    1.80
 -12  -4   3   88.34    1.97
 -12   4   3   87.68    1.92
  12  -4  -3   82.30    1.81
 -12   4   3   85.47    2.96
 -12  -4   2   17.37    0.90
 -12   4   2   18.33    1.06
  12  -4  -2   17.96    1.00
 -12   4   2   19.08    1.35
 -12  -4   1    0.43    0.54
  12   4  -1    0.76    0.40
 -12   4   1    0.35    0.63
  12  -4  -1    1.17    0.77
 -12   4   1    0.53    0.66
 -12  -4   0   20.82    0.95
  12   4   0   22.99    0.92
 -12   4   0   21.25    1.10
 -12  -4  -1   43.80    1.21
  12   4   1   43.87    1.31
 -12   4  -1   47.00    1.61
  12   4   1   45.13    0.83
 -12  -4  -2   11.37    0.74
  12   4   2   10.54    0.68
 -12   4  -2   12.49    1.20
 -12  -4  -3    3.90    0.47
  12   4   3    3.37    0.46
 -12   4  -3    2.62    0.87
 -12  -4  -4    8.97    0.79
 -12   4  -4    9.34    1.07
  12   4   4    7.89    0.68
 -12  -4  -5    3.04    0.64
 -12   4  -5    2.85    0.87
  12   4   5    2.47    0.47
 -12  -4  -6   17.09    1.04
 -12   4  -6   15.49    1.31
  12   4   6   15.11    0.96
 -12  -4  -7    0.62    0.51
 -12   4  -7    1.24    0.55
 -12  -4  -8    6.11    0.65
 -12   4  -8    5.65    0.85
 -12  -4  -9   16.91    0.93
 -12   4  -9   16.10    1.38
 -12  -4 -10    0.81    0.57
 -12   4 -10   -0.03    0.72
 -12  -4 -11    2.47    0.67
 -12   4 -11    1.39    0.72
 -12   4 -12    0.78    0.79
  12   6 -13    2.54    0.91
  12   6 -12    0.53    0.79
  12   6 -11    1.39    0.59
  12   6 -10   10.58    1.49
  12  -6 -10    9.94    0.48
 -12   6   9    6.20    1.05
  12   6  -9    7.95    0.92
 -12   6   8    0.35    0.26
  12  -6  -8    0.67    0.37
  12   6  -8    0.05    0.62
 -12   6   7    1.93    0.39
  12  -6  -7    2.27    0.32
  12   6  -7    1.71    0.86
 -12   6   6    0.51    0.33
  12  -6  -6    0.41    0.24
  12   6  -6    0.64    0.56
 -12   6   5    0.58    0.39
  12  -6  -5    0.96    0.37
  12   6  -5    0.09    0.60
 -12   6   5   -0.74    0.60
 -12  -6   4    1.34    0.57
 -12   6   4    0.10    0.36
  12  -6  -4    0.52    0.41
 -12   6   4    0.99    0.60
 -12  -6   3   16.68    2.91
 -12   6   3   16.32    0.88
  12  -6  -3   13.66    0.76
 -12   6   3   19.08    4.86
 -12  -6   2    1.85    0.53
 -12   6   2    2.25    0.77
 -12  -6   1    2.11    0.66
 -12   6   1    2.73    0.92
 -12   6   1    1.80    0.84
 -12  -6   0    0.21    0.24
 -12   6   0    0.84    0.58
 -12   6   0    0.65    0.67
 -12  -6  -1    3.55    0.66
 -12   6  -1    4.11    1.14
 -12  -6  -2    6.96    0.72
  12   6   2    5.19    0.50
 -12   6  -2    6.14    0.94
  12   6   2    5.10    1.27
 -12  -6  -3   48.33    2.15
  12   6   3   41.74    1.90
 -12   6  -3   48.59    2.49
  12   6   3   48.38    2.07
 -12  -6  -4    8.81    0.67
  12   6   4    7.20    0.59
 -12   6  -4    9.20    1.48
 -12  -6  -5    0.48    0.34
 -12   6  -5    0.44    0.76
  12   6   5    0.23    0.24
 -12  -6  -6   15.07    0.73
 -12   6  -6   16.09    1.59
 -12  -6  -7   13.24    0.67
 -12   6  -7   13.09    1.30
 -12  -6  -8    5.76    0.53
 -12   6  -8    6.33    1.31
 -12   6  -9    8.28    1.71
 -12   6 -10    0.22    0.67
  12   8 -11   -0.12    0.72
  12   8 -10    0.63    0.66
  12   8  -9   -0.30    0.59
  12   8  -8    0.69    0.60
 -12   8   7    0.48    0.18
  12   8  -7    1.28    0.86
 -12   8   6    0.36    0.22
  12   8  -6    0.59    0.78
 -12   8   6    0.11    0.50
 -12   8   5    4.36    0.47
  12   8  -5    5.10    1.02
 -12   8   5    3.83    1.81
 -12   8   4    9.81    0.74
  12   8  -4    8.96    1.09
 -12   8   4    9.70    2.03
 -12   8   3   16.12    0.91
  12   8  -3   16.45    1.25
 -12   8   3   19.23    2.53
 -12   8   2   21.20    1.10
  12   8  -2   20.40    1.00
 -12   8   2   22.93    4.73
 -12   8   1    5.02    0.88
  12   8  -1    6.46    0.90
 -12   8   1    6.19    1.25
 -12   8   0   12.69    0.96
  12   8   0   14.10    0.88
 -12   8   0   14.08    1.40
 -12   8  -1    9.01    0.91
  12   8   1    8.94    0.81
  12   8   1    9.70    0.73
 -12   8  -2    7.66    0.89
  12   8   2    9.84    0.75
  12   8   2    6.98    2.06
 -12  -8  -3    0.30    0.19
 -12   8  -3    0.68    0.93
  12   8   3    0.79    0.55
 -12  -8  -4    0.42    0.23
 -12   8  -4   -0.21    0.70
 -12  -8  -5    1.75    0.55
 -12   8  -5    3.08    0.83
 -12   8  -6    2.78    0.92
 -12   8  -7    3.58    1.23
 -12   8  -8    2.06    1.26
  12  10  -7    1.04    0.58
  12  10  -6    1.83    0.84
 -12  10   6    1.90    0.75
  12  10  -5    0.47    0.52
 -12  10   5    1.69    1.26
  12  10  -4    6.69    1.05
 -12  10   4    9.09    1.56
 -12  10   3    9.18    1.17
  12  10  -3   10.16    1.42
 -12  10   3    7.80    2.58
 -12  10   2    2.73    0.64
  12  10  -2    2.58    0.68
 -12  10   2    2.84    1.29
 -12  10   1    0.67    0.61
  12  10  -1    1.00    0.53
 -12  10   1    0.88    0.66
  12  10   0    1.19    0.47
 -12  10   0    1.07    0.88
 -12  10  -1    1.76    0.57
  12  10   1    2.12    0.60
  12  10   1    2.21    0.52
 -12  10  -1    1.96    0.94
 -12  10  -2    0.46    0.59
  12  10   2    0.93    0.44
  12  10   2    0.20    0.29
 -12  10  -3    1.88    0.87
  12  10   3    0.22    0.39
 -12  10  -4    0.68    0.68
  13  -1 -15    0.16    0.41
  13   1 -15    0.37    0.50
  13   1 -14    0.75    0.50
  13  -1 -14    0.77    0.76
  13   1 -13    0.16    0.47
  13  -1 -13    1.01    0.56
  13   1 -12    0.76    0.72
  13  -1 -12    0.67    0.55
  13   1 -11    1.89    0.62
  13  -1 -11    1.56    0.51
 -13   1  10    9.46    1.78
  13   1 -10    8.19    1.08
 -13  -1   9   28.43    2.54
 -13   1   9   26.73    1.95
 -13  -1   8   -0.13    0.58
 -13   1   8    0.76    0.71
 -13  -1   7    1.90    0.61
 -13   1   7    1.47    0.74
 -13  -1   6   15.17    0.97
 -13   1   6   16.49    0.87
  13  -1  -6   16.15    0.79
 -13  -1   5    6.15    0.68
 -13   1   5    5.60    0.72
  13  -1  -5    5.62    0.54
  13  -1  -5    4.43    1.36
 -13  -1   4    0.88    0.51
 -13   1   4    1.37    0.32
  13  -1  -4    1.41    0.38
  13  -1  -4    0.75    0.42
 -13  -1   3    4.07    0.59
 -13   1   3    4.21    0.59
  13   1  -3    4.22    0.49
  13  -1  -3    3.84    0.44
  13  -1  -3    4.43    0.99
 -13  -1   2    1.93    0.52
 -13   1   2    3.20    0.60
  13   1  -2    2.47    0.46
  13  -1  -2    3.14    0.41
  13   1  -2    1.75    0.55
  13  -1  -2    2.33    0.32
 -13  -1   1    1.23    0.72
 -13   1   1   -0.25    0.54
  13   1  -1    0.31    0.42
  13  -1  -1    0.23    0.48
  13   1  -1    0.11    0.19
 -13  -1   0    6.43    0.67
 -13   1   0    6.41    0.71
  13   1   0    6.44    0.60
  13  -1   0    5.49    0.59
 -13   1   0    7.80    1.33
 -13  -1  -1    3.00    0.60
 -13   1  -1    2.74    0.52
  13   1   1    2.43    0.45
  13  -1   1    2.39    0.50
 -13   1  -1    2.99    0.76
 -13  -1  -2    5.62    0.61
 -13   1  -2    6.32    0.95
  13   1   2    5.93    0.67
 -13   1  -2    6.29    0.44
 -13  -1  -3   22.64    1.11
 -13   1  -3   22.53    1.38
 -13  -1  -4    4.41    0.69
 -13   1  -4    4.60    0.97
 -13  -1  -5   45.94    1.80
 -13   1  -5   46.04    1.93
 -13  -1  -6   13.66    1.11
 -13   1  -6   11.40    1.05
 -13  -1  -7    6.38    0.83
 -13   1  -7    6.64    0.92
 -13  -1  -8    0.75    0.54
 -13   1  -8    1.12    0.75
 -13  -1  -9   11.94    1.03
 -13   1  -9   10.25    1.02
 -13  -1 -10    0.51    0.64
 -13   1 -10    1.02    0.91
 -13  -1 -11    0.64    0.55
 -13   1 -11    0.14    0.61
 -13  -1 -12    0.01    0.51
 -13   1 -12    0.21    0.65
  13   3 -15    1.13    0.63
  13   3 -14    0.58    0.53
  13  -3 -14    0.23    0.30
  13  -3 -13    0.08    0.32
  13   3 -13    0.21    0.55
  13  -3 -12    0.45    0.35
  13   3 -11    2.57    0.80
  13  -3 -11    0.98    0.45
 -13   3  10    0.58    0.18
  13   3 -10    0.49    0.53
 -13   3   9    0.55    0.29
  13   3  -9    1.04    0.60
 -13  -3   8    0.39    0.24
 -13   3   8    0.65    0.37
  13  -3  -8    0.49    0.41
 -13  -3   7    0.70    0.35
 -13   3   7   -0.10    0.36
  13  -3  -7    0.90    0.47
 -13  -3   6    0.71    0.38
 -13   3   6    0.61    0.41
  13  -3  -6    0.50    0.52
 -13  -3   5   -0.07    0.64
 -13   3   5    0.52    0.64
  13  -3  -5    0.18    0.45
 -13  -3   4   16.82    0.98
 -13   3   4   16.64    0.92
  13  -3  -4   14.56    0.81
 -13  -3   3   99.57    2.18
 -13   3   3   98.22    2.10
  13  -3  -3   98.73    2.03
 -13   3   3   95.73    2.45
 -13  -3   2    4.91    0.62
 -13   3   2    3.16    0.66
  13  -3  -2    4.01    0.49
 -13  -3   1    9.29    0.68
 -13   3   1   11.52    1.04
  13  -3  -1    9.32    0.84
 -13   3   1    9.78    2.33
 -13  -3   0   22.93    0.99
  13   3   0   22.18    0.91
 -13   3   0   23.46    1.13
 -13   3   0   22.83    0.94
  13   3   1    8.65    0.64
 -13   3  -1    9.36    1.30
 -13   3  -1   10.42    0.78
 -13  -3  -2   17.62    1.09
 -13   3  -2   17.24    1.24
  13   3   2   15.33    0.85
 -13  -3  -3  202.64    5.49
 -13   3  -3  204.87    2.80
 -13  -3  -4   16.72    0.93
 -13   3  -4   13.45    1.18
 -13  -3  -5   18.06    0.90
 -13   3  -5   17.46    1.20
 -13  -3  -6   20.44    1.23
 -13   3  -6   19.81    1.47
 -13  -3  -7   35.58    1.92
 -13   3  -7   41.91    2.59
 -13  -3  -8    5.47    0.76
 -13   3  -8    5.46    0.97
 -13  -3  -9   11.34    0.88
 -13   3  -9   11.53    1.38
 -13  -3 -10    4.09    0.71
 -13  -3 -11    3.06    0.71
 -13   3 -11    3.49    0.91
 -13  -3 -12    2.17    0.69
 -13   3 -12    2.82    0.98
  13   5 -13    1.23    0.88
  13  -5 -12    0.11    0.24
  13   5 -12    0.00    0.60
  13   5 -11    1.79    0.91
  13  -5 -11    1.45    0.39
 -13   5  10    0.49    0.16
  13   5 -10    0.25    0.60
 -13   5   9    2.66    0.61
  13  -5  -9    2.56    0.42
  13   5  -9    2.39    0.90
 -13   5   8    0.23    0.24
  13  -5  -8    0.25    0.33
  13   5  -8    0.06    0.55
 -13   5   7    0.52    0.27
  13  -5  -7    0.68    0.37
  13   5  -7   -0.09    0.60
 -13  -5   6    2.13    0.56
 -13   5   6    0.72    0.32
  13  -5  -6    1.29    0.43
 -13  -5   5    1.59    0.57
 -13   5   5    3.45    0.71
  13  -5  -5    1.45    0.39
 -13   5   5    1.34    0.48
 -13  -5   4   -0.53    0.54
 -13   5   4    0.35    0.45
  13  -5  -4    0.31    0.34
 -13  -5   3    4.34    0.94
 -13   5   3    3.55    0.58
 -13   5   3    4.53    1.34
 -13   5   2    1.33    0.63
 -13   5   2    1.43    0.97
 -13  -5   1    2.16    0.59
 -13   5   1    2.06    0.64
 -13   5   1    2.32    0.75
 -13  -5   0    1.17    0.69
 -13   5   0    2.73    1.23
 -13  -5  -1    5.85    0.62
 -13   5  -1    8.13    1.28
  13   5   1    5.72    0.42
 -13  -5  -2    1.96    0.59
 -13   5  -2    2.30    1.04
  13   5   2    0.42    0.19
 -13  -5  -3    2.18    0.51
 -13   5  -3    3.07    0.70
 -13  -5  -4    0.48    0.37
 -13   5  -4    0.71    0.75
 -13  -5  -5    4.43    0.57
 -13   5  -5    5.27    1.12
 -13  -5  -6    0.23    0.26
 -13   5  -6    0.32    0.82
 -13  -5  -7    4.70    0.67
 -13   5  -7    6.62    1.09
 -13  -5  -8    0.22    0.26
 -13   5  -8    1.71    1.07
 -13  -5  -9   10.82    0.66
 -13   5  -9   10.11    1.27
 -13  -5 -10    0.50    0.38
 -13   5 -10    0.08    0.69
 -13   5 -11    1.07    0.76
  13   7 -12    0.11    0.70
  13   7 -11    2.23    1.14
  13   7 -10    5.27    1.06
  13   7  -9    5.55    0.97
 -13   7   8    1.15    0.28
  13   7  -8    1.87    0.80
 -13   7   7    0.18    0.17
  13   7  -7    0.49    0.57
 -13   7   6    1.87    0.40
  13   7  -6    1.75    0.64
 -13   7   6    2.01    0.63
 -13   7   5    1.12    0.42
  13   7  -5    0.97    0.41
 -13   7   5    1.54    0.77
 -13   7   4    7.56    0.76
  13   7  -4   10.70    1.18
 -13   7   4    8.77    1.63
 -13   7   3   10.50    0.93
  13   7  -3   11.92    1.33
 -13   7   3   10.38    3.29
 -13  -7   2    8.47    2.31
 -13   7   2    8.55    0.96
 -13   7   2    8.13    2.39
 -13  -7   1    3.63    1.36
 -13   7   1    3.04    0.74
 -13   7   1    4.49    0.94
 -13  -7   0    4.34    1.28
 -13   7   0    5.63    0.84
 -13   7   0    6.55    0.93
 -13  -7  -1    5.66    1.22
 -13   7  -1    5.70    0.87
  13   7   1    5.68    0.61
 -13  -7  -2    2.31    0.73
 -13   7  -2    1.80    0.69
  13   7   2    2.23    0.63
 -13  -7  -3   -0.06    0.26
 -13   7  -3    0.44    0.62
  13   7   3    0.26    0.24
 -13  -7  -4    0.59    0.26
 -13   7  -4    0.76    0.69
 -13  -7  -5    4.04    0.48
 -13   7  -5    4.51    0.91
 -13  -7  -6    2.58    0.43
 -13   7  -6    0.99    0.73
 -13  -7  -7    4.42    0.41
 -13   7  -7    6.72    1.07
 -13   7  -8    3.86    1.13
 -13   7  -9    4.01    1.18
  13   9  -9    1.00    0.95
  13   9  -8    1.47    0.86
  13   9  -7    1.09    0.85
  13   9  -6    0.88    0.62
 -13   9   6    0.85    0.48
 -13   9   5    1.24    0.36
  13   9  -5    2.14    0.73
 -13   9   5    1.08    0.35
 -13   9   4    4.21    0.72
  13   9  -4    3.02    0.74
 -13   9   4    3.38    1.18
 -13   9   3   10.63    1.01
  13   9  -3   10.61    1.13
 -13   9   3   10.34    2.09
 -13   9   2    0.41    0.41
  13   9  -2    1.47    0.64
 -13   9   2    2.57    1.01
 -13   9   1    0.84    0.49
  13   9  -1    0.68    0.45
 -13   9   1    1.55    0.94
 -13   9   0    2.95    0.76
  13   9   0    3.27    0.61
 -13   9   0    3.37    1.01
 -13   9  -1    1.71    0.84
  13   9   1    1.46    0.42
  13   9   1    1.76    0.48
 -13   9  -1    3.37    1.17
 -13   9  -2    7.20    0.95
  13   9   2    6.35    0.59
  13   9   2    5.54    1.60
 -13   9  -3   24.92    2.82
  13   9   3   21.61    2.20
  13   9   3   19.69    3.05
 -13   9  -4    9.00    1.45
 -13   9  -5    1.57    1.01
 -13   9  -6    6.27    1.24
  14   0 -14    3.01    0.72
  14   0 -13    4.94    1.11
  14   0 -12    6.45    1.06
  14   0 -11    6.35    0.82
 -14   0  10    0.99    0.42
 -14   0   9    1.61    0.68
 -14   0   8   21.20    1.77
 -14   0   7    4.69    0.71
 -14   0   6   38.71    1.52
 -14   0   5   69.51    1.72
 -14   0   3  233.21    2.43
  14   0  -3  241.99    2.09
 -14   0   2   30.74    1.17
  14   0  -2   29.37    0.92
 -14   0   1  112.65    1.81
 -14   0   0  102.82    1.81
 -14   0  -1  149.80    2.13
 -14   0  -2   19.66    1.03
 -14   0  -3   12.70    1.06
 -14   0  -3   10.67    0.95
 -14   0  -4    1.54    0.65
 -14   0  -5   21.03    1.36
 -14   0  -7   13.24    1.15
 -14   0  -8    9.95    0.94
 -14   0  -9   10.48    1.08
 -14   0 -10    1.23    0.85
 -14   0 -11    8.04    1.55
 -14   0 -12    3.77    1.11
  14   2 -15    1.05    0.56
  14  -2 -15    0.49    0.35
  14  -2 -14    0.86    0.56
  14   2 -14    1.18    0.61
  14  -2 -13    0.54    0.55
  14   2 -13    0.34    0.54
  14   2 -12    0.82    0.52
  14  -2 -12    1.47    0.66
  14   2 -11    2.27    0.62
  14  -2 -11    3.16    0.55
 -14   2  10    5.25    1.42
  14   2 -10    5.77    0.94
 -14  -2   9    3.32    0.89
 -14   2   9    3.63    0.77
 -14  -2   8    3.37    0.80
 -14   2   8    2.80    0.58
 -14  -2   7   12.68    2.56
 -14   2   7   12.49    0.89
 -14  -2   6   18.33    1.14
 -14   2   6   20.17    1.17
 -14  -2   5   32.25    1.28
 -14   2   5   35.17    1.24
 -14  -2   4    0.58    0.82
 -14   2   4    0.39    0.47
  14  -2  -4    0.38    0.50
  14  -2  -4    0.75    0.36
 -14  -2   3    0.31    0.58
 -14   2   3    0.72    0.57
  14  -2  -3    0.22    0.47
 -14  -2   2    4.73    0.79
 -14   2   2    5.47    0.94
 -14  -2   1    2.56    0.55
 -14   2   1    2.44    0.51
  14   2  -1    1.54    0.50
 -14   2   1    2.26    0.77
 -14  -2   0   19.17    0.95
 -14   2   0   19.35    1.07
 -14   2   0   21.88    0.90
 -14  -2  -1   15.27    0.88
 -14   2  -1   14.82    1.10
 -14   2  -1   14.62    0.84
 -14  -2  -2  103.92    3.13
 -14   2  -2  103.67    3.29
 -14   2  -2  107.30    3.04
 -14   2  -3   96.73    3.20
 -14  -2  -4    2.97    0.67
 -14   2  -4    3.42    0.94
 -14  -2  -5   70.66    1.73
 -14   2  -5   70.04    1.99
 -14  -2  -6   11.76    1.14
 -14   2  -6   11.54    1.18
 -14  -2  -7   49.96    2.58
 -14   2  -7   54.29    2.89
 -14  -2  -7   49.83    2.18
 -14  -2  -8    1.39    0.50
 -14   2  -8    0.58    0.68
 -14   2  -9   -0.75    0.68
 -14  -2 -10    4.73    0.82
 -14   2 -10    4.76    1.11
 -14  -2 -11    0.04    0.54
 -14   2 -11    0.54    0.66
 -14  -2 -12   -0.09    0.41
 -14   2 -12    0.75    0.75
  14   4 -14    0.48    0.62
  14  -4 -13    0.71    0.40
  14   4 -13    0.70    0.58
  14   4 -12    2.04    0.94
  14  -4 -12    1.12    0.38
  14   4 -11    4.78    0.97
  14  -4 -11    4.18    0.59
 -14   4  10    8.04    2.03
  14   4 -10    9.20    1.10
 -14   4   9    9.78    0.75
  14   4  -9   10.14    1.04
 -14   4   8   10.24    0.82
  14  -4  -8    6.69    0.63
  14   4  -8    8.77    1.05
 -14  -4   7   10.80    2.20
 -14   4   7    8.76    0.73
  14  -4  -7    7.53    0.66
 -14  -4   6   29.51    1.49
 -14   4   6   30.27    1.01
  14  -4  -6   26.86    0.95
 -14  -4   5   14.72    1.46
 -14   4   5   14.32    0.96
  14  -4  -5   11.33    0.72
 -14  -4   4    3.87    0.85
 -14   4   4    3.00    0.59
 -14   4   4    4.12    1.21
 -14  -4   3    0.38    0.52
 -14   4   3    1.16    0.74
 -14   4   3    0.60    0.51
 -14  -4   2    1.98    0.46
 -14   4   2    1.62    0.62
 -14  -4   1    0.91    0.67
 -14   4   1    1.01    0.65
 -14   4   1    0.67    0.43
 -14  -4   0    1.36    0.74
 -14   4   0    0.57    1.01
 -14   4   0    0.34    0.58
 -14  -4  -1    9.16    0.86
 -14   4  -1   10.96    1.28
 -14   4  -1    8.98    0.92
 -14  -4  -2   90.95    2.78
 -14   4  -2   91.25    3.10
 -14  -4  -3   48.23    1.22
 -14   4  -3   48.46    2.00
 -14  -4  -4    6.47    0.62
 -14   4  -4    6.42    1.07
 -14  -4  -5   36.04    1.79
 -14   4  -5   34.16    1.96
 -14  -4  -6   44.89    2.29
 -14   4  -6   41.85    2.48
 -14  -4  -7   21.41    0.96
 -14   4  -7   23.09    1.82
 -14  -4  -8    0.84    0.53
 -14   4  -8    2.27    1.11
 -14  -4  -9    0.14    0.35
 -14   4  -9    1.00    0.78
 -14  -4 -10    0.22    0.52
 -14   4 -10    0.94    0.74
 -14  -4 -11    0.49    0.32
 -14   4 -11   -0.41    0.79
  14   6 -12    1.76    0.89
  14   6 -11    0.01    0.56
 -14   6  10    0.48    0.18
  14   6 -10    1.30    0.88
 -14   6   9    0.48    0.26
  14   6  -9    0.84    0.63
 -14   6   8    1.21    0.34
  14   6  -8    0.70    0.57
 -14   6   7    1.97    0.46
  14   6  -7    2.85    0.75
 -14   6   6    4.74    0.59
  14  -6  -6    4.14    0.53
  14   6  -6    2.88    0.74
 -14  -6   5   14.38    2.95
 -14   6   5   12.95    0.94
 -14   6   5   14.10    3.47
 -14   6   4   52.50    2.43
 -14   6   4   48.36    3.93
 -14  -6   3   59.04    2.79
 -14   6   3   61.60    2.93
 -14   6   3   54.72    4.71
 -14  -6   2   12.18    2.76
 -14   6   2   10.22    0.99
 -14   6   2   10.15    2.05
 -14  -6   1   29.97    2.70
 -14   6   1   34.00    1.93
 -14   6   1   38.22    2.11
 -14  -6   0   44.38    2.21
 -14   6   0   44.83    2.41
 -14  -6  -1   34.03    1.71
 -14   6  -1   35.48    1.91
  14   6   1   36.24    1.59
 -14  -6  -2    0.69    0.40
 -14   6  -2    1.09    0.88
  14   6   2    0.74    0.22
 -14  -6  -3    3.84    0.58
 -14   6  -3    4.52    1.04
 -14  -6  -4    4.26    0.63
 -14   6  -4    3.55    1.00
 -14  -6  -5    0.37    0.40
 -14   6  -5    0.16    0.70
 -14  -6  -6    6.01    0.66
 -14   6  -6    5.42    1.27
 -14  -6  -7    8.75    0.71
 -14   6  -7    8.21    1.11
 -14  -6  -8    7.00    0.93
 -14   6  -8    6.26    1.24
 -14   6  -9    0.79    0.68
  14   8 -10    0.30    0.68
  14   8  -9    0.69    0.66
  14   8  -8    0.80    0.55
 -14   8   7    0.43    0.27
  14   8  -7    1.49    0.77
 -14   8   6    1.30    0.39
  14   8  -6    1.27    0.54
 -14   8   6    1.33    0.64
 -14   8   5    3.23    0.56
  14   8  -5    2.34    0.74
 -14   8   5    3.56    0.81
 -14   8   4    1.42    0.55
  14   8  -4    1.07    0.49
 -14   8   4    1.46    0.51
 -14   8   3    1.37    0.52
  14   8  -3    0.92    0.48
 -14   8   3    0.91    0.76
 -14   8   2    2.25    0.56
  14   8  -2    1.63    0.51
 -14   8   2    1.80    0.78
 -14   8   1    6.40    0.81
  14   8  -1    5.61    0.68
 -14   8   1    7.95    1.12
 -14  -8   0    6.63    1.57
 -14   8   0    6.62    0.85
 -14   8   0    8.23    0.97
 -14  -8  -1    2.77    0.60
 -14   8  -1    0.64    0.62
  14   8   1    1.98    0.45
 -14   8  -1    2.40    0.79
 -14  -8  -2    9.75    2.08
 -14   8  -2   12.74    1.39
  14   8   2    8.38    1.90
 -14  -8  -3   10.05    2.31
 -14   8  -3   12.56    1.23
  14   8   3    7.41    1.65
 -14  -8  -4    0.61    0.25
 -14   8  -4    0.91    0.71
 -14  -8  -5    5.73    1.56
 -14   8  -5    9.54    1.45
 -14   8  -6    2.16    0.89
 -14   8  -7   11.20    1.97
  14  10  -5    2.34    0.80
 -14  10   5    3.54    1.38
  14  10  -4    1.15    0.72
 -14  10   4    0.96    0.44
 -14  10   3    0.23    0.30
  14  10  -3   -0.03    0.47
 -14  10   3    0.83    0.38
 -14  10   2    1.27    0.58
  14  10  -2    0.30    0.58
 -14  10   2    1.48    0.73
 -14  10   1    0.91    0.65
  14  10  -1    0.66    0.50
 -14  10   1   -0.18    0.67
 -14  10   0    0.98    0.72
  14  10   0    0.02    0.31
 -14  10   0    0.17    0.68
  14  10   0    0.59    0.47
 -14  10  -1    1.06    0.82
  14  10   1    0.44    0.28
  14  10   1    0.36    0.36
 -14  10  -1    0.33    0.71
 -14  10  -2   11.01    1.75
 -14  10  -2   10.41    1.58
  15   1 -15    0.44    0.50
  15  -1 -15    0.90    0.62
  15  -1 -14    0.89    0.62
  15   1 -14    0.54    0.63
  15  -1 -13    0.39    0.62
  15   1 -13    0.48    0.54
  15   1 -12    0.91    0.74
  15  -1 -12    1.12    0.65
 -15   1  11   -0.14    0.36
  15   1 -11    0.45    0.49
 -15  -1  10    0.91    0.34
 -15   1  10    1.03    0.35
 -15  -1   9    0.67    0.47
 -15   1   9    1.46    0.36
 -15  -1   8    1.12    0.38
 -15   1   8    1.31    0.80
 -15  -1   7    0.36    0.57
 -15   1   7    1.30    0.79
 -15  -1   6    0.37    0.59
 -15   1   6    0.17    0.53
 -15  -1   5    2.85    0.79
 -15   1   5    1.68    0.56
  15  -1  -5    0.96    0.44
 -15  -1   4   18.75    1.39
 -15   1   4   16.56    1.25
  15  -1  -4   15.37    0.76
 -15  -1   3    7.43    0.83
 -15   1   3    7.19    0.78
  15   1  -3    4.89    1.45
  15  -1  -3    6.81    0.56
 -15  -1   2    1.28    0.58
 -15   1   2    1.25    0.84
  15   1  -2    0.57    0.24
 -15  -1   1   -0.15    0.58
 -15   1   1    1.21    0.82
  15   1  -1    0.22    0.31
 -15  -1   0    5.95    0.79
 -15   1   0    5.45    0.77
 -15   1   0    6.94    1.24
 -15  -1  -1    0.71    0.86
 -15   1  -1    0.28    0.66
 -15   1  -1    0.56    0.31
 -15  -1  -2   43.43    1.69
 -15   1  -2   46.32    1.94
 -15   1  -2   40.94    1.28
 -15  -1  -3    0.56    0.59
 -15   1  -3    0.18    0.76
 -15   1  -3   -0.01    0.22
 -15   1  -4   13.61    1.62
 -15  -1  -5    5.28    0.73
 -15   1  -5    4.99    0.89
 -15  -1  -6   32.34    1.78
 -15   1  -6   32.94    1.96
 -15  -1  -7    8.27    0.87
 -15  -1  -8    1.32    0.70
 -15   1  -8    0.83    1.02
 -15  -1  -9    1.05    0.83
 -15   1  -9    0.74    0.75
 -15  -1 -10    1.38    0.86
 -15   1 -10    1.31    0.96
 -15  -1 -11    1.07    0.58
 -15   1 -11    1.18    0.75
  15  -3 -14    0.18    0.34
  15   3 -14    0.57    0.54
  15  -3 -13    0.73    0.33
  15   3 -13    0.54    0.54
  15  -3 -12    1.22    0.39
 -15   3  11    1.81    0.51
  15   3 -11    1.18    0.63
 -15   3  10   13.14    1.07
  15   3 -10   13.73    1.07
 -15  -3   9    5.02    1.16
 -15   3   9    3.67    0.64
 -15  -3   8    2.36    0.65
 -15   3   8    1.09    0.54
 -15  -3   7   15.01    3.08
 -15   3   7   13.23    0.93
 -15  -3   6   15.53    1.90
 -15   3   6   14.36    0.97
 -15  -3   5    0.07    0.69
 -15   3   5    0.21    0.52
 -15  -3   4   22.70    1.23
 -15   3   4   24.94    1.28
 -15  -3   3    2.04    0.66
 -15   3   3    1.46    0.69
 -15  -3   2    4.34    0.84
 -15   3   2    3.70    0.97
 -15   3   2    3.72    1.00
 -15  -3   1   24.43    1.34
 -15   3   1   23.15    1.32
 -15   3   1   22.38    1.92
 -15  -3   0   79.03    2.51
 -15   3   0   83.04    2.89
  15   3   0   76.64    1.93
 -15   3   0   81.75    2.56
 -15   3  -1   46.47    1.88
 -15   3  -1   46.12    1.66
 -15  -3  -2    6.36    0.77
 -15   3  -2    6.75    1.05
 -15   3  -2    5.02    0.60
 -15  -3  -3    6.49    0.78
 -15   3  -3    6.26    1.06
 -15  -3  -4    1.37    0.75
 -15   3  -4    0.30    0.70
 -15  -3  -5   12.20    1.00
 -15   3  -5   11.10    1.17
 -15  -3  -6    1.90    0.58
 -15   3  -6    2.64    1.07
 -15  -3  -7    1.29    0.55
 -15   3  -7    0.89    0.77
 -15  -3  -8   37.63    1.29
 -15   3  -8   41.21    1.76
 -15  -3  -9    1.05    0.46
 -15   3  -9    0.30    0.72
 -15  -3 -10    2.57    0.71
 -15  -3 -11    1.07    0.59
 -15   3 -11    2.01    1.04
  15   5 -13    0.65    0.60
  15   5 -12    0.24    0.79
  15  -5 -12    0.17    0.20
 -15   5  11    0.28    0.27
  15   5 -11    1.16    0.75
  15   5 -10    3.21    0.81
 -15   5   9    3.42    0.42
  15   5  -9    4.38    0.96
 -15   5   8    3.47    0.45
  15   5  -8    1.97    0.74
 -15  -5   7    2.60    0.67
 -15   5   7    1.86    0.46
 -15  -5   6    3.30    0.97
 -15   5   6    3.47    0.63
 -15  -5   5   20.29    3.80
 -15   5   5   19.53    1.22
 -15  -5   4    0.42    0.44
 -15   5   4   -0.07    0.46
 -15   5   4    0.52    0.54
 -15  -5   3    2.76    0.69
 -15   5   3    3.45    0.73
 -15   5   3    4.15    1.00
 -15  -5   2    1.98    0.64
 -15   5   2    1.54    0.87
 -15  -5   1    0.64    0.70
 -15   5   1    2.03    0.99
 -15   5   1    0.63    0.58
 -15  -5   0    3.59    0.58
 -15   5   0    4.14    0.82
 -15   5   0    3.49    0.67
 -15  -5  -1    1.20    0.54
 -15   5  -1    1.96    0.73
 -15   5  -1    2.77    0.68
 -15  -5  -2    5.88    0.66
 -15   5  -2    6.55    1.19
 -15  -5  -3    1.72    0.56
 -15   5  -3    2.30    0.74
 -15  -5  -4    1.79    0.60
 -15   5  -4    2.30    1.12
 -15  -5  -5    3.61    0.66
 -15   5  -5    3.50    1.17
 -15  -5  -6    6.89    0.71
 -15   5  -6    5.61    0.94
 -15  -5  -7   15.17    1.04
 -15   5  -7   15.53    1.54
 -15  -5  -8    0.79    0.41
 -15   5  -8    1.46    0.70
 -15  -5  -9    2.72    0.67
 -15   5 -10    1.20    0.75
  15   7 -11    0.55    0.65
  15   7 -10    0.63    0.68
  15   7  -9    3.49    0.85
 -15   7   8    1.63    0.35
  15   7  -8    2.20    0.64
 -15   7   7    0.21    0.31
  15   7  -7    1.02    0.79
 -15   7   6    1.91    0.47
  15   7  -6    0.59    0.58
 -15   7   5    0.74    0.30
  15   7  -5    0.60    0.75
 -15   7   5    1.76    0.81
 -15  -7   4    2.40    1.30
 -15   7   4    1.77    0.55
 -15   7   4    1.88    0.65
 -15  -7   3    0.31    0.25
 -15   7   3    0.13    0.43
 -15   7   3    0.71    0.72
 -15  -7   2    0.51    0.23
 -15   7   2    1.46    0.67
 -15   7   2    0.99    0.61
 -15  -7   1    0.58    0.25
 -15   7   1    0.26    0.58
 -15   7   1    0.91    0.62
 -15  -7   0    0.33    0.48
 -15   7   0    1.44    0.65
 -15  -7  -1    5.95    1.56
 -15   7  -1    5.45    0.81
  15   7   1    5.54    0.76
 -15   7  -1    6.89    1.00
 -15  -7  -2   13.96    0.78
 -15   7  -2   14.44    1.45
  15   7   2   10.87    1.50
 -15  -7  -3    8.99    0.70
 -15   7  -3   10.64    1.11
 -15  -7  -4    0.49    0.45
 -15   7  -4    1.26    0.88
 -15  -7  -5    8.11    0.77
 -15   7  -5    8.37    1.39
 -15  -7  -6   35.90    3.52
 -15   7  -6   41.29    1.85
 -15   7  -7    8.54    1.74
 -15   7  -8    1.12    0.79
  15   9  -8    2.01    0.90
  15   9  -7    1.89    0.82
  15   9  -6    2.04    0.72
 -15   9   6    1.72    0.65
 -15   9   5    0.14    0.23
  15   9  -5    0.91    0.57
 -15   9   5    0.84    0.54
 -15   9   4    1.93    0.56
  15   9  -4    1.94    0.74
 -15   9   4    2.56    0.74
 -15   9   3    5.08    0.72
  15   9  -3    4.68    0.79
 -15   9   3    4.66    1.68
 -15   9   2    3.09    0.71
  15   9  -2    3.30    0.68
 -15   9   2    2.97    1.09
 -15   9   1    6.75    0.98
  15   9  -1    6.66    0.86
 -15   9   1    5.69    2.20
 -15   9   0   20.80    2.40
  15   9   0   18.72    2.00
 -15   9   0   19.85    2.39
 -15   9  -1   10.31    1.44
  15   9   1    9.18    1.17
  15   9   1    9.31    1.28
 -15   9  -2    1.21    0.67
  15   9   2    0.15    0.28
 -15   9  -2    1.41    0.67
 -15   9  -3    0.39    0.73
  15   9   3    0.63    0.35
 -15   9  -4    0.57    0.76
  16   0 -15    0.37    0.51
  16   0 -14    0.92    0.74
  16   0 -13    0.54    0.51
  16   0 -12    1.51    0.82
 -16   0  11    6.92    1.42
 -16   0  10    9.43    2.49
 -16   0   9    1.90    0.58
 -16   0   8    8.97    0.94
 -16   0   7   34.86    1.30
 -16   0   6  104.92    3.29
 -16   0   5   32.18    1.47
  16   0  -5   31.42    1.25
 -16   0   4    9.82    0.96
  16   0  -4    6.97    1.78
 -16   0   3   21.88    1.42
  16   0  -3   19.47    1.30
 -16   0   2   27.86    1.25
  16   0  -2   25.47    0.80
 -16   0   1   12.13    1.00
 -16   0   0   40.06    1.82
 -16   0  -1    3.10    0.78
 -16   0  -2   11.08    0.99
 -16   0  -3   74.38    2.57
 -16   0  -3   68.19    1.81
 -16   0  -4    6.60    0.86
 -16   0  -4    6.68    0.69
 -16   0  -5    0.00    0.64
 -16   0  -5    0.40    0.17
 -16   0  -6   62.41    3.21
 -16   0  -7    5.72    1.06
 -16   0  -8    1.44    0.66
 -16   0  -9    7.44    0.97
 -16   0 -10    4.26    1.01
 -16   0 -11    2.28    0.87
  16   2 -14    0.24    0.53
  16  -2 -14    0.85    0.57
  16   2 -13    0.59    0.54
  16  -2 -13    0.70    0.46
  16   2 -12    1.65    0.80
 -16   2  11    2.50    0.80
 -16  -2  10    0.44    0.38
 -16   2  10    0.65    0.35
 -16  -2   9    0.51    0.32
 -16   2   9    0.36    0.41
 -16  -2   8    0.54    0.41
 -16   2   8    0.06    0.39
 -16  -2   7    0.60    0.58
 -16   2   7    0.73    0.54
 -16  -2   6    0.74    0.90
 -16   2   6    0.89    0.82
 -16  -2   5    0.83    0.94
 -16   2   5    0.50    0.63
 -16  -2   4   12.43    1.07
 -16   2   4   13.54    0.96
 -16  -2   3    4.45    0.78
 -16   2   3    5.10    0.85
 -16  -2   2    4.01    0.74
 -16   2   2    5.62    0.81
  16   2  -2    3.53    0.66
 -16  -2   1   13.18    0.96
 -16   2   1   13.04    1.14
 -16   2   1   15.26    2.17
  16   2  -1   13.05    0.56
 -16  -2   0   43.61    1.71
 -16   2   0   48.32    2.12
 -16   2   0   41.87    1.76
 -16  -2  -1   19.93    1.20
 -16   2  -1   19.67    1.54
 -16   2  -1   18.69    1.03
 -16  -2  -2    0.05    0.56
 -16   2  -2    0.15    0.75
 -16   2  -2    0.38    0.51
 -16  -2  -3    1.05    0.82
 -16   2  -3   -0.29    0.69
 -16   2  -3    0.26    0.30
 -16  -2  -4   10.87    1.08
 -16   2  -4   10.25    1.06
 -16  -2  -5   12.74    0.99
 -16   2  -5   11.89    1.10
 -16  -2  -6    2.74    0.71
 -16   2  -6    2.70    0.66
 -16  -2  -7   -0.50    0.54
 -16   2  -7    0.61    0.69
 -16  -2  -8    1.91    0.68
 -16   2  -8    3.04    0.90
 -16  -2  -9    3.30    0.60
 -16   2  -9    3.41    0.94
 -16  -2 -10    1.74    0.68
 -16   2 -10    1.61    0.83
 -16  -2 -11    0.83    0.49
 -16   2 -11    0.62    0.67
  16   4 -13    0.69    0.91
  16  -4 -13    0.59    0.29
  16   4 -12    1.30    0.63
  16  -4 -12    2.40    0.55
 -16   4  11    2.68    0.90
  16   4 -11    1.23    0.67
 -16   4  10    2.40    0.71
  16   4 -10    2.65    0.91
 -16   4   9    1.08    0.49
  16   4  -9    2.24    0.77
 -16  -4   8    1.93    0.65
 -16   4   8    1.39    0.48
 -16  -4   7   -0.50    0.53
 -16   4   7    0.65    0.64
 -16  -4   6    2.95    0.78
 -16   4   6    2.36    0.64
 -16  -4   5    5.31    0.70
 -16   4   5    4.88    0.62
 -16  -4   4    8.13    1.05
 -16   4   4    7.45    0.72
 -16  -4   3    3.95    0.76
 -16   4   3    3.18    0.84
 -16   4   3    3.71    0.94
 -16  -4   2    3.06    0.76
 -16   4   2    3.24    0.85
 -16   4   2    3.81    1.20
 -16   4   1   28.94    1.46
 -16   4   1   32.81    1.43
 -16  -4   0  105.42    1.84
 -16   4   0  107.10    2.31
 -16   4   0  103.94    2.65
 -16  -4  -1   14.61    0.92
 -16   4  -1   18.81    1.52
 -16   4  -1   16.53    0.97
 -16  -4  -2    5.92    0.77
 -16   4  -2    4.53    0.88
 -16   4  -2    6.40    0.81
 -16  -4  -3    0.45    0.51
 -16   4  -3    1.03    0.68
 -16  -4  -4   25.04    1.58
 -16   4  -4   28.66    1.85
 -16  -4  -5    5.87    0.69
 -16   4  -5    5.24    1.09
 -16   4  -6    3.84    0.95
 -16  -4  -7    1.81    0.56
 -16   4  -7    0.87    1.00
 -16  -4  -8    0.20    0.37
 -16   4  -8    0.59    0.74
 -16  -4  -9    0.44    0.38
 -16   4  -9    0.66    1.11
 -16  -4 -10    0.32    0.38
 -16   4 -10    1.81    1.09
  16   6 -12    1.50    0.87
  16   6 -11    3.90    1.12
 -16   6  10    5.69    1.75
  16   6 -10    6.87    0.82
 -16   6   9    7.24    0.66
  16   6  -9    4.66    0.87
 -16   6   8    6.07    0.53
  16   6  -8    9.05    1.30
 -16   6   7   24.76    0.93
  16   6  -7   26.63    1.64
 -16  -6   6   57.71    1.75
 -16   6   6   57.21    1.38
 -16  -6   5   17.09    3.72
 -16   6   5   16.26    0.85
 -16   6   5   17.26    3.44
 -16   6   4    8.37    0.92
 -16   6   4    6.47    2.11
 -16  -6   3   15.31    2.92
 -16   6   3   12.94    1.06
 -16   6   3   13.82    2.67
 -16  -6   2   11.99    3.19
 -16   6   2   12.39    1.17
 -16   6   2   12.40    3.02
 -16  -6   1    3.97    0.58
 -16   6   1    4.13    0.78
 -16   6   1    5.53    1.13
 -16  -6   0   -0.49    0.49
 -16   6   0    0.78    0.87
 -16   6   0    1.11    0.60
 -16  -6  -1    1.11    0.67
 -16   6  -1    1.12    0.68
  16   6   1    1.05    0.31
 -16   6  -1    1.23    0.56
 -16  -6  -2    2.70    0.51
 -16   6  -2    3.09    1.06
 -16  -6  -3    4.03    0.54
 -16   6  -3    2.78    0.80
 -16  -6  -4    2.84    0.65
 -16   6  -4    2.91    0.96
 -16  -6  -5    6.92    0.79
 -16   6  -5    8.73    1.09
 -16  -6  -6   42.70    1.31
 -16   6  -6   44.18    1.78
 -16  -6  -7    8.58    1.08
 -16   6  -7    8.21    1.38
 -16  -6  -8    0.68    0.27
 -16   6  -8    0.92    0.75
  16   8  -9    0.33    0.67
  16   8  -8    1.45    0.85
 -16   8   7    0.50    0.27
  16   8  -7    0.42    0.78
 -16   8   6    2.57    0.54
  16   8  -6    1.72    0.79
 -16   8   5    0.41    0.31
  16   8  -5    1.40    0.80
 -16   8   5    0.21    0.25
 -16   8   4    2.31    0.61
  16   8  -4    1.89    0.66
 -16   8   4    2.95    1.15
 -16   8   3    0.78    0.43
  16   8  -3    1.58    0.58
 -16   8   3    2.19    0.85
 -16  -8   2    3.27    0.88
 -16   8   2    3.83    0.63
 -16   8   2    2.75    0.76
 -16  -8   1    6.68    1.16
 -16   8   1    5.20    0.78
 -16  -8   0   10.54    2.97
 -16   8   0   13.09    1.27
 -16   8   0   15.09    1.65
 -16  -8  -1    6.54    1.60
 -16   8  -1    7.88    1.00
  16   8   1    5.00    1.67
 -16   8  -1    9.90    1.06
 -16  -8  -2    0.17    0.19
 -16   8  -2    1.62    0.95
 -16   8  -2    0.53    0.53
 -16  -8  -3    0.40    0.28
 -16   8  -3    1.00    0.71
 -16  -8  -4    2.15    0.84
 -16   8  -4    4.23    1.22
 -16  -8  -5    4.99    1.70
 -16   8  -5    8.58    1.41
 -16   8  -6    2.16    0.85
 -16  10   2    2.46    0.76
  16  10  -2    2.35    0.70
 -16  10   2    1.78    1.13
 -16  10   1    9.91    1.34
  16  10  -1   13.21    1.57
 -16  10   1   12.06    2.55
  17  -1 -14    0.60    0.43
  17   1 -14    0.66    0.55
  17  -1 -13    0.89    0.47
  17   1 -13    1.70    0.62
  17  -1 -12    3.49    0.82
  17   1 -12    2.88    0.84
 -17   1  11   -0.12    0.45
 -17  -1  11    0.95    0.38
 -17  -1  10    0.63    0.40
 -17   1  10    0.50    0.38
 -17  -1   9    1.76    0.48
 -17   1   9    0.75    0.69
 -17  -1   8    0.56    0.51
 -17   1   8    0.33    0.70
 -17  -1   7   -0.13    0.55
 -17   1   7    0.60    0.54
 -17  -1   6    5.03    0.75
 -17   1   6    4.86    0.79
 -17  -1   5    2.98    0.71
 -17   1   5    2.40    0.71
 -17  -1   4    3.88    0.77
 -17   1   4    2.48    0.70
  17   1  -4    2.10    0.90
  17  -1  -4    2.71    0.43
 -17  -1   3   13.65    1.07
 -17   1   3   11.25    0.93
  17   1  -3   12.35    0.77
  17  -1  -3   11.36    0.68
 -17  -1   2    7.40    0.93
 -17   1   2    7.47    1.04
  17   1  -2    6.47    0.88
 -17  -1   1   47.13    1.88
 -17   1   1   45.94    2.02
 -17  -1   0  113.70    7.27
 -17   1   0  110.41    3.37
 -17  -1  -1   27.18    1.36
 -17   1  -1   29.86    1.85
 -17   1  -1   28.30    1.37
 -17  -1  -2   69.75    1.75
 -17   1  -2   77.17    2.11
 -17   1  -2   71.04    1.21
 -17  -1  -3   18.16    1.14
 -17   1  -3   17.96    1.07
 -17   1  -3   16.90    0.87
 -17   1  -4   21.04    1.57
 -17   1  -4   21.48    1.04
 -17  -1  -5   12.91    1.07
 -17   1  -5   16.37    1.49
 -17  -1  -6    1.17    0.85
 -17   1  -6    1.20    0.81
 -17  -1  -7    2.61    0.87
 -17   1  -7    0.43    0.60
 -17  -1  -8    0.75    0.77
 -17   1  -8    0.69    0.65
 -17  -1  -9    0.93    0.62
 -17   1  -9    0.90    0.63
 -17  -1 -10    0.98    0.85
 -17   1 -10    1.24    0.66
  17   3 -14    1.18    0.83
  17  -3 -14    0.89    0.57
  17   3 -13    1.11    0.57
  17  -3 -13    0.48    0.51
 -17   3  12    0.71    0.36
 -17   3  11   -0.05    0.34
  17   3 -11   -0.42    0.59
 -17  -3  10    1.23    0.64
 -17   3  10    0.57    0.32
 -17  -3   9    0.33    0.54
 -17   3   9    0.16    0.38
 -17  -3   8    0.90    0.54
 -17   3   8    1.85    0.58
 -17  -3   7   16.25    3.63
 -17   3   7   16.76    1.15
 -17  -3   6   67.52    3.21
 -17   3   6   73.35    1.66
 -17  -3   5    3.66    0.75
 -17   3   5    3.37    0.87
 -17  -3   4    2.26    0.74
 -17   3   4    2.10    0.88
 -17  -3   3    8.09    0.86
 -17   3   3    6.51    0.82
 -17   3   2    0.39    0.65
 -17   3   2    1.12    0.40
 -17  -3   1   12.97    0.98
 -17   3   1   11.91    0.99
  17   3  -1   12.48    0.47
 -17   3   1   13.08    0.92
 -17  -3   0   70.50    1.69
 -17   3   0   71.65    2.01
 -17   3   0   64.99    1.89
 -17  -3  -1   -0.04    0.54
 -17   3  -1   -0.16    0.66
 -17   3  -1   -0.14    0.44
 -17  -3  -2    1.34    0.73
 -17   3  -2    0.27    0.70
 -17   3  -2    0.59    0.58
 -17  -3  -3   11.37    0.93
 -17   3  -3   10.91    1.48
 -17   3  -3    9.08    0.71
 -17  -3  -4    0.67    0.67
 -17   3  -4    0.39    0.72
 -17  -3  -5   33.84    1.26
 -17   3  -5   36.67    1.60
 -17  -3  -6   90.22    2.08
 -17   3  -6   88.69    2.29
 -17  -3  -7    5.50    0.82
 -17   3  -7    6.30    1.35
 -17  -3  -8   35.19    1.38
 -17   3  -8   30.13    1.72
 -17  -3  -9   19.02    2.25
 -17   3  -9   16.63    2.09
 -17  -3 -10   21.51    2.08
 -17   3 -10   24.96    2.63
  17   5 -12   -0.12    0.53
  17  -5 -12    0.76    0.46
 -17   5  11    0.28    0.19
  17   5 -11    0.21    0.52
 -17   5  10    0.37    0.26
  17   5 -10    0.09    0.53
 -17   5   9    0.53    0.28
  17   5  -9   -0.03    0.63
 -17  -5   8    0.67    0.38
 -17   5   8    0.01    0.31
 -17  -5   7    1.10    0.37
 -17   5   7    0.83    0.48
 -17  -5   6    6.22    1.35
 -17   5   6    5.73    0.77
 -17  -5   5    9.88    2.55
 -17   5   5    8.68    0.89
 -17  -5   4    7.96    0.86
 -17   5   4    7.38    0.82
 -17   5   4    8.49    1.69
 -17  -5   3    6.96    0.90
 -17   5   3    5.63    0.85
 -17   5   3    7.23    1.26
 -17  -5   2   16.02    1.11
 -17   5   2   15.34    1.17
 -17   5   2   15.45    2.61
 -17  -5   1   10.07    0.91
 -17   5   1   10.18    0.93
 -17   5   1   10.81    1.82
 -17  -5   0   33.13    1.79
 -17   5   0   27.66    1.64
 -17   5   0   29.93    1.66
 -17  -5  -1   13.28    1.13
 -17   5  -1   12.99    1.21
 -17   5  -1   12.48    1.22
 -17  -5  -2   13.06    1.21
 -17   5  -2   11.73    1.36
 -17   5  -2   12.34    1.04
 -17  -5  -3    4.21    0.61
 -17   5  -3    4.67    0.86
 -17  -5  -4   13.10    0.81
 -17   5  -4   13.86    1.17
 -17  -5  -5   11.11    0.82
 -17   5  -5   13.06    1.61
 -17  -5  -6    1.57    0.54
 -17   5  -6    1.35    1.06
 -17  -5  -7    0.98    0.41
 -17   5  -7    0.15    0.68
 -17  -5  -8    0.77    0.58
 -17   5  -8   -0.05    0.70
 -17  -5  -9    0.59    0.39
 -17   5  -9    0.25    0.71
  17   7 -10    0.11    0.64
  17   7  -9    1.20    0.65
 -17   7   8    0.33    0.29
  17   7  -8    0.71    0.59
 -17   7   7    3.05    0.55
  17   7  -7    2.64    0.78
 -17   7   6    0.63    0.41
  17   7  -6    1.14    0.78
 -17  -7   5   -0.23    0.38
 -17   7   5    0.28    0.38
 -17   7   5    0.44    0.49
 -17  -7   4    1.00    0.45
 -17   7   4    1.30    0.65
 -17   7   4    0.00    0.68
 -17  -7   3    1.10    0.45
 -17   7   3    0.68    0.62
 -17  -7   2    1.02    0.35
 -17   7   2    0.98    0.70
 -17   7   2    1.82    0.95
 -17  -7   1   18.33    2.89
 -17   7   1   18.14    1.26
 -17   7   1   17.95    4.02
 -17  -7   0   16.80    3.15
 -17   7   0   14.42    1.11
 -17   7   0   14.46    1.56
  17   7   0   16.05    0.65
 -17   7  -1   14.01    1.54
 -17   7  -1   11.78    1.22
 -17  -7  -2   15.94    1.07
 -17   7  -2   19.70    1.55
 -17   7  -2   20.18    1.56
 -17  -7  -3    2.91    0.49
 -17   7  -3    4.78    0.98
 -17  -7  -4   18.22    0.87
 -17   7  -4   15.92    1.31
 -17  -7  -5    0.75    0.50
 -17   7  -5    0.50    1.01
 -17  -7  -6    1.24    0.47
 -17   7  -6    0.98    0.83
 -17   7  -7    0.42    0.83
  17   9  -6   10.19    1.39
 -17   9   5    1.57    0.51
  17   9  -5    1.94    0.85
 -17   9   5    1.77    0.81
 -17   9   4    0.67    0.50
  17   9  -4    0.50    0.53
 -17   9   4    0.72    0.53
 -17   9   3    1.63    0.62
  17   9  -3    0.88    0.50
 -17   9   3    1.42    0.73
 -17   9   2    0.26    0.44
  17   9  -2    0.58    0.48
 -17   9   2   -0.59    0.66
  17   9  -1    1.52    0.65
 -17   9   0    5.58    1.19
  17   9   0    5.01    0.91
 -17   9   0    4.95    1.55
 -17   9  -1    1.65    0.81
  17   9   1    1.10    0.55
 -17   9  -1    0.42    0.59
 -17  -9  -2    0.51    0.21
 -17   9  -2    0.44    0.60
 -17   9  -2    1.15    0.83
 -17  -9  -3    0.43    0.21
 -17   9  -3    1.19    0.84
 -17   9  -3    1.35    0.85
  18   0 -14    0.97    0.56
  18   0 -13    2.36    0.78
 -18   0  11    0.65    0.32
 -18   0  10    1.01    0.47
 -18   0   9    0.09    0.46
 -18   0   8    0.26    0.47
 -18   0   7    2.93    0.69
 -18   0   6   12.23    0.88
 -18   0   5    1.22    0.58
 -18   0   4   -0.02    0.57
  18   0  -4    0.28    0.26
 -18   0   3    3.90    0.90
  18   0  -3    3.19    0.49
 -18   0   2    6.08    0.98
 -18   0   1   89.84    2.95
 -18   0   0   56.08    2.20
 -18   0  -1    2.96    0.84
 -18   0  -2   36.42    1.50
 -18   0  -3   62.07    2.99
 -18   0  -4   29.16    1.72
 -18   0  -5   14.79    1.24
 -18   0  -5   12.31    0.66
 -18   0  -6   23.45    1.38
 -18   0  -6   20.08    0.36
 -18   0  -7    0.62    0.68
 -18   0  -8   10.03    1.14
 -18   0  -9    2.65    1.03
 -18   0 -10   25.09    2.58
  18   2 -14    0.80    0.85
  18  -2 -14    1.24    0.70
  18   2 -13    0.71    0.53
  18  -2 -13    0.31    0.46
 -18   2  12    0.88    0.27
  18   2 -12    0.84    0.56
 -18  -2  11    0.69    0.53
 -18   2  11    0.63    0.32
 -18  -2  10    0.94    0.50
 -18   2  10    1.19    0.50
 -18  -2   9    0.84    0.29
 -18   2   9    1.98    0.67
 -18  -2   8    5.04    1.03
 -18   2   8    4.46    0.82
 -18  -2   7   18.06    1.20
 -18   2   7   18.66    1.29
 -18  -2   6    5.10    0.79
 -18   2   6    5.43    0.81
 -18  -2   5    0.72    0.89
 -18   2   5    0.25    0.57
 -18  -2   4    7.20    0.80
 -18   2   4    7.43    0.79
 -18  -2   3    4.39    0.78
 -18   2   3    3.28    0.87
  18   2  -3    2.48    0.89
 -18  -2   2    1.57    0.78
 -18   2   2    1.68    0.68
  18   2  -2    1.62    0.47
 -18  -2   1    1.08    0.68
 -18   2   1    3.18    0.78
 -18  -2   0   20.16    1.33
 -18   2   0   19.42    1.44
 -18   2   0   18.97    0.81
 -18  -2  -1    0.17    0.59
 -18   2  -1    0.88    1.02
 -18   2  -1    0.26    0.21
 -18  -2  -2    7.92    1.18
 -18   2  -2    5.13    0.78
 -18   2  -2    7.61    1.07
 -18  -2  -3    2.43    0.61
 -18   2  -3    3.64    0.82
 -18   2  -3    2.89    0.48
 -18  -2  -4    2.58    0.63
 -18   2  -4    3.04    0.78
 -18   2  -4    4.05    0.50
 -18  -2  -5    2.05    0.77
 -18   2  -5    1.39    0.67
 -18  -2  -6    2.31    0.58
 -18   2  -6    3.20    0.78
 -18  -2  -7    3.33    0.82
 -18   2  -7    2.74    0.94
 -18  -2  -8    2.89    0.66
 -18  -2  -9    0.62    0.51
 -18   2  -9    1.80    0.99
 -18  -2 -10    0.66    0.49
 -18   2 -10    1.91    0.93
  18   4 -13    0.85    0.90
  18  -4 -13    0.22    0.30
 -18   4  12    0.33    0.26
  18   4 -12    0.88    0.62
 -18   4  11    0.74    0.22
  18   4 -11    0.90    0.83
 -18   4  10    0.59    0.32
  18   4 -10    0.49    0.82
 -18  -4   9    1.90    0.55
 -18   4   9    0.98    0.47
 -18  -4   8    9.24    1.81
 -18   4   8    9.71    0.80
 -18  -4   7   27.19    2.44
 -18   4   7   29.17    1.14
 -18  -4   6    5.65    1.54
 -18   4   6    5.35    0.75
 -18  -4   5    6.35    0.81
 -18   4   5    7.18    0.80
 -18  -4   4    4.88    0.65
 -18   4   4    5.17    0.73
 -18  -4   3   10.42    0.99
 -18   4   3   10.85    1.20
 -18   4   3   10.31    2.30
 -18  -4   2    3.48    0.73
 -18   4   2    3.22    0.88
 -18   4   2    3.47    1.00
 -18   4   1    5.32    1.02
 -18   4   1    6.92    1.81
 -18  -4   0    3.73    0.66
 -18   4   0    4.63    0.89
 -18   4   0    4.99    1.46
 -18  -4  -1    0.04    0.49
 -18   4  -1   -0.06    0.63
 -18   4  -1    0.31    0.18
 -18  -4  -2    4.05    0.66
 -18   4  -2    4.19    1.03
 -18   4  -2    3.86    0.63
 -18  -4  -3    0.08    0.42
 -18   4  -3    0.40    0.69
 -18   4  -3   -0.09    0.41
 -18  -4  -4    1.12    0.67
 -18   4  -4    0.67    0.72
 -18  -4  -5    8.41    0.79
 -18   4  -5    6.16    0.94
 -18  -4  -6    1.42    0.67
 -18   4  -6    1.99    0.74
 -18  -4  -7    0.61    0.42
 -18   4  -7    1.54    0.95
 -18  -4  -8    1.06    0.79
 -18   4  -8    1.06    0.92
 -18  -4  -9    4.59    0.77
 -18   4  -9    2.47    0.82
  18   6 -11    0.54    0.61
 -18   6  10    0.47    0.30
  18   6 -10    1.41    0.83
 -18   6   9    0.67    0.32
  18   6  -9    1.77    0.89
 -18   6   8    1.04    0.41
  18   6  -8    1.43    0.84
 -18  -6   7    1.09    0.54
 -18   6   7    1.06    0.56
 -18  -6   6    3.01    0.96
 -18   6   6    2.05    0.57
 -18  -6   5    1.01    0.43
 -18   6   5    0.34    0.42
 -18   6   4    1.77    0.77
 -18   6   4    0.73    0.34
 -18  -6   3   -0.16    0.54
 -18   6   3    1.43    0.72
 -18   6   3    1.13    0.90
 -18   6   2    5.71    0.90
 -18   6   2    4.76    1.79
 -18  -6   1   35.91    1.35
 -18   6   1   37.73    1.47
 -18   6   1   37.84    1.65
 -18  -6   0   23.74    1.07
 -18   6   0   24.09    1.34
 -18   6   0   21.90    1.21
  18   6   0   23.69    0.53
 -18  -6  -1    8.26    0.73
 -18   6  -1    8.59    1.03
 -18   6  -1    8.60    1.07
 -18  -6  -2    8.47    0.85
 -18   6  -2    7.92    0.99
 -18   6  -2    7.48    1.00
 -18  -6  -3   29.58    1.19
 -18   6  -3   28.59    1.47
 -18   6  -3   28.00    1.29
 -18  -6  -4   22.00    1.37
 -18   6  -4   21.34    1.62
 -18  -6  -5    5.38    0.61
 -18   6  -5    5.13    1.11
 -18  -6  -6    3.28    0.69
 -18   6  -6    4.43    1.13
 -18  -6  -7    1.06    0.43
 -18   6  -7    1.04    0.76
  18   8  -8    1.01    0.62
 -18   8   7    1.61    0.48
  18   8  -7    1.66    0.84
 -18   8   6    0.72    0.38
  18   8  -6    0.89    0.79
 -18   8   5    0.87    0.47
  18   8  -5    0.51    0.56
 -18   8   5   -0.08    0.63
 -18   8   4    0.83    0.55
  18   8  -4    0.62    0.81
 -18   8   4    1.14    0.78
 -18  -8   3    1.27    0.77
 -18   8   3    1.66    0.66
 -18  -8   2    3.14    1.01
 -18   8   2    4.41    0.86
 -18   8   2    3.58    1.69
 -18  -8   1    0.63    0.30
 -18   8   1   -0.06    0.50
 -18   8   1    0.45    0.35
 -18  -8   0    0.93    0.38
 -18   8   0    1.63    0.65
 -18   8   0    1.35    0.45
 -18  -8  -1    0.52    0.55
 -18   8  -1    0.81    0.85
 -18   8  -1    0.48    0.56
 -18  -8  -2    0.96    0.27
 -18   8  -2    1.30    0.65
 -18   8  -2    1.63    0.97
 -18  -8  -3    1.55    0.57
 -18   8  -3    1.86    0.92
 -18   8  -3    2.05    0.68
 -18  -8  -4    0.78    0.29
 -18   8  -4   -0.32    0.66
  19  -1 -14    0.65    0.62
  19   1 -14    1.14    0.55
  19  -1 -13    0.31    0.51
  19   1 -13   -0.07    0.58
 -19   1  12    0.02    0.33
  19   1 -12    0.19    0.57
 -19  -1  11    1.15    0.48
 -19   1  11    0.52    0.37
 -19  -1  10    0.85    0.41
 -19   1  10    1.07    0.37
 -19  -1   9    2.49    0.70
 -19   1   9    2.48    0.63
 -19  -1   8    6.70    1.03
 -19   1   8    5.54    0.78
 -19  -1   7   27.47    1.61
 -19   1   7   28.33    1.60
 -19  -1   6   14.60    1.10
 -19   1   6   15.85    1.15
 -19  -1   5    5.29    0.96
 -19   1   5    6.08    0.81
 -19  -1   4   17.22    1.09
 -19   1   4   15.73    0.96
  19   1  -4   11.23    1.62
 -19  -1   3   44.76    1.45
 -19   1   3   43.26    1.57
  19   1  -3   38.44    1.36
 -19  -1   2   35.73    1.39
 -19   1   2   34.52    1.36
  19   1  -2   33.38    0.75
 -19  -1   1   14.59    1.03
 -19   1   1   15.89    1.12
 -19  -1   0   49.05    1.49
 -19   1   0   46.75    1.55
 -19  -1  -1   36.43    2.05
 -19   1  -1   36.76    2.00
 -19  -1  -2    1.42    0.61
 -19   1  -2    1.25    0.67
 -19  -1  -3    1.91    0.60
 -19   1  -3    1.93    0.84
 -19   1  -4   19.41    1.50
 -19  -1  -5   25.91    1.34
 -19   1  -5   24.79    1.30
 -19  -1  -6    4.56    0.94
 -19   1  -6    5.08    0.84
 -19  -1  -7    5.59    0.80
 -19   1  -7    5.47    0.91
 -19  -1  -8    0.82    0.57
 -19   1  -8    1.30    0.61
 -19  -1  -9   21.02    2.32
 -19   1  -9   19.39    2.24
  19   3 -13    2.60    0.94
  19  -3 -13    1.85    0.58
 -19   3  12    3.17    0.86
 -19   3  11    2.67    0.66
  19   3 -11    2.05    0.82
 -19  -3  10    6.22    1.76
 -19   3  10    5.73    0.69
 -19  -3   9    9.13    1.78
 -19   3   9    8.06    0.84
 -19  -3   8    4.92    0.95
 -19   3   8    4.00    0.66
 -19  -3   7    2.15    0.58
 -19   3   7    1.79    0.58
 -19  -3   6    1.68    0.51
 -19   3   6    1.54    0.59
 -19  -3   5    0.26    0.55
 -19   3   5    1.10    0.49
 -19  -3   4    0.65    0.58
 -19   3   4    0.13    0.56
 -19  -3   3    2.49    0.61
 -19   3   3    2.68    0.66
 -19  -3   2    1.51    0.85
 -19   3   2   -0.19    0.56
  19   3  -2    0.15    0.13
 -19  -3   1   47.60    2.39
 -19   3   1   49.80    2.55
 -19   3   1   47.81    2.75
 -19  -3   0    7.26    0.84
 -19   3   0    8.39    1.10
 -19   3   0    8.88    1.70
 -19  -3  -1    3.34    0.77
 -19   3  -1    2.33    0.76
 -19   3  -1    3.12    0.91
 -19  -3  -2    2.95    0.82
 -19   3  -2    1.37    1.00
 -19   3  -2    2.07    0.65
 -19  -3  -3   41.71    1.41
 -19   3  -3   37.29    1.51
 -19   3  -3   38.32    1.02
 -19  -3  -4   39.86    1.38
 -19   3  -4   43.02    1.75
 -19   3  -4   41.35    1.11
 -19  -3  -5    1.85    0.61
 -19   3  -5    1.29    1.02
 -19  -3  -6    7.14    0.85
 -19   3  -6    7.54    1.09
 -19  -3  -7    2.80    0.61
 -19   3  -7    2.15    0.73
 -19  -3  -8    0.35    0.45
 -19   3  -8    1.32    1.01
 -19  -3  -9    1.35    0.79
 -19   3  -9    0.58    1.03
  19   5 -12    0.65    0.55
 -19   5  11    0.38    0.23
  19   5 -11    0.59    0.51
 -19   5  10    0.05    0.27
  19   5 -10   -0.25    0.53
 -19   5   9   -0.05    0.30
 -19  -5   8   -0.41    0.49
 -19   5   8    0.22    0.33
 -19  -5   7    9.08    1.94
 -19   5   7    7.01    0.81
 -19  -5   6    3.78    0.80
 -19   5   6    2.59    0.61
 -19  -5   5    1.03    0.66
 -19   5   5    0.62    0.46
 -19  -5   4    6.92    0.80
 -19   5   4    6.85    0.84
 -19  -5   3    9.77    0.91
 -19   5   3   10.79    0.99
 -19   5   3    7.96    1.74
 -19  -5   2   26.66    1.50
 -19   5   2   27.65    1.31
 -19   5   2   26.38    2.46
 -19  -5   1   15.47    1.33
 -19   5   1   15.28    1.29
 -19   5   1   12.76    2.47
 -19  -5   0    9.99    1.00
 -19   5   0   12.58    1.13
 -19   5   0    9.48    2.29
 -19  -5  -1   10.72    0.82
 -19   5  -1   13.66    1.15
 -19   5  -1   11.25    2.34
 -19  -5  -2    1.25    0.62
 -19   5  -2    1.12    0.92
 -19   5  -2    0.88    0.65
 -19  -5  -3    6.45    0.88
 -19   5  -3    5.19    0.95
 -19  -5  -4    1.71    0.62
 -19   5  -4    2.04    0.98
 -19  -5  -5   14.99    0.97
 -19   5  -5   14.67    1.29
 -19  -5  -6    2.46    0.62
 -19   5  -6    2.55    1.05
 -19  -5  -7    1.91    0.56
  19   7  -9    0.79    0.67
 -19   7   8    0.63    0.37
  19   7  -8    0.80    0.63
 -19   7   7    6.18    0.92
  19   7  -7    5.78    1.19
 -19   7   6    2.15    0.61
 -19  -7   5    0.24    0.19
 -19   7   5    1.21    0.42
 -19  -7   4    3.87    1.05
 -19   7   4    3.09    0.72
 -19   7   4    2.65    0.90
 -19  -7   3    6.85    1.65
 -19   7   3    6.70    1.06
 -19   7   3    5.91    1.70
 -19  -7   2    2.46    0.58
 -19   7   2    2.58    0.68
 -19   7   2    1.83    0.78
 -19  -7   1    2.17    0.59
 -19   7   1    1.60    0.76
 -19   7   1    1.16    0.65
 -19  -7   0    1.35    0.64
 -19   7   0    0.81    0.87
 -19   7   0    0.43    0.40
 -19  -7  -1    0.64    0.40
 -19   7  -1    0.47    0.60
 -19   7  -1    1.13    0.53
 -19  -7  -2    0.79    0.58
 -19   7  -2    1.37    0.79
 -19   7  -2    0.44    0.46
 -19  -7  -3    5.13    0.81
 -19   7  -3    5.37    1.11
 -19   7  -3    6.98    1.32
 -19  -7  -4    0.50    0.36
 -19   7  -4    2.15    0.95
 -19   7  -4    1.75    0.77
 -19  -7  -5    4.88    0.74
 -19   7  -5    6.79    1.48
  19   9  -4   -0.46    0.55
 -19   9   3    1.01    0.46
  19   9  -3    0.40    0.52
 -19   9   3    0.46    0.65
 -19   9   2    0.03    0.48
  19   9  -2    0.44    0.53
 -19   9   2    1.02    0.85
 -19   9   1    6.14    1.16
  19   9  -1    4.97    0.89
 -19   9   1    4.95    1.82
  20   0 -13   -0.05    0.49
 -20   0  12    0.65    0.36
 -20   0  11    1.02    0.50
 -20   0  10    3.39    0.85
 -20   0   9    2.10    0.63
 -20   0   8    0.38    0.50
 -20   0   7    0.13    0.53
 -20   0   6    1.65    0.80
 -20   0   5    3.22    0.70
 -20   0   4   17.32    1.36
  20   0  -4   14.07    0.89
 -20   0   3   59.23    2.90
  20   0  -3   49.16    2.16
 -20   0   2   10.51    1.06
 -20   0   1    0.35    0.60
 -20   0   0   29.04    1.77
 -20   0  -1    0.24    0.59
 -20   0  -2    0.53    0.58
 -20   0  -3   57.60    2.98
 -20   0  -4   13.69    1.06
 -20   0  -6   12.56    1.25
 -20   0  -7    1.97    0.78
 -20   0  -8    1.21    1.00
 -20   0  -9   22.81    2.31
  20   2 -13    0.71    0.56
 -20   2  12    0.73    0.29
  20   2 -12    1.12    0.56
 -20  -2  11    1.65    0.60
 -20   2  11    2.20    0.71
 -20  -2  10    3.10    0.99
 -20   2  10    4.76    0.83
 -20  -2   9    5.47    1.29
 -20   2   9    4.83    0.68
 -20  -2   8    4.71    0.81
 -20   2   8    5.31    0.85
 -20  -2   7    0.69    0.54
 -20   2   7   -0.16    0.41
 -20  -2   6    3.31    0.57
 -20   2   6    3.82    0.72
 -20  -2   5   -0.45    0.55
 -20   2   5    0.86    0.68
 -20  -2   4    0.87    0.57
 -20   2   4    0.49    0.54
  20   2  -4    0.31    0.29
 -20  -2   3    2.94    0.69
 -20   2   3    3.25    0.76
  20   2  -3    1.05    0.60
 -20  -2   2    1.95    0.59
 -20   2   2    1.16    0.83
 -20  -2   1    0.60    0.82
 -20   2   1    0.89    0.84
 -20  -2   0   -0.17    0.52
 -20   2   0    0.71    0.86
 -20  -2  -1    0.81    0.77
 -20   2  -1    0.41    0.63
 -20   2  -1   -0.01    0.25
 -20   2  -2    1.65    0.66
 -20   2  -2    0.84    0.39
 -20  -2  -3    6.87    1.02
 -20   2  -3    5.39    0.92
 -20   2  -3    7.40    0.81
 -20   2  -4    0.34    0.70
 -20   2  -4    0.43    0.27
 -20  -2  -5    4.18    0.83
 -20   2  -5    2.81    0.97
 -20   2  -5    2.54    0.43
 -20  -2  -6    2.52    0.65
 -20   2  -6    3.06    0.91
 -20   2  -6    2.57    0.45
 -20  -2  -7    1.32    0.75
 -20   2  -7    2.20    0.99
 -20  -2  -8    0.49    0.78
 -20  -2  -9    0.73    0.58
 -20   2  -9    1.00    0.65
 -20   4  12   -0.03    0.14
  20   4 -12   -0.08    0.56
 -20   4  11    0.33    0.21
  20   4 -11    0.94    0.55
 -20  -4  10    3.11    0.87
 -20   4  10    2.64    0.66
 -20  -4   9    3.05    1.04
 -20   4   9    2.66    0.64
 -20  -4   8    1.25    0.47
 -20   4   8    1.80    0.61
 -20  -4   7    0.66    0.28
 -20   4   7    0.35    0.40
 -20  -4   6   -0.19    0.58
 -20   4   6    0.39    0.49
 -20  -4   5    0.45    0.54
 -20   4   5   -0.02    0.51
 -20  -4   4    5.42    0.79
 -20   4   4    6.78    0.77
 -20  -4   3   20.75    1.42
 -20   4   3   20.87    1.43
 -20  -4   2    1.34    0.74
 -20   4   2    1.67    1.04
  20   4  -2    0.28    0.20
 -20   4   2    0.47    0.45
 -20   4   1    0.98    0.49
 -20   4   1    1.81    0.67
 -20  -4   0    0.59    0.56
 -20   4   0   -0.57    0.64
 -20   4   0    0.74    0.40
 -20  -4  -1   -0.24    0.48
 -20   4  -1    1.08    0.87
 -20   4  -1    0.40    0.42
 -20  -4  -2    2.77    0.65
 -20   4  -2    2.98    0.97
 -20   4  -2    2.59    0.97
 -20  -4  -3   12.54    0.90
 -20   4  -3   12.07    1.49
 -20   4  -3   13.93    0.89
 -20  -4  -4    1.11    0.45
 -20   4  -4    0.79    0.75
 -20   4  -4    1.01    0.49
 -20  -4  -5    0.85    0.76
 -20   4  -5    0.96    0.90
 -20   4  -5    1.00    0.43
 -20  -4  -6    0.36    0.43
 -20   4  -6    0.41    0.67
 -20  -4  -7    1.29    0.64
 -20   4  -7    0.56    0.67
 -20  -4  -8    0.19    0.42
 -20   4  -8    1.23    0.71
 -20   6  10    0.94    0.36
  20   6 -10    1.85    0.95
 -20   6   9    1.39    0.48
  20   6  -9    1.31    0.71
 -20  -6   8    0.03    0.26
 -20   6   8    0.41    0.43
 -20  -6   7    1.20    0.47
 -20   6   7   -0.11    0.33
 -20  -6   6    0.21    0.28
 -20   6   6   -0.08    0.37
 -20  -6   5    0.61    0.32
 -20   6   5    0.50    0.41
 -20  -6   4    5.20    1.25
 -20   6   4    3.47    0.77
 -20  -6   3    7.82    0.77
 -20   6   3    8.56    1.01
 -20   6   3    6.67    1.80
 -20  -6   2    1.69    0.67
 -20   6   2    2.38    0.70
 -20   6   2    3.17    0.62
 -20  -6   1    0.85    0.47
 -20   6   1   -0.08    0.56
 -20  -6   0    1.08    0.50
 -20   6   0    1.52    0.94
 -20   6   0    1.28    0.73
 -20  -6  -1    0.70    0.45
 -20   6  -1    0.66    0.64
 -20   6  -1    0.58    0.31
 -20  -6  -2    4.94    0.66
 -20   6  -2    5.71    1.25
 -20   6  -2    4.03    0.76
 -20  -6  -3   39.80    1.42
 -20   6  -3   40.17    1.90
 -20   6  -3   38.95    1.42
 -20  -6  -4   14.31    1.64
 -20   6  -4   12.49    1.77
 -20   6  -4   11.72    1.44
 -20  -6  -5    1.10    0.43
 -20   6  -5    2.05    1.08
 -20  -6  -6   11.51    1.28
 -20   6  -6   11.31    1.68
 -20   8   6    0.37    0.29
  20   8  -6    0.80    0.59
 -20   8   5    0.21    0.36
  20   8  -5    0.41    0.55
 -20  -8   4    0.48    0.46
 -20   8   4    0.08    0.42
 -20   8   4    0.68    0.35
 -20  -8   3    0.36    0.20
 -20   8   3   -0.01    0.42
 -20   8   3    1.50    0.77
 -20  -8   2    0.83    0.42
 -20   8   2    0.69    0.73
 -20   8   2    1.34    0.73
 -20  -8   1    0.29    0.36
 -20   8   1    0.96    0.69
 -20   8   1    1.26    0.69
 -20  -8   0    0.53    0.41
 -20   8   0    1.09    0.79
 -20   8   0    0.50    0.41
 -20  -8  -1    0.45    0.30
 -20   8  -1    1.03    0.80
 -20   8  -1    0.94    0.88
 -20  -8  -2    1.55    0.54
 -20   8  -2    1.55    0.65
 -20   8  -2    1.39    0.57
 -21   1  13    0.90    0.46
  21   1 -13    0.80    0.59
 -21  -1  12    0.51    0.29
 -21   1  12    0.59    0.44
 -21  -1  11    1.40    0.34
 -21   1  11    2.16    0.70
 -21  -1  10    5.64    1.10
 -21   1  10    3.49    0.71
 -21  -1   9    3.47    0.67
 -21   1   9    3.50    0.76
 -21  -1   8    7.49    0.88
 -21   1   8    7.37    0.84
 -21  -1   7    1.48    0.49
 -21   1   7    2.18    0.65
 -21  -1   6    0.74    0.57
 -21   1   6    0.40    0.52
 -21  -1   5    1.87    0.74
 -21   1   5    0.59    0.54
 -21  -1   4    0.19    0.62
 -21   1   4    0.39    0.61
  21   1  -4   -0.12    0.19
 -21  -1   3    0.79    0.79
 -21   1   3    0.35    0.60
  21   1  -3    0.40    0.30
 -21  -1   2    7.75    0.99
 -21   1   2    8.72    1.10
 -21  -1   1    0.61    0.57
 -21   1   1    0.41    0.81
 -21  -1   0    0.80    0.80
 -21   1   0    1.37    0.67
 -21  -1  -1   11.40    1.06
 -21   1  -1    9.23    1.03
 -21  -1  -2   23.58    1.19
 -21   1  -2   25.08    1.33
 -21  -1  -3   50.64    1.63
 -21   1  -3   49.81    1.72
 -21  -1  -4   14.62    1.09
 -21   1  -4   13.39    1.08
 -21  -1  -5    8.36    0.94
 -21   1  -5    9.84    1.24
 -21  -1  -6    7.88    0.98
 -21   1  -6    7.38    1.20
 -21  -1  -7    8.93    1.44
 -21   1  -7    8.09    1.58
 -21  -1  -8    1.19    0.69
 -21   1  -8    0.54    0.61
 -21   3  12    0.45    0.27
  21   3 -12   -0.19    0.63
 -21  -3  11    0.58    0.40
 -21   3  11    0.17    0.37
 -21  -3  10    0.40    0.50
 -21   3  10    0.78    0.41
 -21  -3   9    1.22    0.37
 -21   3   9   -0.04    0.42
 -21  -3   8   10.08    2.58
 -21   3   8   10.54    0.91
 -21  -3   7   12.73    1.02
 -21   3   7   14.16    0.98
 -21  -3   6    6.16    0.90
 -21   3   6    9.14    0.94
 -21  -3   5   26.95    1.29
 -21   3   5   29.18    1.26
 -21  -3   4   63.40    1.87
 -21   3   4   64.87    1.88
 -21  -3   3   96.15    4.61
 -21   3   3  101.79    2.43
 -21  -3   2   28.43    1.78
 -21   3   2   30.36    1.90
  21   3  -2   26.17    1.28
 -21  -3   1    8.41    0.96
 -21   3   1   10.00    1.35
 -21  -3   0    9.44    0.91
 -21   3   0    7.93    0.98
 -21   3   0   10.12    0.92
 -21  -3  -1    2.83    0.75
 -21   3  -1    2.48    0.77
 -21   3  -1    2.07    0.84
 -21  -3  -2    2.58    0.79
 -21   3  -2    2.93    0.73
 -21   3  -2    1.63    0.69
 -21  -3  -3   19.42    1.12
 -21   3  -3   19.02    1.28
 -21   3  -3   19.35    1.54
 -21  -3  -4    0.06    0.52
 -21   3  -4    0.84    0.87
 -21   3  -4    0.04    0.30
 -21  -3  -5    2.85    0.81
 -21   3  -5    3.04    0.92
 -21   3  -5    2.64    0.44
 -21  -3  -6    5.48    1.18
 -21   3  -6    5.89    1.14
 -21   3  -6    3.67    0.62
 -21  -3  -7    1.60    0.59
 -21   3  -7    4.20    1.11
 -21   3  -8    1.08    0.70
 -21   5  11    0.17    0.17
  21   5 -11    0.77    0.59
 -21   5  10    0.35    0.30
  21   5 -10   -0.28    0.54
 -21  -5   9    1.18    0.77
 -21   5   9    1.14    0.44
 -21  -5   8    0.96    0.30
 -21   5   8    1.39    0.57
 -21  -5   7    0.92    0.43
 -21   5   7    0.38    0.50
 -21  -5   6    1.23    0.60
 -21   5   6    0.78    0.45
 -21  -5   5    0.03    0.53
 -21   5   5    0.76    0.71
 -21  -5   4    1.44    0.65
 -21   5   4    1.62    0.77
 -21   5   3    1.51    0.64
 -21  -5   2    4.97    0.79
 -21   5   2    5.28    0.81
 -21   5   2    4.20    0.99
 -21  -5   1    1.23    0.58
 -21   5   1    2.81    0.97
 -21   5   1    2.04    0.73
 -21  -5   0    0.90    0.52
 -21   5   0    1.18    0.67
 -21   5   0    0.77    0.78
 -21  -5  -1    6.15    1.15
 -21   5  -1    4.50    0.98
 -21   5  -1    2.46    0.88
 -21  -5  -2    9.28    1.02
 -21   5  -2    8.71    1.08
 -21   5  -2    7.07    1.84
 -21  -5  -3   35.45    1.42
 -21   5  -3   35.58    1.65
 -21   5  -3   33.21    1.21
 -21  -5  -4   12.35    1.50
 -21   5  -4   12.80    1.71
 -21   5  -4   12.50    1.56
 -21  -5  -5    5.95    0.88
 -21   5  -5    4.81    1.14
 -21   5  -5    4.01    0.70
 -21  -5  -6    9.87    1.17
 -21   5  -6   11.22    1.60
 -21   7   8    2.48    0.53
  21   7  -8    4.19    1.00
 -21   7   7    2.00    0.62
 -21  -7   6    0.89    0.43
 -21   7   6    0.65    0.36
 -21  -7   5    0.43    0.34
 -21   7   5    0.19    0.43
 -21  -7   4    0.41    0.30
 -21   7   4    0.21    0.49
 -21   7   4   -0.02    0.51
 -21  -7   3   -0.35    0.56
 -21   7   3    0.56    0.49
 -21   7   3    0.29    0.26
 -21  -7   2    1.99    0.95
 -21   7   2    0.48    0.48
 -21   7   2    0.17    0.38
 -21  -7   1    0.22    0.47
 -21   7   1    0.29    0.55
 -21   7   1    0.24    0.28
 -21  -7   0    1.26    0.52
 -21   7   0    1.56    0.84
 -21   7   0    1.96    0.74
 -21  -7  -1    0.72    0.46
 -21   7  -1    2.31    0.92
 -21   7  -1    1.08    0.58
 -21  -7  -2   26.40    1.23
 -21   7  -2   23.78    2.60
 -21   7  -2   21.44    2.92
 -21  -7  -3   21.04    2.05
 -21   7  -3   25.11    2.75
 -21   7  -3   24.46    2.43
 -22   0  12    0.37    0.51
 -22   0  11    3.38    1.11
 -22   0  10    0.65    0.50
 -22   0   9    0.66    0.51
 -22   0   8    0.75    0.70
 -22   0   7    0.36    0.54
 -22   0   6    0.58    0.57
 -22   0   5    0.53    0.54
 -22   0   4   16.34    1.39
 -22   0   3   14.66    1.26
 -22   0   2    3.78    0.64
 -22   0   1   18.51    1.58
 -22   0   0   21.08    1.29
 -22   0  -1    2.73    0.77
 -22   0  -2    2.58    0.73
 -22   0  -3    5.16    0.90
 -22   0  -4    1.09    0.59
 -22   0  -6    1.16    0.53
 -22   0  -7   11.71    1.65
 -22   0  -8    9.87    1.58
 -22  -2  12    0.40    0.35
 -22   2  12    0.62    0.45
 -22  -2  11   -0.15    0.51
 -22   2  11    0.69    0.53
 -22  -2  10    0.42    0.30
 -22   2  10    0.55    0.43
 -22  -2   9   -0.14    0.45
 -22   2   9    0.56    0.59
 -22  -2   8    0.36    0.51
 -22   2   8    0.79    0.69
 -22  -2   7    0.43    0.53
 -22   2   7    0.28    0.52
 -22  -2   6    1.22    0.80
 -22   2   6    0.60    0.54
 -22  -2   5    0.54    0.65
 -22   2   5    1.14    0.57
 -22  -2   4    3.22    0.80
 -22   2   4    4.50    1.07
 -22  -2   3    5.70    0.91
 -22   2   3    5.68    0.85
 -22  -2   2    1.92    0.66
 -22   2   2    1.71    0.74
 -22  -2   1    0.47    0.56
 -22   2   1    1.24    0.85
 -22  -2   0    0.70    0.57
 -22   2   0    0.67    0.62
 -22  -2  -1   -0.12    0.51
 -22   2  -1    0.29    0.63
 -22  -2  -2    6.49    0.98
 -22   2  -2    5.46    0.91
 -22  -2  -3    8.42    1.17
 -22   2  -3    8.99    1.02
 -22   2  -3    7.54    0.77
 -22  -2  -4    0.54    0.59
 -22   2  -4    0.99    0.64
 -22   2  -4    0.52    0.25
 -22  -2  -5   10.68    1.04
 -22   2  -5   12.06    1.31
 -22  -2  -6    3.91    0.86
 -22   2  -6    2.57    0.94
 -22  -2  -7    3.25    0.86
 -22   2  -7    2.84    1.10
 -22   4  11    0.70    0.42
  22   4 -11   -0.11    0.57
 -22  -4  10    0.49    0.38
 -22   4  10    0.43    0.37
 -22  -4   9    1.16    0.58
 -22   4   9    0.93    0.49
 -22  -4   8    0.93    0.43
 -22   4   8    0.45    0.45
 -22  -4   7    0.77    0.48
 -22   4   7    0.46    0.44
 -22  -4   6    0.45    0.51
 -22   4   6    0.20    0.45
 -22  -4   5    0.59    0.58
 -22   4   5    1.51    0.83
 -22  -4   4    3.70    0.76
 -22   4   4    3.69    0.83
 -22  -4   3    0.55    0.56
 -22   4   3   -0.62    0.62
 -22  -4   2    0.87    0.43
 -22   4   2    2.13    0.97
 -22  -4   1    0.60    0.51
 -22   4   1    1.42    0.81
 -22   4   1    0.19    0.24
 -22  -4   0    0.44    0.54
 -22   4   0    0.36    0.59
 -22   4   0    0.75    0.35
 -22  -4  -1    1.27    0.60
 -22   4  -1    0.65    0.85
 -22   4  -1    1.73    0.51
 -22  -4  -2   15.08    1.18
 -22   4  -2   17.57    1.44
 -22   4  -2   13.35    2.46
 -22  -4  -3    2.66    0.71
 -22   4  -3    4.35    0.90
 -22   4  -3    2.31    0.69
 -22  -4  -4    1.47    0.62
 -22   4  -4    2.42    0.89
 -22   4  -4    2.43    0.77
 -22  -4  -5    5.36    1.01
 -22   4  -5    3.29    0.95
 -22   4  -5    5.20    0.78
 -22   4  -6    5.97    1.12
 -22   4  -6    6.39    0.83
 -22   6   9    0.10    0.26
  22   6  -9    0.94    0.95
 -22  -6   8    0.42    0.32
 -22   6   8    1.82    0.55
 -22  -6   7    0.62    0.67
 -22   6   7   -0.11    0.38
 -22  -6   6   -0.05    0.56
 -22   6   6    0.42    0.39
 -22   6   5    2.86    0.73
 -22  -6   4    9.52    2.03
 -22   6   4    6.48    0.95
 -22  -6   3    8.22    0.86
 -22   6   3    9.11    1.05
 -22   6   3    8.47    2.39
 -22  -6   2    8.18    0.94
 -22   6   2    7.79    1.16
 -22   6   2    6.42    2.57
 -22  -6   1    5.95    0.85
 -22   6   1    7.65    1.26
 -22   6   1    6.17    2.38
 -22  -6   0   10.97    1.35
 -22   6   0   10.39    1.44
 -22   6   0    9.76    2.99
 -22  -6  -1   10.46    1.37
 -22   6  -1    8.07    1.21
 -22   6  -1    7.99    2.19
 -22  -6  -2    0.59    0.49
 -22   6  -2    0.95    0.84
 -22   6  -2    0.91    0.57
 -22  -6  -3    0.93    0.56
 -22   6  -3    0.63    0.64
 -22   6  -3    0.36    0.42
 -22  -6  -4    0.25    0.37
 -22   6  -4    0.26    0.73
 -22   6  -4    1.57    0.72
 -23  -1  12    0.65    0.43
 -23   1  12    0.94    0.43
 -23  -1  11    0.22    0.26
 -23   1  11    0.91    0.39
 -23  -1  10   -0.26    0.47
 -23   1  10   -0.07    0.48
 -23  -1   9    0.40    0.48
 -23   1   9    0.62    0.74
 -23  -1   8    0.77    0.52
 -23   1   8    0.86    0.56
 -23  -1   7    0.60    0.50
 -23   1   7    0.28    0.53
 -23  -1   6    0.08    0.52
 -23   1   6    0.32    0.54
 -23  -1   5    0.50    0.53
 -23   1   5    1.19    0.55
 -23  -1   4    3.91    0.89
 -23   1   4    2.72    0.76
 -23  -1   3    0.64    0.63
 -23   1   3   -0.09    0.51
 -23  -1   2    0.69    0.67
 -23   1   2    0.28    0.59
 -23  -1   1   10.92    1.31
 -23   1   1   10.91    1.06
 -23  -1   0   19.26    1.35
 -23   1   0   17.93    1.47
 -23  -1  -1    2.96    0.78
 -23   1  -1    4.02    0.80
 -23  -1  -2    0.84    0.79
 -23   1  -2    1.13    0.85
 -23  -1  -3    1.23    0.85
 -23   1  -3    1.99    0.88
 -23  -1  -4    1.83    1.01
 -23   1  -4    1.00    0.61
 -23  -1  -5    1.23    0.60
 -23   1  -5   -0.41    0.64
 -23  -1  -6    8.50    1.29
 -23  -1  -7    2.60    0.94
 -23   1  -7    1.96    1.06
 -23  -3  11    1.35    0.56
 -23   3  11    1.40    0.58
 -23  -3  10    2.65    1.06
 -23   3  10    2.44    0.64
 -23  -3   9    4.33    1.31
 -23   3   9    4.13    0.82
 -23  -3   8    6.79    1.03
 -23   3   8    6.73    0.74
 -23  -3   7   18.50    1.42
 -23   3   7   17.51    1.41
 -23  -3   6   19.00    1.23
 -23   3   6   17.46    1.15
 -23  -3   5   11.38    1.07
 -23   3   5   11.67    1.04
 -23  -3   4    1.85    0.89
 -23   3   4    1.51    0.70
 -23  -3   3    4.67    0.96
 -23   3   3    4.20    0.80
 -23  -3   2    3.47    0.76
 -23   3   2    3.87    0.62
 -23  -3   1   -0.13    0.53
 -23   3   1    1.20    0.86
 -23   3   0    1.50    0.77
 -23  -3  -1    0.61    0.74
 -23   3  -1   -0.01    0.62
 -23   3  -1    0.35    0.24
 -23  -3  -2    9.76    1.24
 -23   3  -2   10.65    1.12
 -23   3  -2    5.20    2.18
 -23  -3  -3    0.97    0.54
 -23   3  -3    0.88    0.60
 -23   3  -3    0.54    0.28
 -23  -3  -4    0.68    0.59
 -23   3  -4    0.53    0.59
 -23   3  -4    0.39    0.33
 -23  -3  -5    2.87    0.68
 -23   3  -5    2.46    0.91
 -23  -3  -6    9.07    1.18
 -23   3  -6    7.82    1.23
 -23  -5   9    0.33    0.25
 -23   5   9    0.32    0.34
 -23  -5   8    1.78    0.73
 -23   5   8    1.75    0.57
 -23  -5   7    0.79    0.33
 -23   5   7    0.90    0.58
 -23  -5   6    0.22    0.31
 -23   5   6    0.79    0.65
 -23  -5   5    0.94    0.58
 -23   5   5    0.22    0.45
 -23  -5   4    4.11    0.77
 -23   5   4    1.26    0.71
 -23   5   3    3.93    0.96
 -23  -5   2    2.63    0.87
 -23   5   2    1.07    0.54
 -23  -5   1    3.84    0.78
 -23   5   1    2.19    0.77
 -23   5   1    2.26    0.83
 -23  -5   0    4.70    0.90
 -23   5   0    5.37    0.93
 -23   5   0    3.92    1.54
 -23  -5  -1    6.21    1.01
 -23   5  -1    5.87    1.06
 -23   5  -1    5.89    2.23
 -23  -5  -2   -0.02    0.46
 -23   5  -2    0.20    0.65
 -23   5  -2    0.28    0.41
 -23  -5  -3    0.51    0.50
 -23   5  -3    1.91    0.78
 -23   5  -3    1.35    0.43
 -23  -5  -4    2.23    0.56
 -23   5  -4    2.28    0.79
 -23   5  -4    1.89    0.97
 -23  -7   5    3.56    0.98
 -23   7   5    2.80    0.67
 -23  -7   4    4.70    1.47
 -23   7   4    5.39    0.95
 -23  -7   3    4.79    1.72
 -23   7   3    6.00    0.98
 -23   7   3    3.59    2.20
 -23  -7   2    2.56    0.87
 -23   7   2    7.53    1.38
 -23   7   2    3.38    1.17
 -23  -7   1   12.73    1.47
 -23   7   1   12.78    1.59
 -23   7   1    8.73    3.21
 -23  -7   0   22.45    2.18
 -23   7   0   26.15    2.66
 -23   7   0   23.04    2.33
 -24   0  11    0.68    0.62
 -24   0  10    4.41    0.93
 -24   0   9    7.47    0.90
 -24   0   8    4.41    0.89
 -24   0   7   17.90    1.36
 -24   0   6   18.03    1.24
 -24   0   5    7.52    0.89
 -24   0   4    3.17    0.73
 -24   0   3   17.83    1.21
 -24   0   2    0.96    0.55
 -24   0   1    3.57    0.78
 -24   0   0    7.92    0.96
 -24   0  -1    0.76    0.64
 -24   0  -2    6.82    0.98
 -24   0  -3    2.00    0.79
 -24   0  -4   11.15    1.48
 -24   0  -5   18.62    2.21
 -24   0  -6   62.18    5.40
 -24  -2  11    0.61    0.58
 -24   2  11    0.57    0.59
 -24  -2  10    0.86    0.42
 -24   2  10    0.17    0.44
 -24  -2   9    1.17    0.65
 -24   2   9    0.71    0.48
 -24  -2   8   -0.24    0.49
 -24   2   8    0.39    0.52
 -24  -2   7    0.57    0.52
 -24   2   7    0.77    0.56
 -24  -2   6   -0.02    0.48
 -24   2   6    0.34    0.52
 -24  -2   5    0.33    0.54
 -24   2   5    1.01    0.72
 -24  -2   4   10.74    1.21
 -24   2   4   10.21    1.12
 -24  -2   3   10.17    0.96
 -24   2   3   10.32    0.98
 -24  -2   2    6.16    1.08
 -24   2   2    3.76    0.74
 -24  -2   1    8.52    1.27
 -24   2   1    7.52    1.02
 -24  -2   0   18.65    1.21
 -24   2   0   17.57    1.52
 -24  -2  -1   15.24    1.35
 -24   2  -1   17.36    1.46
 -24  -2  -2    2.13    0.76
 -24   2  -2    1.45    0.79
 -24  -2  -3   12.07    1.23
 -24   2  -3   10.13    1.07
 -24  -2  -4    6.18    1.00
 -24   2  -4    5.69    1.05
 -24  -2  -5    1.68    0.59
 -24   2  -5    1.79    0.71
 -24  -2  -6    0.79    0.57
 -24   2  -6    1.47    0.90
 -24  -4  10    0.24    0.24
 -24   4  10   -0.30    0.34
 -24  -4   9    0.50    0.44
 -24   4   9    0.11    0.40
 -24  -4   8    0.97    0.42
 -24   4   8    1.02    0.65
 -24  -4   7    1.29    0.72
 -24   4   7    1.96    0.66
 -24  -4   6    1.77    0.71
 -24   4   6    2.18    0.71
 -24  -4   5    0.32    0.51
 -24   4   5    2.08    0.95
 -24  -4   4    4.71    0.87
 -24   4   4    4.58    0.84
 -24  -4   3    7.29    0.98
 -24   4   3   10.47    1.41
 -24  -4   2    6.22    0.90
 -24   4   2    3.68    0.83
 -24  -4   1   13.23    1.11
 -24   4   1   13.85    1.09
 -24  -4   0   27.79    1.36
 -24   4   0   26.99    1.51
 -24  -4  -1    8.10    0.87
 -24   4  -1    8.77    1.49
 -24   4  -1    5.92    2.12
 -24  -4  -2    6.88    1.35
 -24   4  -2    5.16    1.24
 -24   4  -2    3.80    1.14
 -24  -4  -3    3.85    0.91
 -24   4  -3    4.38    1.01
 -24   4  -3    2.26    1.19
 -24  -4  -4    3.25    0.76
 -24   4  -4    2.39    0.71
 -24   4  -4    1.68    0.62
 -24  -6   7    4.81    1.12
 -24   6   7    4.14    0.78
 -24  -6   6    4.82    1.61
 -24   6   6    4.44    1.00
 -24  -6   5    3.23    0.98
 -24   6   5    1.89    0.68
 -24  -6   4    1.85    0.76
 -24   6   4    1.09    0.53
 -24  -6   3    1.06    0.83
 -24   6   3    1.17    0.84
 -24  -6   2    0.27    0.53
 -24   6   2    0.30    0.56
 -24   6   2   -0.37    0.51
 -24  -6   1    4.41    0.92
 -24   6   1    4.68    1.13
 -24   6   1    2.41    0.88
 -24  -6   0    7.82    1.08
 -24   6   0    9.89    1.63
 -24   6   0    6.22    2.71
 -24  -6  -1    1.17    0.66
 -24   6  -1   -0.08    0.60
 -24   6  -1    0.69    0.65
 -25  -1  10    2.25    0.75
 -25   1  10    1.40    0.65
 -25  -1   9    2.71    0.82
 -25   1   9    2.87    0.76
 -25  -1   8    4.23    1.00
 -25   1   8    3.09    0.89
 -25  -1   7    2.75    0.73
 -25   1   7    2.64    0.71
 -25  -1   6    3.21    0.78
 -25   1   6    3.17    0.75
 -25  -1   5    0.76    0.55
 -25   1   5    1.52    0.70
 -25  -1   4    2.04    0.60
 -25   1   4    1.03    0.54
 -25  -1   3    0.65    0.57
 -25   1   3    1.83    0.95
 -25  -1   2    0.78    0.57
 -25   1   2   -0.04    0.55
 -25  -1   1    1.98    0.72
 -25   1   1    2.09    0.65
 -25  -1   0    5.55    1.12
 -25   1   0    4.82    0.89
 -25  -1  -1    0.81    0.63
 -25   1  -1    1.18    0.61
 -25  -1  -2    0.82    0.65
 -25   1  -2    0.69    0.53
 -25   1  -3    0.14    0.54
 -25  -1  -4    3.44    0.87
 -25   1  -4    2.70    0.93
 -25  -1  -5    1.06    0.58
 -25   1  -5    1.09    0.68
 -25  -3  10    0.96    0.40
 -25   3  10    0.90    0.56
 -25  -3   9    0.27    0.24
 -25   3   9   -0.19    0.42
 -25  -3   8    0.08    0.51
 -25   3   8    1.21    0.68
 -25  -3   7    2.89    0.68
 -25   3   7    3.50    0.82
 -25  -3   6    3.08    0.72
 -25   3   6    3.69    0.87
 -25  -3   5    0.63    0.51
 -25   3   5    0.88    0.56
 -25  -3   4    4.96    0.80
 -25   3   4    4.42    0.84
 -25  -3   3    3.63    0.80
 -25   3   3    2.23    0.69
 -25  -3   2    6.70    0.98
 -25   3   2    7.06    0.91
 -25  -3   1   25.59    1.59
 -25   3   1   28.42    1.40
 -25   3   0   30.58    1.48
 -25  -3  -1    3.96    0.92
 -25   3  -1    2.97    0.92
 -25  -3  -2    8.19    1.38
 -25   3  -2    9.39    1.43
 -25  -3  -3   11.75    1.65
 -25   3  -3   12.05    1.59
 -25  -3  -4    0.48    0.50
 -25   3  -4    1.71    0.82
 -25  -5   7    1.95    0.71
 -25   5   7    1.40    0.68
 -25  -5   6    2.12    0.83
 -25   5   6    0.94    0.66
 -25  -5   5    1.60    0.85
 -25   5   5    1.03    0.52
 -25  -5   4    0.99    0.60
 -25   5   4    1.12    0.60
 -25  -5   3    0.85    0.57
 -25   5   3    1.37    0.80
 -25  -5   2   -0.03    0.47
 -25   5   2    0.62    0.79
 -25  -5   1    0.77    0.70
 -25   5   1    0.88    0.76
 -25  -5   0    5.91    0.99
 -25   5   0    4.57    1.01
 -25   5   0    3.78    1.41
 -25  -5  -1    2.63    0.80
 -25   5  -1    2.23    0.72
 -25   5  -1    1.63    0.54
 -25  -5  -2    0.15    0.48
 -25   5  -2    0.19    0.68
 -25   5  -2    0.35    0.22
 -26   0  10    1.51    0.54
 -26   0   9    2.14    0.77
 -26   0   8    1.60    0.71
 -26   0   7    0.10    0.48
 -26   0   6    0.37    0.55
 -26   0   5    3.46    0.82
 -26   0   4    0.49    0.53
 -26   0   3   -0.44    0.54
 -26   0   2    5.50    0.81
 -26   0   1   19.81    1.31
 -26   0   0   26.16    1.41
 -26   0  -1    7.25    1.18
 -26   0  -2   15.53    1.91
 -26   0  -3   35.18    1.67
 -26  -2   9    2.62    0.92
 -26   2   9    2.74    0.75
 -26  -2   8    3.43    0.91
 -26   2   8    6.21    1.10
 -26  -2   7    5.68    1.06
 -26   2   7    5.74    0.97
 -26  -2   6    7.64    1.23
 -26   2   6    6.24    1.26
 -26  -2   5    3.09    0.81
 -26   2   5    4.72    0.80
 -26  -2   4    6.72    0.91
 -26   2   4    8.11    1.26
 -26  -2   3    4.80    0.85
 -26   2   3    5.99    1.09
 -26  -2   2    5.76    0.94
 -26   2   2    7.42    0.92
 -26  -2   1    3.73    0.83
 -26   2   1    2.71    0.88
 -26  -2   0    1.15    0.58
 -26   2   0    2.21    0.77
 -26   2  -1    6.90    1.37
 -26  -2  -2    1.99    0.82
 -26   2  -2    0.87    0.86
 -26  -2  -3    4.03    0.84
 -26   2  -3    4.72    1.13
 -26  -4   7    4.52    0.98
 -26   4   7    2.88    0.94
 -26  -4   6    3.01    0.83
 -26   4   6    1.54    0.62
 -26  -4   5    3.65    0.86
 -26   4   5    3.36    1.03
 -26  -4   4    4.57    1.10
 -26   4   4    4.62    1.05
 -26  -4   3    4.52    0.99
 -26   4   3    5.38    1.21
 -26   4   2    2.89    0.84
 -26  -4   1    0.99    0.55
 -26   4   1    1.59    0.87
 -26  -4   0    2.96    0.80
 -26   4   0    4.05    1.23
 -26  -4  -1    2.39    0.84
 -26   4  -1    2.60    0.96
 -26  -4  -2    1.02    0.79
 -26   4  -2    0.98    0.69
 -27  -1   9    2.92    0.91
 -27   1   9    3.41    0.78
 -27  -1   8    1.28    0.61
 -27   1   8    0.72    0.54
 -27  -1   7    0.80    0.60
 -27   1   7    0.88    0.56
 -27  -1   6    1.16    0.60
 -27   1   6    1.33    0.83
 -27  -1   5    0.54    0.75
 -27   1   5    0.31    0.51
 -27  -1   4    1.76    0.58
 -27   1   4    2.37    0.87
 -27  -1   3    1.32    0.76
 -27   1   3    1.17    0.81
 -27  -1   2   -0.43    0.51
 -27   1   2    0.43    0.54
 -27  -1   1    0.07    0.50
 -27   1   1    1.38    0.82
 -27  -1   0    0.85    0.73
 -27   1   0    0.13    0.56
 -27  -1  -1    1.65    0.85
 -27   1  -1    0.90    0.58
 -27  -1  -2    5.18    1.24
 -27   1  -2    4.08    0.92
 -27  -1  -3    1.96    0.65
 -27   1  -3    1.61    0.84
 -27  -3   7    1.31    0.61
 -27   3   7    0.61    0.52
 -27  -3   6    1.80    0.58
 -27   3   6    2.92    0.88
 -27  -3   5    0.21    0.55
 -27   3   5    0.40    0.79
 -27  -3   4    2.80    0.80
 -27   3   4    1.96    0.74
 -27  -3   3    3.68    0.92
 -27   3   3    4.61    1.18
 -27  -3   2    1.65    0.87
 -27   3   2   -0.14    0.64
 -27  -3   1    2.55    0.72
 -27   3   1    2.11    0.92
 -27  -3   0    1.11    0.80
 -27   3   0    0.24    0.62
 -27  -3  -1    0.59    0.50
 -27   3  -1    1.22    0.68
 -28   0   7    2.55    0.91
 -28   0   6    2.70    0.98
 -28   0   5    8.83    1.61
 -28   0   4   19.41    2.25
 -28   0   3   17.63    2.07
 -28   0   2    3.98    1.01
 -28   0   1    1.04    0.53
 -28   0   0    0.61    0.56
 -28   0  -1    1.17    0.61
 -28   2   7    1.62    0.77
 -28  -2   6    0.90    0.59
 -28   2   6    0.17    0.54
 -28  -2   5    2.06    0.83
 -28   2   5    2.05    0.80
 -28  -2   4    0.51    0.53
 -28   2   4    0.67    0.60
 -28  -2   3    0.98    0.60
 -28   2   3    0.80    0.63
 -28  -2   2    0.58    0.58
 -28   2   2    1.05    0.64
 -28  -2   1    2.03    0.81
 -28   2   1    5.06    1.24
 -28  -2   0    1.75    0.63
 -28   2   0    3.53    0.98
 -29  -1   5    0.63    0.80
 -29   1   5    0.80    0.82
 -29  -1   4    0.76    0.64
 -29   1   4    0.63    0.60
 -29  -1   3    0.43    0.57
 -29   1   3    1.36    0.91
 -29  -1   2    0.43    0.53
 -29   1   2    0.31    0.63
   0   0   0    0.00    0.00
;
_shelx_hkl_checksum              77785
loop_
_space_group_symop_operation_xyz
'x, y, z'
'-x, y, -z'
'x+1/2, y+1/2, z'
'-x+1/2, y+1/2, -z'
'-x, -y, -z'
'x, -y, z'
'-x+1/2, -y+1/2, -z'
'x+1/2, -y+1/2, z'
loop_
_atom_site_label
_atom_site_type_symbol
_atom_site_fract_x
_atom_site_fract_y
_atom_site_fract_z
_atom_site_U_iso_or_equiv
_atom_site_adp_type
_atom_site_occupancy
_atom_site_site_symmetry_order
_atom_site_calc_flag
_atom_site_refinement_flags_posn
_atom_site_refinement_flags_adp
_atom_site_refinement_flags_occupancy
Mn1 Mn 0.28800(6) 0.5000 0.50817(13) 0.0359(4) Uani 1 2 d S T P
S1 S 0.43855(7) 0.84047(17) 0.56886(15) 0.0405(4) Uani 1 1 d . . .
S2 S 0.56522(9) 1.1601(2) 0.74601(18) 0.0620(6) Uani 1 1 d . . .
S3 S 0.67826(13) 1.1803(4) 0.9185(2) 0.1088(12) Uani 1 1 d . . .
O1 O 0.34177(18) 0.6853(5) 0.4693(4) 0.0418(11) Uani 1 1 d . . .
O2 O 0.22978(17) 0.6475(5) 0.5757(4) 0.0400(11) Uani 1 1 d . . .
O4 O -0.0656(6) 0.0000 -0.6258(13) 0.138(5) Uani 1 2 d S T P
N1 N 0.3511(3) 0.5000 0.6758(7) 0.045(2) Uani 1 2 d S T P
C1 C 0.3715(2) 0.9267(7) 0.5053(5) 0.0294(13) Uani 1 1 d . . .
C2 C 0.4763(4) 1.0000 0.6196(8) 0.038(2) Uani 1 2 d S T P
C3 C 0.5286(4) 1.0000 0.6927(9) 0.045(2) Uani 1 2 d S T P
C4 C 0.6250(3) 1.0719(10) 0.8326(6) 0.062(2) Uani 1 1 d . . .
C5 C 0.6988(7) 1.3019(17) 0.8307(11) 0.162(7) Uani 1 1 d . . .
H5A H 0.7087 1.2516 0.7693 0.243 Uiso 1 1 calc R U .
H5B H 0.7333 1.3556 0.8677 0.243 Uiso 1 1 calc R U .
H5C H 0.6659 1.3675 0.8055 0.243 Uiso 1 1 calc R U .
C6 C 0.3234(2) 0.8166(7) 0.4621(5) 0.0299(13) Uani 1 1 d . . .
C7 C 0.3313(5) 0.5000 0.7708(9) 0.051(3) Uani 1 2 d S T P
H7 H 0.2898 0.5000 0.7675 0.062 Uiso 1 2 calc R U P
C8 C 0.3684(5) 0.5000 0.8712(10) 0.057(3) Uani 1 2 d S T P
H8 H 0.3517 0.5000 0.9336 0.068 Uiso 1 2 calc R U P
C9 C 0.4315(4) 0.5000 0.8825(10) 0.050(3) Uani 1 2 d S T P
C10 C 0.4516(4) 0.5000 0.7829(9) 0.051(3) Uani 1 2 d S T P
H10 H 0.4929 0.5000 0.7842 0.061 Uiso 1 2 calc R U P
C11 C 0.4121(4) 0.5000 0.6841(9) 0.048(3) Uani 1 2 d S T P
H11 H 0.4275 0.5000 0.6203 0.058 Uiso 1 2 calc R U P
C12 C 0.4699(5) 0.5000 0.9912(10) 0.063(3) Uani 1 2 d S T P
O3 O 0.2426(8) 0.558(2) 0.3590(15) 0.050(5) Uiso 0.25 1 d D . P
O3' O 0.2236(7) 0.5000 0.3351(12) 0.046(4) Uiso 0.5 2 d DS . P
C13 C 0.1924(6) 0.6134(16) 0.2862(12) 0.065(4) Uiso 0.5 1 d D . P
N2 N 0.1413(6) 0.5000 0.2078(12) 0.108(5) Uiso 1 2 d DS . P
C14 C 0.1086(8) 0.625(2) 0.1593(15) 0.190(8) Uiso 1 1 d D . .
O5 O 0.0413(8) 0.5000 0.0597(16) 0.205(8) Uiso 1 2 d S . P
loop_
_atom_site_aniso_label
_atom_site_aniso_U_11
_atom_site_aniso_U_22
_atom_site_aniso_U_33
_atom_site_aniso_U_23
_atom_site_aniso_U_13
_atom_site_aniso_U_12
Mn1 0.0213(6) 0.0281(7) 0.0550(9) 0.000 -0.0001(6) 0.000
S1 0.0238(7) 0.0280(8) 0.0635(11) 0.0021(8) -0.0062(7) 0.0020(6)
S2 0.0460(11) 0.0572(12) 0.0701(13) -0.0071(11) -0.0186(9) -0.0107(9)
S3 0.0905(19) 0.149(3) 0.0648(15) -0.0038(18) -0.0374(14) -0.048(2)
O1 0.028(2) 0.028(2) 0.069(3) -0.002(2) 0.009(2) 0.0003(19)
O2 0.027(2) 0.032(2) 0.055(3) -0.006(2) -0.0048(19) 0.0005(18)
O4 0.158(12) 0.071(7) 0.217(15) 0.000 0.116(11) 0.000
N1 0.030(4) 0.037(4) 0.058(5) 0.000 -0.014(4) 0.000
C1 0.021(3) 0.032(3) 0.033(3) 0.000(3) 0.001(2) 0.001(2)
C2 0.028(5) 0.037(5) 0.046(6) 0.000 0.002(4) 0.000
C3 0.023(4) 0.047(6) 0.059(6) 0.000 -0.008(4) 0.000
C4 0.041(4) 0.091(6) 0.046(4) -0.002(4) -0.010(3) -0.007(4)
C5 0.164(13) 0.150(14) 0.126(11) 0.016(10) -0.079(10) -0.082(11)
C6 0.025(3) 0.030(3) 0.034(3) -0.004(3) 0.004(2) -0.005(2)
C7 0.038(5) 0.051(6) 0.061(7) 0.000 0.000(5) 0.000
C8 0.040(6) 0.068(8) 0.056(7) 0.000 -0.005(5) 0.000
C9 0.038(5) 0.040(6) 0.064(7) 0.000 -0.012(5) 0.000
C10 0.027(5) 0.046(6) 0.069(7) 0.000 -0.015(5) 0.000
C11 0.041(6) 0.039(6) 0.059(7) 0.000 -0.003(5) 0.000
C12 0.047(6) 0.054(7) 0.073(8) 0.000 -0.022(6) 0.000
loop_
_atom_type_symbol
_atom_type_description
_atom_type_scat_dispersion_real
_atom_type_scat_dispersion_imag
_atom_type_scat_source
C C 0.0033 0.0016 'International Tables Vol C Tables 4.2.6.8 and 6.1.1.4'
H H 0.0000 0.0000 'International Tables Vol C Tables 4.2.6.8 and 6.1.1.4'
N N 0.0061 0.0033 'International Tables Vol C Tables 4.2.6.8 and 6.1.1.4'
O O 0.0106 0.0060 'International Tables Vol C Tables 4.2.6.8 and 6.1.1.4'
S S 0.1246 0.1234 'International Tables Vol C Tables 4.2.6.8 and 6.1.1.4'
Mn Mn 0.3368 0.7283 'International Tables Vol C Tables 4.2.6.8 and 6.1.1.4'
loop_
_geom_angle_atom_site_label_1
_geom_angle_atom_site_label_2
_geom_angle_atom_site_label_3
_geom_angle
_geom_angle_site_symmetry_1
_geom_angle_site_symmetry_3
O3 Mn1 O3 30.9(12) 6_565 .
O3 Mn1 O2 106.8(6) 6_565 .
O3 Mn1 O2 87.4(6) . .
O3 Mn1 O2 87.4(6) 6_565 6_565
O3 Mn1 O2 106.8(6) . 6_565
O2 Mn1 O2 77.4(2) . 6_565
O3 Mn1 O1 78.0(6) 6_565 6_565
O3 Mn1 O1 101.8(6) . 6_565
O2 Mn1 O1 166.32(18) . 6_565
O2 Mn1 O1 90.21(16) 6_565 6_565
O3 Mn1 O1 101.8(6) 6_565 .
O3 Mn1 O1 78.0(6) . .
O2 Mn1 O1 90.21(16) . .
O2 Mn1 O1 166.32(18) 6_565 .
O1 Mn1 O1 101.5(2) 6_565 .
O3 Mn1 N1 163.2(6) 6_565 .
O3 Mn1 N1 163.2(6) . .
O2 Mn1 N1 87.8(2) . .
O2 Mn1 N1 87.8(2) 6_565 .
O1 Mn1 N1 86.0(2) 6_565 .
O1 Mn1 N1 86.0(2) . .
O3 Mn1 O3' 16.6(6) 6_565 .
O3 Mn1 O3' 16.6(6) . .
O2 Mn1 O3' 92.5(3) . .
O2 Mn1 O3' 92.5(3) 6_565 .
O1 Mn1 O3' 93.8(3) 6_565 .
O1 Mn1 O3' 93.8(3) . .
N1 Mn1 O3' 179.6(4) . .
C1 S1 C2 95.5(3) . .
C4 S2 C3 95.1(4) . .
C4 S3 C5 103.1(5) . .
C6 O1 Mn1 124.3(4) . .
C6 O2 Mn1 129.3(4) 7_566 .
C7 N1 C11 116.3(9) . .
C7 N1 Mn1 123.2(6) . .
C11 N1 Mn1 120.5(7) . .
C1 C1 C6 132.4(3) 6_575 .
C1 C1 S1 117.0(2) 6_575 .
C6 C1 S1 110.6(4) . .
C3 C2 S1 123.0(2) . 6_575
C3 C2 S1 123.0(2) . .
S1 C2 S1 114.0(5) 6_575 .
C2 C3 S2 122.8(3) . 6_575
C2 C3 S2 122.8(3) . .
S2 C3 S2 114.4(5) 6_575 .
C4 C4 S2 117.7(3) 6_575 .
C4 C4 S3 124.8(3) 6_575 .
S2 C4 S3 117.5(5) . .
O2 C6 O1 123.7(5) 7_566 .
O2 C6 C1 121.9(5) 7_566 .
O1 C6 C1 114.4(5) . .
N1 C7 C8 123.8(10) . .
C7 C8 C9 121.3(11) . .
C10 C9 C8 114.4(9) . .
C10 C9 C12 125.8(10) . .
C8 C9 C12 119.8(11) . .
C11 C10 C9 121.8(10) . .
N1 C11 C10 122.5(11) . .
C12 C12 C9 123.5(17) 5_667 .
O3' O3 O3 41.4(17) . 6_565
O3' O3 C13 70.1(15) . .
O3 O3 C13 111.4(12) 6_565 .
O3' O3 Mn1 110(2) . .
O3 O3 Mn1 74.5(6) 6_565 .
C13 O3 Mn1 153.5(15) . .
O3 O3' O3 97(3) . 6_565
O3 O3' C13 79.7(14) . .
O3 O3' C13 174(3) 6_565 .
O3 O3' C13 174(3) . 6_565
O3 O3' C13 79.7(14) 6_565 6_565
C13 O3' C13 102.9(16) . 6_565
O3 O3' Mn1 53.5(19) . .
O3 O3' Mn1 53.5(19) 6_565 .
C13 O3' Mn1 126.3(9) . .
C13 O3' Mn1 126.3(9) 6_565 .
O3' C13 O3 30.1(9) . .
O3' C13 N2 90.9(12) . .
O3 C13 N2 121.0(15) . .
C14 N2 C14 106.7(18) 6_565 .
C14 N2 C13 89.0(8) 6_565 6_565
C14 N2 C13 164.3(12) . 6_565
C14 N2 C13 164.3(12) 6_565 .
C14 N2 C13 89.0(8) . .
C13 N2 C13 75.3(11) 6_565 .
loop_
_geom_bond_atom_site_label_1
_geom_bond_atom_site_label_2
_geom_bond_distance
_geom_bond_site_symmetry_2
Mn1 O3 2.007(17) 6_565
Mn1 O3 2.007(17) .
Mn1 O2 2.175(4) .
Mn1 O2 2.175(4) 6_565
Mn1 O1 2.205(4) 6_565
Mn1 O1 2.205(4) .
Mn1 N1 2.280(8) .
Mn1 O3' 2.347(15) .
S1 C1 1.753(5) .
S1 C2 1.753(5) .
S2 C4 1.751(8) .
S2 C3 1.756(5) .
S3 C4 1.753(8) .
S3 C5 1.694(15) .
O1 C6 1.278(7) .
O2 C6 1.244(7) 7_566
N1 C7 1.348(14) .
N1 C11 1.360(12) .
C1 C1 1.351(12) 6_575
C1 C6 1.505(8) .
C2 C3 1.339(12) .
C2 S1 1.753(5) 6_575
C3 S2 1.756(5) 6_575
C4 C4 1.326(18) 6_575
C6 O2 1.244(7) 7_566
C7 C8 1.358(15) .
C8 C9 1.404(14) .
C9 C10 1.404(16) .
C9 C12 1.455(15) .
C10 C11 1.368(14) .
C12 C12 1.33(2) 5_667
O3 O3' 0.71(2) .
O3 O3 1.07(4) 6_565
O3 C13 1.398(15) .
O3' O3 0.71(2) 6_565
O3' C13 1.337(14) .
O3' C13 1.337(14) 6_565
C13 N2 1.712(14) .
N2 C14 1.432(14) 6_565
N2 C14 1.432(14) .
N2 C13 1.712(14) 6_565
