#------------------------------------------------------------------------------
#$Date: 2019-11-23 06:57:54 +0200 (Sat, 23 Nov 2019) $
#$Revision: 232373 $
#$URL: file:///home/coder/svn-repositories/cod/cif/4/34/75/4347546.cif $
#------------------------------------------------------------------------------
#
# This file is available in the Crystallography Open Database (COD),
# http://www.crystallography.net/
#
# All data on this site have been placed in the public domain by the
# contributors.
#
data_4347546
loop_
_publ_author_name
'Zhao, Ya-Ping'
'Li, Yan'
'Cui, Cai-Yan'
'Xiao, Yu'
'Li, Rong'
'Wang, Shuai-Hua'
'Zheng, Fa-Kun'
'Guo, Guo-Cong'
_publ_section_title
;
 Tetrazole-Viologen-based Flexible Microporous Metal-Organic Framework
 with High CO2 Selective Uptake.
;
_journal_issue                   15
_journal_name_full               'Inorganic chemistry'
_journal_page_first              7335
_journal_page_last               7340
_journal_paper_doi               10.1021/acs.inorgchem.6b00320
_journal_volume                  55
_journal_year                    2016
_chemical_formula_moiety         C24H30N10O16Zn2
_chemical_formula_sum            'C24 H30 N10 O16 Zn2'
_chemical_formula_weight         845.32
_chemical_melting_point          ?
_chemical_name_common            {[Zn2(btec)(btzmb)].8H2O}n
_space_group_crystal_system      monoclinic
_space_group_IT_number           14
_space_group_name_Hall           '-P 2ybc'
_space_group_name_H-M_alt        'P 1 21/c 1'
_atom_sites_solution_hydrogens   geom
_audit_creation_method           SHELXL-2014/6
_cell_angle_alpha                90
_cell_angle_beta                 101.384(5)
_cell_angle_gamma                90
_cell_formula_units_Z            4
_cell_length_a                   19.377(5)
_cell_length_b                   16.277(4)
_cell_length_c                   10.720(3)
_cell_measurement_reflns_used    9482
_cell_measurement_temperature    293(2)
_cell_measurement_theta_max      27.5
_cell_measurement_theta_min      3.2
_cell_volume                     3314.6(15)
_computing_cell_refinement
;
CrystalClear-SM Expert 2.1 b45 (Rigaku, 2015)
;
_computing_data_collection
;
CrystalClear-SM Expert 2.1 b45 (Rigaku, 2015)
;
_computing_data_reduction
;
CrystalClear-SM Expert 2.1 b45 (Rigaku, 2015)
;
_computing_structure_refinement  'SHELXL-2014/6 (Sheldrick, 2014)'
_computing_structure_solution    'SHELXL-2014/6 (Sheldrick, 2014)'
_diffrn_ambient_temperature      293(2)
_diffrn_detector_area_resol_mean 5.8140
_diffrn_measured_fraction_theta_full 0.993
_diffrn_measured_fraction_theta_max 0.993
_diffrn_measurement_device_type
;
Rigaku Pilatus 200K
;
_diffrn_measurement_method       CCD_Profile_fitting
_diffrn_radiation_type           MoK\a
_diffrn_radiation_wavelength     0.71073
_diffrn_reflns_av_R_equivalents  0.0425
_diffrn_reflns_av_unetI/netI     0.0398
_diffrn_reflns_Laue_measured_fraction_full 0.993
_diffrn_reflns_Laue_measured_fraction_max 0.993
_diffrn_reflns_limit_h_max       23
_diffrn_reflns_limit_h_min       -23
_diffrn_reflns_limit_k_max       19
_diffrn_reflns_limit_k_min       -19
_diffrn_reflns_limit_l_max       12
_diffrn_reflns_limit_l_min       -9
_diffrn_reflns_number            23734
_diffrn_reflns_point_group_measured_fraction_full 0.993
_diffrn_reflns_point_group_measured_fraction_max 0.993
_diffrn_reflns_theta_full        25.242
_diffrn_reflns_theta_max         25.499
_diffrn_reflns_theta_min         3.166
_diffrn_source                   'Rotating Anode'
_exptl_absorpt_coefficient_mu    1.536
_exptl_absorpt_correction_T_max  1.000
_exptl_absorpt_correction_T_min  0.842
_exptl_absorpt_correction_type   multi-scan
_exptl_crystal_colour            yellow
_exptl_crystal_density_diffrn    1.694
_exptl_crystal_density_method    'not measured'
_exptl_crystal_description       Prism
_exptl_crystal_F_000             1728
_exptl_crystal_size_max          0.39
_exptl_crystal_size_mid          0.12
_exptl_crystal_size_min          0.09
_refine_diff_density_max         1.736
_refine_diff_density_min         -0.906
_refine_diff_density_rms         0.114
_refine_ls_extinction_method     none
_refine_ls_goodness_of_fit_ref   1.091
_refine_ls_hydrogen_treatment    constr
_refine_ls_matrix_type           full
_refine_ls_number_parameters     463
_refine_ls_number_reflns         6127
_refine_ls_number_restraints     0
_refine_ls_restrained_S_all      1.091
_refine_ls_R_factor_all          0.0550
_refine_ls_R_factor_gt           0.0447
_refine_ls_shift/su_max          0.001
_refine_ls_shift/su_mean         0.000
_refine_ls_structure_factor_coef Fsqd
_refine_ls_weighting_details
'w=1/[\s^2^(Fo^2^)+(0.1029P)^2^+0.3041P] where P=(Fo^2^+2Fc^2^)/3'
_refine_ls_weighting_scheme      calc
_refine_ls_wR_factor_gt          0.1505
_refine_ls_wR_factor_ref         0.1559
_reflns_Friedel_coverage         0.000
_reflns_number_gt                4805
_reflns_number_total             6127
_reflns_threshold_expression     'I > 2\s(I)'
_cod_data_source_file            ic6b00320_si_002.cif
_cod_data_source_block           a
_cod_depositor_comments
;
The following automatic conversions were performed:

data item '_chemical_melting_point' value 'not measured' was changed
to '?' -- the value is undefined or not given.

data item '_exptl_absorpt_correction_type' value 'Multi-scan' was
changed to 'multi-scan' in accordance with the
/home/saulius/struct/COD-crude-data/automatic-downloads/DataCite-retrospective/ACS/depositions/lib/dictionaries/cif_core.dic
dictionary named 'cif_core.dic' version 2.4.2 last updated on
2011-04-26.

Automatic conversion script
Id: cif_fix_values 6909 2019-04-08 15:41:33Z antanas 
;
_cod_original_sg_symbol_H-M      'P 21/c'
_cod_database_code               4347546
_shelx_space_group_comment
;
The symmetry employed for this shelxl refinement is uniquely defined
by the following loop, which should always be used as a source of
symmetry information in preference to the above space-group names.
They are only intended as comments.
;
_exptl_absorpt_special_details
;
 ?
;
_shelxl_version_number           2014/6
_shelx_res_file
;
TITL 14 in P2(1)/c
CELL 0.71073  19.3770  16.2770  10.7200  90.000 101.384  90.000
ZERR   4.00   0.0050   0.0040   0.0030   0.000   0.005   0.000
LATT  1
SYMM -X, 0.5+Y, 0.5-Z
SFAC C H N O ZN
UNIT 96 120 40 64 8

L.S. 100
BOND $h
FMAP 2
PLAN 20
acta
omit -3 51.0
omit -2 2 3
omit -4 3 2
omit 1 2 1
omit -3 0 2
omit -1 2 1
omit -3 1 1
omit -1 0 2
omit -2 1 2
omit 3 1 0
omit -7 2 2
omit -1 3 1
omit 7 3 0
omit 1 2 5

eadp o5wa o5wb
WGHT    0.102900    0.304100
FVAR       0.17969
ZN1   5    0.010627    0.658561    0.047945    11.00000    0.01767    0.01898 =
         0.01905   -0.00032    0.00671   -0.00142
ZN2   5   -0.500946    0.653125    0.018721    11.00000    0.01713    0.01665 =
         0.01693   -0.00086    0.00669   -0.00056
C11   1    0.023621    0.777167    0.285478    11.00000    0.01473    0.02496 =
         0.02008   -0.00325    0.00708   -0.00266
N11   3    0.021974    0.763879    0.407107    11.00000    0.02646    0.02559 =
         0.02248   -0.00387    0.01235   -0.00292
C12   1    0.021501    0.858521    0.221731    11.00000    0.01823    0.02305 =
         0.02805   -0.00291    0.00817   -0.00345
AFIX  23
H12A  2   -0.006851    0.895506    0.261715    11.00000   -1.20000
H12B  2   -0.001955    0.852063    0.133589    11.00000   -1.20000
AFIX   0
N12   3    0.022912    0.681760    0.423179    11.00000    0.04832    0.02388 =
         0.02904    0.00034    0.01681    0.00000
C13   1    0.145852    0.855020    0.198944    11.00000    0.02864    0.02031 =
         0.07325   -0.00792    0.02201   -0.00207
AFIX  43
H13A  2    0.141827    0.798563    0.186240    11.00000   -1.20000
AFIX   0
N13   3    0.023986    0.646270    0.314926    11.00000    0.04618    0.02498 =
         0.02357   -0.00423    0.01064   -0.00377
C14   1    0.207743    0.893926    0.191058    11.00000    0.02747    0.02388 =
         0.07545   -0.00244    0.02398   -0.00251
AFIX  43
H14A  2    0.245376    0.863175    0.174501    11.00000   -1.20000
AFIX   0
N14   3    0.024180    0.705183    0.225374    11.00000    0.02621    0.02391 =
         0.01913   -0.00113    0.00817   -0.00510
C15   1    0.215172    0.978326    0.207346    11.00000    0.02376    0.02226 =
         0.02697   -0.00048    0.00563   -0.00488
N15   3    0.497966    1.227244    0.329442    11.00000    0.02583    0.01751 =
         0.01922    0.00176    0.00679   -0.00319
C16   1    0.157731    1.020775    0.235831    11.00000    0.03010    0.01990 =
         0.04376   -0.00656    0.01306   -0.00489
AFIX  43
H16A  2    0.160571    1.077246    0.249047    11.00000   -1.20000
AFIX   0
N16   3    0.522244    1.304203    0.356430    11.00000    0.04391    0.02542 =
         0.02011   -0.00028    0.00761   -0.01051
C17   1    0.096887    0.979574    0.244487    11.00000    0.02864    0.02179 =
         0.04411   -0.00536    0.01425   -0.00028
AFIX  43
H17A  2    0.059058    1.008505    0.264204    11.00000   -1.20000
AFIX   0
N17   3    0.526360    1.341339    0.250951    11.00000    0.04786    0.02323 =
         0.02228   -0.00198    0.00811   -0.01254
C18   1    0.281492    1.022255    0.194735    11.00000    0.02167    0.02187 =
         0.02516    0.00177    0.00482   -0.00497
N18   3    0.504426    1.289223    0.152487    11.00000    0.02724    0.01895 =
         0.01908    0.00112    0.00781   -0.00681
C19   1    0.345340    0.981216    0.207493    11.00000    0.02617    0.01556 =
         0.03730    0.00529    0.00552   -0.00466
AFIX  43
H19A  2    0.348062    0.925628    0.227929    11.00000   -1.20000
AFIX   0
N19   3    0.091304    0.897625    0.224740    11.00000    0.02275    0.01937 =
         0.02573   -0.00398    0.01000   -0.00446
C21   1   -0.200425    0.461267   -0.065827    11.00000    0.01676    0.02533 =
         0.02580   -0.00107    0.00536   -0.00077
O21   4   -0.080951    0.610117    0.051217    11.00000    0.01923    0.03544 =
         0.03673   -0.00563    0.00545   -0.00916
C22   1   -0.267843    0.430744   -0.068467    11.00000    0.01975    0.01978 =
         0.03550   -0.00388    0.00922    0.00039
AFIX  43
H22A  2   -0.276641    0.375073   -0.083342    11.00000   -1.20000
AFIX   0
O22   4   -0.100257    0.590757   -0.156633    11.00000    0.03573    0.07851 =
         0.02978    0.00361    0.01653   -0.02297
C23   1   -0.322423    0.482096   -0.049221    11.00000    0.01645    0.02360 =
         0.02204    0.00353    0.00511   -0.00005
O23   4   -0.355366    0.696693    0.008795    11.00000    0.02942    0.01795 =
         0.05596   -0.00323    0.01184   -0.00069
C24   1   -0.308346    0.565195   -0.023089    11.00000    0.01454    0.02290 =
         0.01987    0.00156    0.00365   -0.00034
O24   4   -0.418149    0.585701    0.032833    11.00000    0.01917    0.02567 =
         0.03594    0.00277    0.01265    0.00222
C25   1   -0.241034    0.596204   -0.023831    11.00000    0.01922    0.01919 =
         0.02920   -0.00032    0.00584   -0.00175
AFIX  43
H25A  2   -0.232206    0.651947   -0.009826    11.00000   -1.20000
AFIX   0
O25   4   -0.437992    0.457155   -0.164427    11.00000    0.02313    0.03954 =
         0.03323    0.00172   -0.00219   -0.00418
C26   1   -0.187255    0.544943   -0.045173    11.00000    0.01359    0.02507 =
         0.02326    0.00204    0.00557   -0.00147
O26   4   -0.404936    0.394770    0.021300    11.00000    0.02092    0.03096 =
         0.03027    0.00470    0.00646   -0.00678
C27   1   -0.143113    0.401671   -0.079132    11.00000    0.02019    0.02486 =
         0.03917   -0.00218    0.01280   -0.00057
O27   4   -0.158014    0.334333   -0.126795    11.00000    0.03020    0.04558 =
         0.14693   -0.04957    0.02196   -0.00275
C28   1   -0.394552    0.444194   -0.065938    11.00000    0.01824    0.01707 =
         0.03349   -0.00382    0.00858   -0.00100
O28   4   -0.080564    0.424587   -0.034743    11.00000    0.01791    0.03146 =
         0.04749   -0.00850    0.00583    0.00560
C29   1   -0.364051    0.621704    0.006698    11.00000    0.01905    0.02360 =
         0.01890    0.00106    0.00270    0.00071
C110  1    0.404182    1.022387    0.190066    11.00000    0.02001    0.02297 =
         0.03251    0.00120    0.00326   -0.00015
AFIX  43
H11A  2    0.446711    0.994388    0.198937    11.00000   -1.20000
AFIX   0
N110  3    0.401560    1.102763    0.160286    11.00000    0.01989    0.01833 =
         0.02064    0.00026    0.00303   -0.00510
C111  1    0.341416    1.144795    0.153098    11.00000    0.02681    0.01904 =
         0.04726    0.01013    0.00782    0.00098
AFIX  43
H11B  2    0.340249    1.200654    0.134563    11.00000   -1.20000
AFIX   0
C112  1    0.281482    1.106103    0.172865    11.00000    0.02377    0.02498 =
         0.05396    0.00389    0.00921   -0.00016
AFIX  43
H11C  2    0.240656    1.136405    0.171549    11.00000   -1.20000
AFIX   0
C113  1    0.463988    1.144071    0.126875    11.00000    0.02269    0.02347 =
         0.02342    0.00012    0.00953   -0.00563
AFIX  23
H11D  2    0.453110    1.158774    0.037451    11.00000   -1.20000
H11E  2    0.502822    1.105393    0.138885    11.00000   -1.20000
AFIX   0
C114  1    0.487099    1.219810    0.203386    11.00000    0.01442    0.01923 =
         0.02169    0.00244    0.00453   -0.00082
C210  1   -0.116551    0.583323   -0.051655    11.00000    0.01771    0.02112 =
         0.03627    0.00453    0.00715    0.00126
O1W   4   -0.390363    0.536686   -0.368434    11.00000    0.15617    0.09413 =
         0.05378    0.02315    0.01969    0.00459
O2W   4   -0.125365    0.802208    0.024678    11.00000    0.07973    0.13376 =
         0.09206    0.02055    0.00907   -0.00598
O3W   4   -0.161708    0.764318   -0.241000    11.00000    0.12624    0.10188 =
         0.09621   -0.01467    0.00947    0.05459
O4W   4   -0.307217    0.817954    0.184814    11.00000    0.14978    0.10089 =
         0.10128   -0.05349   -0.01626    0.00166
O5WB  4   -0.189644    0.566226   -0.388668    10.50000    0.13124    0.16365 =
         0.07755   -0.02413   -0.01722   -0.01424
O6W   4   -0.370004    0.378866   -0.429796    10.50000    0.11228    0.09073 =
         0.09537   -0.01408   -0.02603    0.01129
O5WA  4   -0.137223    0.516860   -0.390118    10.50000    0.13124    0.16365 =
         0.07755   -0.02413   -0.01722   -0.01424
O7W   4   -0.326834    0.262204    0.201535    10.50000    0.07527    0.09181 =
         0.30383   -0.05754   -0.01656    0.00904

HKLF 4

REM  14 in P2(1)/c
REM R1 =  0.0447 for    4805 Fo > 4sig(Fo)  and  0.0550 for all    6127 data
REM    463 parameters refined using      0 restraints

END

WGHT      0.1030      0.2963

REM Highest difference peak  1.736,  deepest hole -0.906,  1-sigma level  0.114
Q1    1  -0.2581  0.4176 -0.4012  11.00000  0.05    1.74
Q2    1   0.0000  1.0000  0.0000  10.50000  0.05    1.26
Q3    1   0.1961  0.7311  0.4120  11.00000  0.05    1.26
Q4    1   0.0353  0.6593  0.1169  11.00000  0.05    0.70
Q5    1  -0.3165  0.2719 -0.5442  11.00000  0.05    0.69
Q6    1   0.0085  0.6592 -0.0668  11.00000  0.05    0.59
Q7    1   0.0005  0.6989  0.0157  11.00000  0.05    0.52
Q8    1   0.2741  1.0982  0.1215  11.00000  0.05    0.48
Q9    1  -0.4099  0.5326 -0.2974  11.00000  0.05    0.45
Q10   1  -0.3317  0.7845  0.1238  11.00000  0.05    0.42
Q11   1  -0.3894  0.5630 -0.3426  11.00000  0.05    0.42
Q12   1   0.0471  0.7808  0.4486  11.00000  0.05    0.41
Q13   1  -0.4424  0.4749 -0.1391  11.00000  0.05    0.40
Q14   1  -0.1541  0.3286 -0.0394  11.00000  0.05    0.40
Q15   1  -0.3632  0.4993 -0.3641  11.00000  0.05    0.39
Q16   1   0.0025  0.6080  0.0151  11.00000  0.05    0.37
Q17   1  -0.0561  0.3962 -0.0618  11.00000  0.05    0.35
Q18   1  -0.3184  0.8503  0.1210  11.00000  0.05    0.35
Q19   1  -0.1938  0.5816 -0.3604  11.00000  0.05    0.35
Q20   1  -0.3112  0.2641  0.1481  11.00000  0.05    0.34
;
_shelx_res_checksum              99487
_shelx_hkl_file
;
   3   0   0   13.56    1.76
  -3   0   0   18.81    2.22
   4   0   0  735.18   16.40
  -4   0   0  715.02   15.75
   4   0   0  672.19   15.34
   5   0   0    1.11    1.76
  -5   0   0    1.23    1.21
   5   0   0    2.33    1.22
   6   0   0 2844.29   47.62
  -6   0   0 2832.31   46.88
   6   0   0 2638.26   45.62
  -7   0   0   -0.03    1.82
   7   0   0    0.15    1.04
   8   0   0 1840.35   27.18
  -8   0   0 1779.57   26.38
   8   0   0 1736.41   26.82
  -9   0   0   20.10    3.19
   9   0   0   25.30    2.55
  10   0   0 1756.49   47.99
  10   0   0 1769.35   19.40
  11   0   0   34.63    3.63
 -11   0   0   34.67    3.41
  11   0   0   35.43    3.10
 -11   0   0   42.59    4.55
 -12   0   0 1071.15   22.04
  12   0   0 1081.82   15.23
  13   0   0   59.16    3.99
 -13   0   0   60.55    4.20
  13   0   0   62.55    4.30
  14   0   0  444.12   14.41
 -14   0   0  434.02   14.04
  14   0   0  425.66   14.44
  15   0   0   30.79    2.85
 -15   0   0   34.72    2.96
  15   0   0   37.46    3.45
  16   0   0    2.06    1.89
 -16   0   0    1.73    2.08
  16   0   0    2.07    2.10
  17   0   0  155.44    5.25
 -17   0   0  163.07    5.93
  17   0   0  166.35    5.87
  18   0   0   21.05    2.54
  18   0   0   21.24    2.89
  19   0   0   98.33    5.93
  19   0   0  112.21    5.99
  20   0   0   92.06    4.34
  20   0   0   88.64    7.60
  21   0   0   98.32    5.35
  21   0   0  105.49    6.10
  22   0   0   37.16    3.80
  23   0   0   87.44    5.04
  24   0   0    2.20    3.14
   3   1   0   37.66    3.13
  -3  -1   0   34.65    3.68
  -3   1   0   37.69    3.16
   3  -1   0   48.13    4.03
   4   1   0   20.51    2.30
  -4  -1   0   19.40    2.19
  -4   1   0   21.00    2.31
   4  -1   0   21.79    2.40
   5   1   0  728.37   16.93
  -5  -1   0  739.60   15.84
   6   1   0  425.95   11.18
   6  -1   0  462.59   11.45
  -6  -1   0  426.39   10.45
  -6   1   0  457.57   11.11
   6   1   0  419.04   11.25
   6  -1   0  457.58   11.88
   7   1   0  647.27   16.17
   7  -1   0  674.96   15.77
  -7  -1   0  675.02   14.95
  -7   1   0  670.12   14.42
   7   1   0  626.48   14.92
   7  -1   0  687.27   15.94
   8   1   0  439.29   11.09
   8  -1   0  430.37   11.10
  -8  -1   0  458.35   10.59
  -8   1   0  446.33   10.01
   8   1   0  433.97   10.39
   8  -1   0  471.86   11.55
  -8   1   0  428.96   12.06
   9   1   0  367.77    9.13
   9  -1   0  373.86    9.62
  -9  -1   0  396.93    9.48
  -9   1   0  373.30    8.95
   9   1   0  368.60    9.71
   9  -1   0  423.40   10.34
  -9   1   0  404.64   11.75
  10   1   0  260.03    9.25
  10  -1   0  249.22    8.93
 -10  -1   0  249.28    8.97
 -10   1   0  259.34    9.00
  10   1   0  248.33    9.41
  10  -1   0  242.59    9.04
 -10   1   0  241.35    9.67
  11   1   0  328.12    8.74
  11  -1   0  309.02    9.46
 -11  -1   0  327.73    8.36
 -11   1   0  317.65    8.33
  11   1   0  327.33    8.96
  11  -1   0  328.60    9.03
 -11  -1   0  326.06    9.65
 -11   1   0  335.88   10.32
  12   1   0   80.31    4.17
  12  -1   0   81.94    4.22
 -12  -1   0   79.37    4.05
 -12   1   0   81.49    4.14
  12   1   0   84.23    4.56
  12  -1   0   83.31    4.48
 -12  -1   0   80.07    5.37
 -12   1   0   80.43    4.92
  13   1   0  292.65   10.42
  13  -1   0  286.08   10.08
 -13  -1   0  282.89    9.75
 -13   1   0  282.71    9.78
  13   1   0  277.56   11.11
  13  -1   0  281.13   10.26
  14   1   0  190.61    7.55
  14  -1   0  197.62    7.87
 -14  -1   0  193.92    8.06
 -14   1   0  195.01    7.84
  14   1   0  200.53    8.26
  14  -1   0  199.15    8.16
  15  -1   0  218.40    8.29
  15   1   0  219.90    9.31
 -15  -1   0  217.71    8.38
 -15   1   0  207.92    8.08
  15   1   0  219.99    8.66
  15  -1   0  220.15    8.72
  16  -1   0  283.17    9.04
  16   1   0  281.21    9.36
 -16  -1   0  274.34    9.22
 -16   1   0  275.67    9.22
  16   1   0  276.88    9.40
  16  -1   0  269.55    9.19
  17   1   0   78.35    6.19
  17  -1   0   77.56    6.04
 -17   1   0   77.59    6.05
  17   1   0   84.99    6.76
  17  -1   0   80.69    6.36
  18   1   0    7.68    2.40
  18  -1   0    7.76    2.11
  18   1   0    7.20    2.49
  18  -1   0    7.42    2.56
  19  -1   0   61.73    4.42
  19   1   0   63.60    4.66
  19   1   0   65.94    5.44
  19  -1   0   61.69    4.74
  20   1   0   28.45    2.95
  20  -1   0   28.35    3.09
  20   1   0   25.76    3.38
  20  -1   0   26.05    3.30
  21   1   0   51.46    3.79
  21   1   0   49.74    4.16
  21  -1   0   50.29    4.31
  22   1   0   18.21    3.53
  22  -1   0   20.51    3.20
  23   1   0   19.74    3.44
  23  -1   0   21.20    3.44
  24  -1   0   16.50    3.77
   2  -2   0 2374.17   40.61
   2  -2   0 2079.22   36.38
   3   2   0    0.01    0.93
  -3   2   0    0.14    1.39
   3  -2   0    0.19    1.00
   4   2   0 2054.78   35.84
  -4  -2   0 1979.18   37.66
  -4   2   0 2149.49   37.08
   4  -2   0 2048.21   36.68
   5   2   0  105.81    7.19
  -5  -2   0  112.82    7.69
  -5   2   0  105.18    7.05
   5  -2   0  117.59    8.04
   6   2   0 3365.82   55.47
  -6  -2   0 3345.47   54.66
   7   2   0   11.06    2.33
  -7  -2   0    9.59    1.78
  -7   2   0   10.80    1.91
   7  -2   0   10.84    1.77
  -7   2   0    9.24    2.02
   8   2   0  902.69   16.04
   8  -2   0  916.17   16.32
  -8  -2   0  872.44   16.52
  -8   2   0  912.51   15.99
   8   2   0  837.58   16.73
   8  -2   0  879.24   17.08
  -8   2   0  876.38   18.82
   9   2   0    9.66    1.77
   9  -2   0   10.45    1.72
  -9  -2   0   10.51    1.90
  -9   2   0    9.72    3.97
   9   2   0   11.70    1.91
   9  -2   0   15.12    2.04
  -9   2   0   13.10    2.07
  10   2   0    4.21    1.59
  10  -2   0    3.55    1.47
 -10  -2   0    3.24    1.52
 -10   2   0    3.49    1.85
  10   2   0    1.79    1.82
  10  -2   0    0.71    1.38
 -10   2   0    1.37    1.64
  11   2   0   44.35    4.21
  11  -2   0   43.56    4.07
 -11  -2   0   47.79    4.49
 -11   2   0   41.82    4.21
  11   2   0   46.98    4.51
  11  -2   0   52.56    4.96
 -11   2   0   46.71    4.74
  12   2   0   65.26    3.72
  12  -2   0   61.31    3.53
 -12  -2   0   56.25    3.45
 -12   2   0   64.37    3.78
  12   2   0   55.23    3.77
  12  -2   0   50.60    3.58
 -12   2   0   54.71    4.15
  13   2   0   15.29    2.21
  13  -2   0   15.70    2.53
 -13  -2   0   16.67    2.26
 -13   2   0   15.83    2.29
  13   2   0   16.07    2.31
  13  -2   0   18.60    2.54
  14   2   0   48.63    3.33
  14  -2   0   47.32    3.22
 -14  -2   0   49.32    3.22
 -14   2   0   49.47    3.39
  14   2   0   49.63    3.40
  14  -2   0   44.23    3.33
  15   2   0   66.34    4.70
  15  -2   0   60.96    4.39
 -15  -2   0   63.85    4.50
 -15   2   0   61.54    4.47
  15   2   0   68.44    4.91
  15  -2   0   70.06    5.08
  16   2   0   46.85    4.65
  16  -2   0   45.19    4.51
 -16   2   0   45.66    4.52
  16   2   0   40.87    4.56
  16  -2   0   37.33    3.27
  17  -2   0    2.52    2.05
  17   2   0    3.40    2.19
 -17   2   0    4.45    2.14
  17   2   0    3.69    2.31
  17  -2   0    3.61    2.14
  18   2   0    5.61    2.10
  18  -2   0    4.78    2.16
  18   2   0    3.90    2.44
  18  -2   0    4.04    2.60
  19  -2   0   18.46    2.60
  19   2   0   16.78    2.47
  19   2   0   19.28    3.03
  19  -2   0   18.54    2.97
  20   2   0   -0.98    2.10
  20   2   0    0.06    2.43
  20  -2   0   -0.97    2.68
  21   2   0   21.32    3.13
  21  -2   0   25.31    3.37
  22   2   0   -0.29    2.44
  22  -2   0   -0.74    2.65
 -22  -2   0   -0.26    3.10
  23  -2   0   16.30    3.36
 -23  -2   0   16.72    3.45
  24  -2   0    3.83    3.53
 -24  -2   0    0.93    3.33
   0   3   0    0.00    0.80
   0  -3   0    0.10    0.72
   0  -3   0   -0.16    1.12
  -1   3   0    0.58    0.77
   1  -3   0    0.16    0.80
  -1  -3   0    0.46    0.89
   1  -3   0    0.54    1.28
  -1  -3   0    0.87    1.31
  -2   3   0   66.15    4.88
   2  -3   0   68.94    5.01
  -2  -3   0   63.19    4.90
   2  -3   0   65.61    5.09
   3  -3   0    9.56    2.02
   3  -3   0   13.61    2.02
   4   3   0   64.43    4.87
  -4   3   0   72.44    5.57
   4  -3   0   67.39    5.11
   5   3   0   32.92    3.23
  -5  -3   0   31.86    2.99
  -5   3   0   33.59    3.15
   5  -3   0   33.92    3.13
  -5   3   0   32.53    3.04
   6   3   0    1.06    0.99
  -6  -3   0    0.14    1.27
  -6   3   0    2.44    1.37
   6  -3   0    0.63    0.91
  -6   3   0    0.20    1.21
   7   3   0    9.13    1.55
  -7  -3   0    9.39    1.75
  -7   3   0    9.37    1.73
   7  -3   0   11.35    1.87
  -7   3   0    9.03    1.71
   8   3   0   41.40    3.28
  -8  -3   0   41.90    3.28
  -8   3   0   42.30    3.27
   8  -3   0   48.79    3.67
  -8   3   0   42.80    3.28
   9   3   0    4.35    1.60
  -9  -3   0    4.35    1.59
  -9   3   0    3.79    1.50
   9  -3   0    4.91    1.69
  -9   3   0    4.42    1.79
  10   3   0   23.71    2.63
 -10  -3   0   23.78    2.60
 -10   3   0   26.06    2.60
  10  -3   0   19.74    2.65
 -10   3   0   22.79    2.75
  11   3   0   35.60    2.88
  11  -3   0   35.87    2.80
 -11  -3   0   31.63    2.80
 -11   3   0   35.18    2.94
  11  -3   0   35.25    3.07
 -11   3   0   34.93    3.18
  12   3   0    5.65    1.98
  12  -3   0    6.58    1.95
 -12  -3   0    7.21    2.00
 -12   3   0    6.17    2.01
  12  -3   0    6.82    2.21
 -12   3   0    7.77    2.33
  13   3   0   34.32    3.04
  13  -3   0   33.98    2.98
 -13  -3   0   33.27    3.13
 -13   3   0   36.94    3.39
  13  -3   0   32.42    3.23
  14   3   0    1.40    1.84
  14  -3   0    0.48    2.52
 -14  -3   0    1.44    1.99
 -14   3   0    0.32    2.08
  14  -3   0    0.61    2.05
  15   3   0   14.63    2.28
  15  -3   0   14.00    3.17
 -15   3   0   14.90    2.45
  15  -3   0   19.08    2.81
  16   3   0   40.58    4.25
  16  -3   0   39.20    2.88
 -16   3   0   40.45    4.16
  16  -3   0   40.91    4.48
  17   3   0   -0.58    1.80
  17  -3   0   -0.46    2.41
  17  -3   0    1.17    2.05
 -17  -3   0    0.77    2.49
  18   3   0   21.37    2.77
  18  -3   0   19.86    2.83
  18  -3   0   19.71    3.13
 -18  -3   0   19.04    2.86
  19   3   0    1.80    1.99
  19  -3   0   -0.22    2.51
 -19  -3   0    0.77    2.66
  20   3   0    2.22    2.47
  20  -3   0    3.06    2.74
 -20  -3   0    1.41    3.04
  21   3   0   12.79    2.55
  21  -3   0   13.99    3.10
 -21  -3   0   13.88    3.45
  22   3   0   11.57    3.22
  22  -3   0    9.80    3.17
 -22  -3   0   10.04    3.43
  23   3   0    8.65    2.66
  23  -3   0    8.78    3.28
 -23  -3   0   10.00    3.71
  24  -3   0    8.90    3.94
 -24  -3   0    8.22    3.38
   0   4   0 1050.22   20.36
   0  -4   0 1076.31   20.82
  -1   4   0   13.78    1.82
   1   4   0   16.59    2.07
   1  -4   0   15.76    2.00
  -1  -4   0   17.82    2.02
   1  -4   0   24.80    2.75
  -1  -4   0   26.94    2.80
   2  -4   0  802.55   16.64
  -2  -4   0  790.97   17.04
   2  -4   0  730.64   16.22
  -2  -4   0  718.96   15.69
   3  -4   0    4.38    1.22
  -3  -4   0    5.09    1.18
   3  -4   0    4.47    1.55
  -3   4   0    5.00    1.40
  -3  -4   0    5.08    1.63
   4  -4   0  205.61   12.46
   4  -4   0  253.52    7.99
  -4   4   0  259.91    9.14
   5   4   0    4.46    1.34
   5  -4   0    5.26    1.56
   5  -4   0    4.06    1.32
  -5   4   0    4.66    1.61
   6   4   0    4.28    1.34
  -6  -4   0    2.18    1.13
   6  -4   0    2.35    1.36
  -6   4   0    1.90    1.52
   6  -4   0    6.82    1.60
  -6   4   0    4.59    1.65
   7   4   0    1.39    1.21
  -7  -4   0    1.12    1.50
   7  -4   0    1.67    1.19
  -7   4   0    1.73    1.42
   7  -4   0    2.46    1.63
  -7   4   0    2.07    1.32
   8   4   0  658.93   13.08
  -8  -4   0  659.40   13.26
  -8   4   0  671.96   13.18
   8  -4   0  621.35   13.05
  -8   4   0  642.64   13.91
   9   4   0    0.99    2.54
  -9  -4   0    2.42    1.50
  -9   4   0    1.64    1.56
   9  -4   0    1.06    1.38
  -9   4   0    1.86    1.67
  10   4   0  246.48    7.43
 -10  -4   0  253.15    7.78
 -10   4   0  248.27    7.37
  10  -4   0  246.62    7.80
 -10   4   0  251.19    7.81
  11   4   0    1.96    1.62
 -11  -4   0    2.26    1.63
 -11   4   0    2.46    1.69
  11  -4   0    1.90    1.43
 -11   4   0    3.26    1.72
  12   4   0  236.22    8.61
 -12  -4   0  213.31    8.28
 -12   4   0  233.35    8.59
  12  -4   0  240.02    9.13
 -12   4   0  234.12    9.18
  13   4   0   12.09    2.08
 -13  -4   0   11.77    2.32
 -13   4   0   11.05    2.31
  13  -4   0    8.96    2.15
  14   4   0  156.36    6.79
 -14   4   0  156.12    6.65
  14  -4   0  131.15    6.35
  15   4   0    1.39    2.29
 -15   4   0    0.57    1.84
  15  -4   0    2.41    1.77
  16   4   0   18.71    2.51
  16  -4   0   21.60    2.64
 -16   4   0   20.10    2.70
  16  -4   0   18.46    2.78
  17   4   0   -0.27    1.95
  17  -4   0    0.61    1.93
  17  -4   0    2.57    2.37
  18   4   0    5.28    2.38
  18  -4   0    4.99    2.59
 -18  -4   0    4.96    2.67
  19   4   0    7.42    2.53
  19  -4   0    9.66    2.86
 -19  -4   0   11.50    3.27
  20   4   0   40.71    3.45
  20  -4   0   36.67    3.85
 -20  -4   0   33.85    3.88
  21   4   0    4.00    2.47
  21  -4   0    7.57    2.67
 -21  -4   0   10.42    3.44
  22   4   0   32.21    3.56
  22  -4   0   31.69    3.75
 -22  -4   0   30.08    3.99
  23   4   0   11.32    3.14
  23  -4   0   14.50    3.27
 -23  -4   0   16.47    3.78
  24  -4   0   21.81    3.69
 -24  -4   0   20.31    3.63
   0   5   0    0.13    0.80
   0  -5   0   -0.28    0.96
   0  -5   0   -0.06    1.33
  -1   5   0    1.03    0.98
   1   5   0    1.71    0.96
   1  -5   0    1.51    1.16
  -1  -5   0    2.48    1.21
   1  -5   0    5.46    1.66
  -1   5   0    6.03    1.85
  -1  -5   0    7.80    1.82
  -2   5   0  369.28    9.58
   2  -5   0  365.61    9.49
   2   5   0  366.34    9.97
  -2  -5   0  360.02    9.43
   2  -5   0  382.93   10.42
  -2   5   0  364.81    9.92
  -2  -5   0  376.27   10.16
  -3   5   0   63.74    4.79
   3  -5   0   56.39    4.38
  -3  -5   0   54.14    4.26
   3  -5   0   45.54    4.03
  -3   5   0   47.57    4.23
  -3  -5   0   46.85    4.42
   4  -5   0  146.21    9.36
  -4  -5   0  146.84    9.55
   4  -5   0  143.79    9.29
  -4   5   0  155.51    9.96
  -4  -5   0  143.93    9.26
   5  -5   0   20.74    2.40
   5  -5   0   21.54    2.52
  -5   5   0   20.41    2.53
  -5  -5   0   18.13    2.51
   6  -5   0    3.91    1.62
   6   5   0    7.37    1.46
   6  -5   0    7.05    1.83
   6  -5   0    9.58    1.92
  -6   5   0   16.41    2.21
   7   5   0   90.51    4.96
  -7  -5   0   91.60    5.75
   7  -5   0   88.74    4.96
   7  -5   0   98.81    5.38
   8   5   0  650.63   18.80
  -8  -5   0  641.42   19.79
   8  -5   0  638.28   19.23
  -8   5   0  649.12   19.21
   8  -5   0  646.65   19.10
  -8   5   0  628.42   19.30
   9   5   0  170.84    8.43
  -9  -5   0  178.99    8.95
   9  -5   0  159.91    8.06
  -9   5   0  181.85    8.84
   9  -5   0  175.88    8.96
  -9   5   0  184.06    9.53
  10   5   0   16.09    3.55
  10  -5   0   16.15    2.15
 -10  -5   0   15.85    2.16
 -10   5   0   16.86    2.26
  10  -5   0   17.63    2.52
 -10   5   0   16.93    2.26
  11   5   0  164.58    6.08
  11  -5   0  164.45    6.00
 -11  -5   0  156.43    6.24
 -11   5   0  166.02    6.22
  11  -5   0  184.03    6.93
 -11   5   0  170.43    6.84
  12  -5   0    0.69    1.63
 -12  -5   0    1.51    1.55
 -12   5   0    0.55    1.71
  12  -5   0    0.80    1.64
  13   5   0  166.65    6.94
  13  -5   0  167.74    6.95
 -13   5   0  169.05    7.04
  13  -5   0  208.06    8.64
  14   5   0   56.55    4.31
 -14   5   0   56.43    4.33
  14  -5   0   59.70    4.60
  15   5   0   96.32    4.38
 -15   5   0   96.40    4.43
  15  -5   0  112.57    5.45
  16   5   0    1.23    2.45
  16  -5   0    1.55    2.39
  17   5   0   90.02    5.34
  17  -5   0  105.02    5.20
  18   5   0   32.25    3.10
  18  -5   0   34.96    3.52
  19   5   0   41.19    3.86
  19  -5   0   50.84    5.20
  20   5   0   45.22    3.51
  20  -5   0   46.67    4.18
 -20  -5   0   46.69    4.10
  21   5   0   48.60    3.66
  21  -5   0   51.41    4.06
 -21  -5   0   53.46    4.34
  22   5   0   47.52    3.61
  22  -5   0   47.02    4.52
 -22  -5   0   44.67    4.15
  23   5   0   46.24    3.84
  23  -5   0   46.91    4.16
 -23  -5   0   49.30    4.44
   0   6   0  400.26   10.21
   0  -6   0  401.02   10.07
   0  -6   0  391.67   10.55
   0   6   0  436.61   11.35
  -1   6   0    5.65    1.40
   1   6   0    5.02    1.45
   1  -6   0    5.34    1.60
  -1  -6   0    4.90    1.58
   1  -6   0    5.82    1.52
  -1   6   0    4.36    1.45
  -1  -6   0    4.99    1.38
   1   6   0    4.71    1.45
  -2   6   0 1115.03   21.34
   2   6   0 1066.65   21.16
   2  -6   0 1069.75   20.76
  -2  -6   0 1035.11   20.08
   2  -6   0  983.93   20.22
  -2   6   0  990.30   20.49
  -2  -6   0  969.20   19.83
  -3   6   0   28.57    2.77
   3  -6   0   26.34    2.66
   3   6   0   25.70    2.67
  -3  -6   0   25.65    2.58
   3  -6   0   25.32    2.86
  -3   6   0   24.67    2.83
  -3  -6   0   24.35    2.63
   4  -6   0 1180.85   19.38
  -4  -6   0 1130.59   18.87
   4  -6   0 1090.58   19.40
  -4   6   0 1109.31   19.88
  -4  -6   0 1104.97   19.41
   5  -6   0    5.67    1.62
  -5  -6   0    6.46    1.44
   5  -6   0    6.01    1.53
  -5   6   0    6.77    2.02
  -5  -6   0    6.77    1.60
   6  -6   0 2453.47   21.47
   6  -6   0 2451.13   21.85
  -6   6   0 2405.60   37.90
   7   6   0    3.58    1.33
   7  -6   0    3.58    1.54
   7  -6   0    4.23    1.77
  -7   6   0    2.01    1.71
   8  -6   0  616.54   18.49
   8   6   0  597.09   17.48
  -8  -6   0  563.84   17.52
   8  -6   0  570.96   17.02
   8  -6   0  552.68   16.85
  -8   6   0  510.12   16.67
   9  -6   0   11.85    2.19
   9   6   0   11.67    2.05
  -9  -6   0   10.72    2.22
   9  -6   0   12.72    2.15
  -9   6   0   12.19    2.16
  10   6   0   45.29    3.20
  10  -6   0   41.32    7.95
 -10  -6   0   44.16    3.17
 -10   6   0   41.63    3.26
  10  -6   0   41.47    3.37
 -10   6   0   37.83    3.34
  11   6   0    1.61    1.57
  11  -6   0    1.04    1.53
 -11  -6   0    0.69    1.78
 -11   6   0    0.55    1.73
  11  -6   0    0.82    1.80
  12   6   0  114.95    5.35
  12  -6   0  110.00    5.20
 -12   6   0   99.84    5.14
  12  -6   0  100.92    5.37
 -13   6   0   -0.52    1.87
  13  -6   0    0.00    1.96
  14   6   0  201.08    8.49
  14  -6   0  199.37    8.48
 -14   6   0  172.99    8.34
  14  -6   0  169.94    7.93
  15   6   0    6.58    1.93
  15  -6   0   12.19    2.65
  16   6   0   71.43    5.68
  16  -6   0   54.71    5.13
  17   6   0    4.22    2.21
  17  -6   0    8.70    2.30
  18   6   0  129.33    6.02
  18  -6   0  116.78    6.40
  19   6   0    0.70    2.25
  19  -6   0    3.65    2.70
  20   6   0   55.39    3.91
  20  -6   0   44.22    4.06
  21   6   0    6.38    2.61
  21  -6   0   10.54    3.09
 -21  -6   0   13.59    3.84
  22   6   0    7.36    2.53
  22  -6   0    3.71    3.43
 -22  -6   0    5.12    3.12
  23   6   0   17.15    3.38
  23  -6   0   21.03    3.81
 -23  -6   0   21.17    3.79
   0   7   0   -0.03    1.20
   0  -7   0   -0.23    1.36
   0  -7   0    0.68    1.27
   0   7   0   -0.54    1.45
  -1   7   0    2.69    1.38
   1   7   0    1.96    1.28
   1  -7   0    3.25    1.46
  -1  -7   0    2.53    1.47
   1  -7   0    4.47    1.78
  -1  -7   0    4.95    1.67
  -1   7   0    4.54    1.48
   1   7   0    3.50    1.75
  -2   7   0   32.16    2.80
   2   7   0   32.33    2.79
   2  -7   0   30.25    2.75
  -2  -7   0   28.29    2.65
   2  -7   0   27.00    2.80
  -2   7   0   27.10    2.81
  -2  -7   0   25.84    2.74
   2   7   0   25.05    2.58
  -3   7   0   50.57    3.52
   3   7   0   51.63    3.62
   3  -7   0   53.89    3.66
  -3  -7   0   55.97    3.69
   3  -7   0   68.40    4.44
  -3   7   0   64.63    4.21
  -3  -7   0   64.31    4.25
   3   7   0   61.59    4.47
  -4   7   0    8.38    1.79
   4  -7   0    7.54    1.68
   4   7   0    7.91    1.73
  -4  -7   0    8.08    1.68
   4  -7   0    6.39    1.86
  -4   7   0    8.11    1.96
  -4  -7   0    6.22    1.80
   5  -7   0  165.09    8.43
  -5  -7   0  175.71    8.76
   5  -7   0  183.66    9.29
  -5   7   0  179.06    9.52
  -5  -7   0  185.65    9.15
  -6  -7   0   -0.47    1.36
   6  -7   0    0.13    1.49
  -6   7   0    0.07    1.39
  -6  -7   0    0.64    1.48
   7  -7   0   28.90    2.75
   7  -7   0   30.85    2.97
   7  -7   0   36.80    3.40
  -7   7   0   41.84    3.61
  -7  -7   0   41.38    3.51
   8   7   0    3.10    1.63
   8  -7   0    3.32    3.76
   8  -7   0    3.16    2.10
  -8   7   0    5.59    2.27
  -8  -7   0    4.21    1.85
   9   7   0   44.38    3.22
  -9  -7   0   44.32    3.33
   9  -7   0   44.86    3.40
  -9  -7   0   41.94    3.35
   9  -7   0   45.75    3.52
  -9   7   0   46.05    3.23
  10   7   0   11.44    1.88
  10  -7   0   10.70    3.10
  10  -7   0   12.52    2.28
 -10   7   0   13.38    2.41
  11   7   0   12.91    2.11
  11  -7   0   17.28    2.57
  12  -7   0   30.06    4.24
  12   7   0   28.13    2.81
  12  -7   0   30.13    3.09
  13   7   0   56.17    3.52
  13  -7   0   64.60    4.09
  14   7   0   34.47    3.51
  14  -7   0   34.31    3.35
  15   7   0   35.03    3.70
  15  -7   0   35.55    4.06
  16   7   0    3.32    2.22
  16  -7   0    5.42    3.05
  17   7   0   17.73    2.63
  17  -7   0   26.62    3.27
  18   7   0    0.69    2.33
  18  -7   0    2.06    2.91
  19   7   0   51.02    3.51
  19  -7   0   52.70    4.14
  20   7   0   10.71    2.76
  20  -7   0   10.00    2.73
  21   7   0   26.54    3.20
  21  -7   0   26.00    3.80
  22   7   0   10.53    3.22
  22  -7   0    6.27    3.49
 -22  -7   0    7.52    3.47
  23   7   0    3.11    2.86
  23  -7   0    2.72    3.51
 -23  -7   0    2.47    3.69
   0   8   0    1.87    1.43
   0  -8   0    5.07    1.75
   0  -8   0    9.69    2.05
   0   8   0   11.41    2.22
  -1   8   0    0.68    1.40
   1   8   0    0.33    1.35
   1  -8   0    0.28    1.29
  -1  -8   0    0.41    1.33
   1  -8   0    0.28    1.35
  -1  -8   0    0.57    1.68
  -1   8   0   -0.64    1.65
   1   8   0   -0.23    1.32
  -2   8   0   -0.21    1.19
   2   8   0    0.55    1.31
   2  -8   0    1.17    1.46
  -2  -8   0    1.94    1.59
   2  -8   0    0.71    1.55
  -2   8   0   -0.06    1.69
  -2  -8   0    0.63    1.43
   2   8   0    0.33    1.73
  -3   8   0    0.73    1.40
   3   8   0    1.21    1.42
   3  -8   0    0.76    1.53
  -3  -8   0    1.22    1.45
   3  -8   0    1.28    1.53
  -3   8   0    1.67    1.79
  -3  -8   0    2.14    1.62
   3   8   0    0.94    1.68
  -4   8   0    2.38    1.47
   4   8   0    2.63    1.65
   4  -8   0    2.81    1.62
  -4  -8   0    2.75    1.73
   4  -8   0    1.90    1.35
  -4   8   0    1.32    1.43
  -4  -8   0    3.11    1.71
   4   8   0    1.62    1.70
   5   8   0   -0.73    1.46
   5  -8   0   -0.34    1.38
  -5  -8   0   -0.14    1.45
   5  -8   0   -0.51    1.50
  -5   8   0   -0.45    1.99
  -5  -8   0    1.10    1.64
   5   8   0    0.90    1.80
  -6  -8   0    2.57    1.36
   6  -8   0    2.88    1.49
  -6   8   0    2.05    1.94
  -6  -8   0    3.47    1.71
   7  -8   0   31.81    3.68
  -7  -8   0   32.79    2.80
   7  -8   0   33.79    2.89
   7  -8   0   36.59    3.25
  -7   8   0   36.08    3.01
  -7  -8   0   38.94    3.98
   8  -8   0    4.54    4.21
   8  -8   0    4.89    2.14
   8  -8   0    5.03    1.98
  -8   8   0    8.81    2.43
  -8  -8   0    8.27    1.91
   9   8   0    2.68    1.56
   9  -8   0    3.52    5.49
   9  -8   0    3.72    1.83
  -9   8   0    4.76    2.17
  -9  -8   0    4.94    1.65
  10   8   0   -1.30    1.81
  10  -8   0    0.21    1.57
 -10  -8   0    1.38    1.81
  11   8   0   11.32    2.32
  11  -8   0   12.16    2.33
  12   8   0    1.38    1.88
  12  -8   0    3.64    2.26
  13   8   0    0.43    2.01
  13  -8   0    0.15    2.00
  14   8   0    1.40    1.95
  14  -8   0    2.87    2.32
  15   8   0    2.43    2.08
  15  -8   0    1.88    2.46
  16   8   0   16.44    2.67
  16  -8   0   15.33    2.86
  17   8   0    4.63    2.38
  17  -8   0    7.86    2.89
  18   8   0    2.03    2.47
  18  -8   0    2.58    2.82
  19   8   0    3.54    2.95
  19  -8   0    4.62    2.73
  20   8   0    0.45    2.42
  20  -8   0    1.56    2.99
  21   8   0   -0.67    2.46
  21  -8   0   -0.20    2.81
  22   8   0    3.08    2.94
  22  -8   0    1.79    3.53
   0   9   0    0.04    1.37
   0  -9   0    0.74    1.38
   0  -9   0    1.20    1.30
   0   9   0    0.00    1.93
  -1   9   0   47.68    3.67
   1   9   0   47.51    3.52
   1  -9   0   48.54    3.62
  -1  -9   0   47.23    3.53
   1  -9   0   48.11    3.91
  -1  -9   0   50.36    3.86
  -1   9   0   48.14    4.09
   1   9   0   48.54    3.83
  -2   9   0    3.87    1.59
   2   9   0    2.55    1.33
   2  -9   0    1.87    1.49
  -2  -9   0    1.42    1.52
   2  -9   0   -0.20    1.68
  -2   9   0    0.06    1.68
  -2  -9   0   -0.65    1.66
   2   9   0   -0.06    1.86
  -3   9   0    7.26    1.74
   3   9   0    7.70    1.63
   3  -9   0    7.88    1.70
  -3  -9   0    6.77    1.65
   3  -9   0    7.12    1.97
  -3   9   0    7.74    2.05
  -3  -9   0    7.57    1.91
   3   9   0    7.72    1.87
  -4   9   0   27.54    2.43
   4   9   0   26.98    3.07
   4  -9   0   27.28    2.57
  -4  -9   0   28.23    2.62
   4  -9   0   24.28    3.04
  -4   9   0   24.34    2.76
  -4  -9   0   27.46    2.82
   4   9   0   23.66    2.88
   5   9   0    1.02    2.22
   5  -9   0    0.36    2.29
  -5  -9   0   -0.44    1.76
   5  -9   0   -0.28    1.30
   5  -9   0    0.22    1.33
  -5   9   0    0.17    1.91
  -5  -9   0   -0.19    1.70
   5   9   0    1.50    1.77
   6   9   0    6.56    2.01
   6  -9   0    5.96    1.91
  -6  -9   0    7.11    1.88
   6  -9   0    6.21    1.80
  -6   9   0    8.19    2.24
  -6  -9   0    7.52    2.02
   6   9   0    7.38    2.23
   7   9   0    3.45    1.59
   7  -9   0    2.83    1.59
  -7  -9   0    5.20    1.64
   7  -9   0    5.19    2.13
  -7   9   0    6.12    2.40
  -7  -9   0    5.94    2.19
   7   9   0    5.68    2.36
   8  -9   0    3.24    2.05
   8  -9   0    3.31    1.80
   8  -9   0    2.40    1.82
  -8  -9   0    1.83    1.93
   9  -9   0    0.94    1.97
  -9  -9   0    3.77    2.23
  10   9   0  223.91    8.42
  10  -9   0  247.27    9.90
  10  -9   0  235.86    9.18
 -10  -9   0  232.34    8.90
  11   9   0   22.45    2.50
  11  -9   0   22.53    3.00
 -11  -9   0   26.66    3.02
  12   9   0   44.34    3.27
  12  -9   0   47.58    3.59
 -12  -9   0   44.91    3.57
  13   9   0    3.73    2.06
  13  -9   0    5.28    2.48
  14   9   0   13.80    2.67
  14  -9   0   15.77    2.75
  15   9   0    4.45    2.24
  15  -9   0    7.51    2.51
  16   9   0   -0.27    2.09
  16  -9   0    0.06    2.50
  17   9   0   26.51    2.98
  17  -9   0   28.99    3.42
  18   9   0    0.89    2.53
  18  -9   0    1.84    2.95
  19   9   0   11.05    3.18
  19  -9   0   15.50    3.22
  20   9   0   13.05    2.70
  20  -9   0   15.41    3.28
  21   9   0   25.14    3.31
  21  -9   0   30.82    3.79
  22   9   0    4.59    2.93
  22  -9   0    3.47    3.58
   0  10   0  150.67    5.87
   0 -10   0  161.41    5.62
   0 -10   0  166.54    6.31
   0  10   0  160.72    5.95
  -1  10   0    6.03    2.03
   1  10   0    4.87    2.08
   1 -10   0    3.82    2.26
  -1 -10   0    3.68    1.71
   1 -10   0    3.61    1.94
  -1 -10   0    2.60    1.96
  -1  10   0    3.24    1.71
   1  10   0    0.76    1.81
  -2  10   0  472.19   12.13
   2  10   0  470.68   12.31
   2 -10   0  469.36   11.63
  -2 -10   0  473.52   11.75
   2 -10   0  471.56   12.45
  -2 -10   0  472.70   12.34
  -2  10   0  484.93   13.07
   2  10   0  480.46   13.59
  -3  10   0   12.05    2.39
   3  10   0   11.21    2.36
  -3 -10   0   10.86    2.21
   3 -10   0   12.07    2.47
  -3 -10   0   11.61    2.49
  -3  10   0   12.40    2.54
   3  10   0   11.58    2.57
  -4  10   0  821.91   18.34
   4  10   0  825.44   18.17
   4 -10   0  820.46   18.14
  -4 -10   0  816.51   17.74
   4 -10   0  838.27   18.94
  -4  10   0  844.04   19.00
  -4 -10   0  828.58   18.55
   4  10   0  844.82   19.72
   5 -10   0   24.15    5.73
  -5 -10   0   25.92    3.24
   5 -10   0   27.48    2.61
   5 -10   0   26.90    3.47
  -5  10   0   27.23    2.73
  -5 -10   0   28.10    3.48
   5  10   0   27.23    2.92
   6  10   0  873.02   27.55
   6 -10   0  879.84   24.40
   6 -10   0  934.76   12.83
   6 -10   0  894.61   25.34
  -6 -10   0  889.41   25.11
   7 -10   0    5.96    1.99
  -7 -10   0    4.65    1.87
   8  10   0  136.57    5.95
   8 -10   0  147.21    6.29
   8 -10   0  147.06    6.36
   8 -10   0  138.00    6.37
  -8 -10   0  144.14    6.44
   9 -10   0   11.67    2.28
   9 -10   0   11.82    2.36
   9 -10   0   11.76    2.52
  -9 -10   0   14.66    2.58
  10 -10   0  131.20   13.82
  10 -10   0  122.33    5.31
 -10 -10   0  117.28    5.06
  11  10   0   -0.62    1.96
  11 -10   0    0.14    1.90
 -11 -10   0    1.16    2.33
  12  10   0  112.53    5.18
  12 -10   0  108.45    5.61
 -12 -10   0  105.22    5.26
  13  10   0    2.63    2.15
  13 -10   0    3.93    2.42
 -13 -10   0    3.57    4.13
  14  10   0   70.68    4.59
  14 -10   0   69.73    5.12
 -14 -10   0   61.44    4.42
  15  10   0    6.21    2.39
  15 -10   0   13.49    2.91
  16  10   0  174.53    6.09
  16 -10   0  153.23    6.20
  17  10   0   31.45    3.32
  17 -10   0   43.74    3.94
  18  10   0   82.46    5.11
  18 -10   0   63.46    4.83
  19  10   0   16.74    3.19
  19 -10   0   25.21    3.53
  20  10   0   32.87    3.50
  20 -10   0   22.45    3.72
  21  10   0    8.82    2.73
  21 -10   0   13.98    3.69
   0  11   0   -0.16    1.77
   0 -11   0   -0.64    1.80
   0 -11   0    0.27    1.86
   0  11   0   -0.73    2.40
  -1  11   0   11.24    2.21
   1  11   0   10.79    2.10
   1 -11   0   13.04    2.30
  -1 -11   0   13.83    2.17
   1 -11   0   15.38    2.54
  -1 -11   0   16.31    2.68
  -1  11   0   14.65    2.49
   1  11   0   14.81    2.88
  -2  11   0    0.83    1.69
   2  11   0   -0.45    1.74
   2 -11   0    0.76    1.78
  -2 -11   0    1.48    1.41
   2 -11   0    3.26    2.14
  -2 -11   0    2.19    1.90
  -2  11   0    1.57    1.85
  -3  11   0   21.66    2.58
   3  11   0   20.88    2.34
   3 -11   0   26.70    2.64
  -3 -11   0   26.74    2.73
   3 -11   0   36.93    3.52
  -3 -11   0   38.48    3.57
  -4  11   0   28.70    2.82
   4  11   0   27.75    4.22
   4 -11   0   28.53    2.68
  -4 -11   0   29.34    2.93
   4 -11   0   36.68    3.55
  -4 -11   0   33.39    3.40
   5  11   0   12.71    3.37
   5 -11   0   13.13    2.78
   5 -11   0   14.92    2.25
   5 -11   0   16.81    2.70
  -5 -11   0   15.02    2.58
   6  11   0    9.80    2.21
   6 -11   0    9.50    2.00
   6 -11   0   10.95    2.23
   6 -11   0   10.04    2.47
  -6 -11   0   11.56    2.45
   7 -11   0    1.25    1.96
  -7 -11   0   -0.51    2.11
   8  11   0  179.43   10.91
   8 -11   0  180.48    7.20
   8 -11   0  182.91    7.64
   8 -11   0  192.87    8.06
  -8 -11   0  194.60    7.96
   9  11   0  101.29    4.49
   9 -11   0  110.22    4.61
   9 -11   0  106.30    4.77
   9 -11   0  119.99    5.29
  -9 -11   0  130.63    5.29
  10 -11   0   14.86    2.93
 -10 -11   0   13.09    2.69
  11 -11   0   11.63    2.68
 -11 -11   0   13.20    4.73
  12  11   0   23.48    2.81
  12 -11   0   27.67    3.76
 -12 -11   0   28.41    4.15
  13  11   0   32.33    3.06
  13 -11   0   36.92    3.60
 -13 -11   0   43.32    4.90
  14  11   0   35.28    3.26
  14 -11   0   38.87    3.50
 -14 -11   0   40.03    7.61
  15  11   0   87.56    7.38
  15 -11   0  106.48    5.27
 -15 -11   0  105.00    4.98
  16  11   0   29.68    3.09
  16 -11   0   31.90    3.77
 -16 -11   0   29.90    3.41
  17  11   0   34.50    3.20
  17 -11   0   42.60    4.29
  18  11   0   54.02    3.89
  18 -11   0   52.60    4.37
  19  11   0   41.80    3.62
  19 -11   0   51.33    4.68
  20  11   0   11.47    2.93
  20 -11   0   14.15    3.76
  21  11   0   12.77    2.98
  21 -11   0   17.58    3.76
   0  12   0  163.39    6.95
   0 -12   0  158.85    6.65
   0 -12   0  156.88    5.76
  -1  12   0   90.66    4.80
   1  12   0   93.61    4.81
   1 -12   0   93.72    5.31
  -1 -12   0   93.70    4.82
   1 -12   0   94.04    5.41
  -1 -12   0   91.12    5.09
  -2  12   0  154.48    5.76
   2  12   0  153.89    5.29
   2 -12   0  148.23    6.19
  -2 -12   0  149.60    6.20
   2 -12   0  138.63    6.32
  -2 -12   0  142.45    6.43
  -3  12   0    2.03    2.03
   3  12   0    2.53    3.46
   3 -12   0    3.23    1.80
   3 -12   0    4.80    2.22
  -3 -12   0    5.32    2.30
  -4  12   0  141.48    6.17
   4  12   0  132.66    6.58
   4 -12   0  133.10    5.91
   4 -12   0  119.33    7.23
  -4 -12   0  123.54    7.26
   5 -12   0    1.20    1.61
   5 -12   0   -0.39    2.05
  -5 -12   0    0.32    2.09
   6  12   0   60.80    5.86
   6 -12   0   62.58    6.81
   6 -12   0   67.93    3.73
   6 -12   0   65.89    4.18
  -6 -12   0   61.88    3.80
   7  12   0   52.36    3.53
   7 -12   0   56.20    3.53
   7 -12   0   64.63    4.25
  -7 -12   0   65.62    4.21
   8  12   0   84.43    7.43
   8 -12   0   76.86    7.08
  -8 -12   0   76.21    6.76
   9  12   0   10.76    3.38
   9 -12   0    8.56    2.73
   9 -12   0    8.76    2.64
  -9 -12   0    9.46    2.50
  10  12   0   67.93    5.65
  10 -12   0   66.02    5.61
 -10 -12   0   68.35    5.52
  11 -12   0   -1.82    2.51
  12 -12   0  152.22    6.79
 -12 -12   0  143.48    5.81
  13  12   0    8.61    2.53
  13 -12   0    9.54    2.72
 -13 -12   0    9.82    3.86
  14  12   0   28.74    3.29
  14 -12   0   22.33    3.51
 -14 -12   0   18.03    3.29
  15  12   0   -0.31    2.41
  15 -12   0   -2.68    3.05
 -15 -12   0    0.35    3.02
  16  12   0   12.63    2.98
  16 -12   0    9.23    2.83
 -16 -12   0    9.23    3.56
  17  12   0    1.78    2.44
  17 -12   0    1.12    2.90
 -17 -12   0    0.85    2.70
  18  12   0   26.09    3.09
  18 -12   0   14.36    3.58
 -18 -12   0   21.41    3.58
  19  12   0    1.52    2.53
  19 -12   0    1.10    3.79
  20  12   0    6.98    2.81
  20 -12   0    0.81    3.58
   0  13   0    0.42    1.84
   0 -13   0    0.14    1.78
   0 -13   0   -0.99    2.09
  -1  13   0    0.42    2.04
   1  13   0    0.99    2.01
   1 -13   0    0.92    1.81
  -1 -13   0    0.71    1.85
   1 -13   0    1.41    2.49
  -1 -13   0    0.94    2.39
  -2  13   0    2.01    1.96
   2  13   0    2.74    2.00
   2 -13   0    3.14    1.81
   2 -13   0    2.14    2.42
  -2 -13   0    1.49    2.16
  -3  13   0    0.12    1.87
   3  13   0    1.39    1.89
   3 -13   0    0.24    1.78
   3 -13   0    1.24    2.27
  -3 -13   0    0.78    2.24
  -4  13   0    3.40    1.95
   4 -13   0    4.34    2.01
   4 -13   0    2.93    2.32
  -4 -13   0    4.64    2.40
   5  13   0   31.50    3.08
   5 -13   0   29.16    2.78
   5 -13   0   30.18    3.05
   5 -13   0   28.31    3.14
  -5 -13   0   27.39    3.10
   6 -13   0    2.04    1.99
   6 -13   0    3.39    2.36
  -6 -13   0    3.82    2.62
   7  13   0   47.47    7.47
   7 -13   0   51.37    5.04
   7 -13   0   54.55    5.61
  -7 -13   0   55.98    5.62
   8  13   0   99.45    7.23
   8 -13   0   91.33    7.14
  -8 -13   0   92.88    7.03
   9  13   0    1.92    2.44
   9 -13   0    0.71    2.38
  -9 -13   0    2.18    2.41
  10  13   0    3.32    2.46
  10 -13   0    4.08    2.46
 -10 -13   0    5.29    2.66
  11  13   0   -0.82    1.75
  11 -13   0   -1.23    2.53
 -11 -13   0    2.46    2.18
  12 -13   0    0.93    2.68
 -12 -13   0    2.62    2.56
  13 -13   0    0.05    2.64
 -13 -13   0   -1.82    2.92
  14  13   0    2.07    2.81
  14 -13   0    2.85    2.62
 -14 -13   0    2.79    2.63
  15  13   0    2.74    2.61
  15 -13   0    3.88    2.77
 -15 -13   0    2.37    2.81
  16  13   0    1.69    2.43
  16 -13   0    4.44    3.22
 -16 -13   0    3.98    2.62
  17  13   0    2.26    2.96
  17 -13   0    5.54    3.15
 -17 -13   0    2.00    3.17
  18  13   0    6.35    3.13
  18 -13   0    3.33    3.15
 -18 -13   0   -0.12    2.81
  19  13   0   -0.45    3.13
  19 -13   0    3.15    3.17
 -19 -13   0    1.09    2.85
   0  14   0   43.20    4.59
   0 -14   0   44.17    4.87
  -1  14   0   16.08    2.35
   1  14   0   13.57    2.43
   1 -14   0   19.53    2.65
   1 -14   0   24.41    3.48
  -1 -14   0   23.99    3.13
  -2  14   0  183.08    6.80
   2  14   0  179.92    7.78
   2 -14   0  179.87    6.70
   2 -14   0  176.72    7.10
  -2 -14   0  173.47    7.10
  -3  14   0    5.49    2.17
   3 -14   0    7.34    2.88
   3 -14   0   10.86    2.74
  -3 -14   0   10.78    2.69
  -4  14   0  170.97    5.53
   4  14   0  172.86   11.13
   4 -14   0  170.63    5.72
   4 -14   0  170.64    6.31
  -4 -14   0  160.80    6.06
   5  14   0  100.46   16.14
   5 -14   0  112.85    4.77
   5 -14   0  118.66    5.25
  -5 -14   0  114.61    5.09
   6  14   0  177.69    7.20
   6 -14   0  201.77    6.04
   6 -14   0  204.46    6.84
  -6 -14   0  204.41    6.53
   7  14   0   20.73    9.25
   7 -14   0   16.74    2.64
   7 -14   0   19.63    3.02
  -7 -14   0   19.27    3.04
   8  14   0  106.97    4.96
   8 -14   0  106.92    5.49
  -8 -14   0   95.18    5.66
   9  14   0    7.25    2.42
   9 -14   0   12.64    3.01
  -9 -14   0   14.83    2.73
  10  14   0    8.93    2.63
  10 -14   0    6.54    2.83
 -10 -14   0    8.67    2.87
  11  14   0   28.09    3.39
  11 -14   0   31.65    3.62
 -11 -14   0   32.87    3.93
  12  14   0   35.33    3.61
  12 -14   0   39.07    3.92
 -12 -14   0   37.62    3.54
  13 -14   0   23.78    3.31
 -13 -14   0   23.10    4.75
  14 -14   0   17.42    3.08
 -14 -14   0   17.28    4.61
  15  14   0   19.79    2.99
  15 -14   0   24.24    3.54
 -15 -14   0   22.70    5.13
  16  14   0   30.14    3.30
  16 -14   0   28.04    3.87
 -16 -14   0   31.35    3.86
  17  14   0   12.23    3.08
  17 -14   0   16.37    4.05
 -17 -14   0   12.54    3.44
  18  14   0    6.41    2.96
  18 -14   0    7.10    3.24
 -18 -14   0    4.86    3.19
   0  15   0   -0.67    2.09
   0 -15   0   -0.56    2.48
  -1  15   0    0.50    2.11
   1  15   0    0.47    1.98
   1 -15   0   -0.41    2.22
  -1 -15   0    2.63    2.71
  -2  15   0    8.88    2.29
   2  15   0    6.16    2.37
   2 -15   0   13.29    2.97
  -2 -15   0   12.90    2.81
  -3  15   0    0.32    2.10
   3 -15   0   -0.43    2.54
  -3 -15   0    0.87    2.36
  -4  15   0   62.29    4.20
   4  15   0   67.32    4.54
   4 -15   0   52.95    4.59
  -4 -15   0   52.20    3.75
   5 -15   0   -0.42    2.12
   5 -15   0    0.22    2.28
  -5 -15   0    0.61    2.42
   6  15   0   24.67    4.64
   6 -15   0   21.32    2.84
   6 -15   0   20.43    3.30
  -6 -15   0   22.02    2.99
   7  15   0   31.14    3.03
   7 -15   0   34.94    3.65
  -7 -15   0   40.64    3.61
   8  15   0    0.60    2.39
   8 -15   0   -0.12    2.78
  -8 -15   0   -1.25    2.61
   9  15   0   17.71    2.59
   9 -15   0   19.60    3.28
  -9 -15   0   25.15    3.29
  10  15   0    3.34    2.23
  10 -15   0    2.63    2.79
 -10 -15   0    1.44    2.82
  11  15   0    8.71    2.90
  11 -15   0   10.99    2.64
 -11 -15   0   10.42    3.09
  12  15   0   29.17    3.41
  12 -15   0   25.04    3.74
 -12 -15   0   23.56    3.40
  13  15   0   12.04    3.10
  13 -15   0   17.73    3.42
 -13 -15   0   15.82    5.83
  14 -15   0   37.33    4.04
 -14 -15   0   37.54    8.78
  15 -15   0   22.86    3.57
 -15 -15   0   24.69    6.29
  16  15   0   25.25    3.27
  16 -15   0   26.96    3.77
 -16 -15   0   27.56    4.84
  17  15   0   34.88    3.88
  17 -15   0   40.99    4.39
 -17 -15   0   38.39    3.82
   0  16   0  557.75   19.11
   0 -16   0  572.64   11.04
  -1  16   0   -0.72    2.70
   1  16   0   -0.01    3.30
   1 -16   0   -0.70    2.50
  -1 -16   0   -0.31    2.61
  -2  16   0  326.58   11.64
   2  16   0  308.46   11.83
   2 -16   0  305.36   11.49
  -2 -16   0  300.06   11.69
  -3  16   0   44.07    3.37
   3 -16   0   47.31    3.89
  -3 -16   0   47.77    3.88
  -4  16   0  247.94    9.92
   4  16   0  255.00   10.04
   4 -16   0  221.74    9.24
  -4 -16   0  225.09    9.37
   5 -16   0   -0.07    2.18
   5 -16   0    0.59    2.82
  -5 -16   0   -0.28    2.68
   6  16   0  166.78    5.65
   6 -16   0  172.49    6.43
  -6 -16   0  173.16    6.15
   7 -16   0   -2.81    2.39
  -7 -16   0    1.06    2.64
   8  16   0  185.21    7.24
   8 -16   0  185.79    7.95
  -8 -16   0  180.75    7.84
   9  16   0   -0.75    2.39
   9 -16   0    0.55    2.84
  -9 -16   0    0.67    3.08
  10  16   0  177.35    8.85
  10 -16   0  155.98    7.82
 -10 -16   0  149.74    7.65
  11  16   0   23.65    3.54
  11 -16   0   26.13    3.11
 -11 -16   0   30.50   15.27
  12  16   0  164.47    5.92
  12 -16   0  151.61    6.12
 -12 -16   0  145.80    8.04
  13  16   0   12.82    3.05
  13 -16   0   11.44    3.43
  14  16   0   80.01    4.40
  14 -16   0   79.15    5.43
 -14 -16   0   75.15    4.81
  15 -16   0    4.91    3.89
 -15 -16   0    4.37    3.83
  16 -16   0   12.15    3.79
 -16 -16   0   12.59    5.03
   0  17   0   -0.79    2.27
   0 -17   0   -0.70    3.17
  -1  17   0    1.75    2.73
   1  17   0    1.61    2.15
   1 -17   0    0.09    2.82
  -1 -17   0    0.34    2.69
  -2  17   0   -0.50    2.50
   2  17   0    0.14    2.29
   2 -17   0   -0.03    2.70
  -2 -17   0    2.26    3.04
  -3  17   0   12.52    2.61
   3  17   0   10.88    2.56
   3 -17   0   14.66    3.62
  -3 -17   0   13.83    3.32
   4  17   0    5.07    2.34
   4 -17   0    4.17    2.86
  -4 -17   0    4.10    3.01
   5  17   0   -0.41    2.63
   5 -17   0    2.36    2.89
  -5 -17   0    3.18    2.73
   6  17   0    2.00    4.79
   6 -17   0    0.22    2.82
  -6 -17   0    2.37    2.98
   7  17   0   11.81    3.99
   7 -17   0   17.22    3.20
  -7 -17   0   17.16    3.47
   8  17   0   16.17    3.82
   8 -17   0   18.79    3.34
  -8 -17   0   22.47    3.57
   9  17   0    9.06    5.40
   9 -17   0   11.06    3.35
  -9 -17   0   13.06    3.16
  10  17   0   20.85    3.06
  10 -17   0   16.69    3.54
 -10 -17   0   15.03    3.27
  11  17   0   16.10    3.99
  11 -17   0   18.10    3.86
 -11 -17   0   19.57    3.70
  12  17   0   10.98    3.04
  12 -17   0    9.08    3.28
 -12 -17   0    9.92    3.62
  13  17   0    4.02    2.95
  13 -17   0    0.70    3.10
  14  17   0   17.16    4.02
  14 -17   0   20.98    3.95
 -14 -17   0   21.75    5.77
   0  18   0    6.01    2.57
   0 -18   0    5.00    2.90
  -1  18   0    3.97    2.43
   1  18   0    1.67    2.91
   1 -18   0    5.67    2.88
  -1 -18   0    5.86    3.01
  -2  18   0   26.75    3.10
   2  18   0   26.94    3.84
   2 -18   0   18.39    3.55
  -2 -18   0   20.13    3.30
  -3  18   0    0.43    2.54
   3  18   0    2.58    2.58
   3 -18   0    4.77    3.01
  -3 -18   0    2.24    2.96
   4  18   0   31.32    3.58
   4 -18   0   33.44    3.91
  -4 -18   0   31.15    3.66
   5  18   0    8.36    3.29
   5 -18   0    9.34    3.28
  -5 -18   0   11.16    3.66
   6  18   0   11.21    2.72
   6 -18   0    6.00    3.31
  -6 -18   0    7.55    3.12
   7  18   0    0.15    3.23
   7 -18   0    3.10    3.15
  -7 -18   0    5.26    3.28
   8  18   0   12.59    3.20
   8 -18   0   11.06    3.11
  -8 -18   0   12.34    3.42
   9 -18   0    4.65    3.31
  -9 -18   0    5.11    3.23
  10  18   0   40.37    3.51
  10 -18   0   39.72    4.33
 -10 -18   0   33.57    3.72
  11  18   0    1.98    3.33
  11 -18   0    2.12    3.72
 -11 -18   0    0.83    3.89
  12  18   0    4.45    3.36
  12 -18   0    5.44    3.47
 -12 -18   0    4.85    4.40
   0  19   0    0.00    2.33
   0 -19   0   -1.08    2.93
  -1  19   0    5.09    2.59
   1  19   0    4.23    2.71
   1 -19   0    4.64    3.13
  -1 -19   0    4.23    3.44
  -2  19   0    4.19    2.59
   2  19   0    5.40    2.94
   2 -19   0    4.62    3.40
  -2 -19   0    3.35    2.97
   3  19   0   -0.91    2.27
   3 -19   0   -0.07    3.19
  -3 -19   0   -0.71    2.97
   4  19   0   -0.27    2.55
   4 -19   0    2.16    3.31
  -4 -19   0    0.24    3.06
   5  19   0    1.70    2.46
   5 -19   0    1.65    2.95
  -5 -19   0    1.31    3.15
   6  19   0    2.16    2.95
   6 -19   0    3.68    3.21
  -6 -19   0    3.39    3.02
   7  19   0    3.50    2.65
   7 -19   0    0.99    3.26
  -7 -19   0    1.12    3.41
   8  19   0    6.28    2.62
   8 -19   0   11.12    3.75
  -8 -19   0   10.97    3.49
   9  19   0    0.33    2.91
   9 -19   0   -0.26    3.44
  -9 -19   0    1.30    3.36
  10  19   0    1.57    2.76
  10 -19   0   -0.85    3.30
 -10 -19   0   -1.60    4.15
   0  20   0   68.26    4.22
   0 -20   0   75.53    4.66
   1  20   0    8.60    2.74
   1 -20   0    8.63    3.68
  -1 -20   0    6.31    3.38
   2  20   0   65.48    3.91
   2 -20   0   66.77    4.82
  -2 -20   0   65.62    4.60
   3 -20   0   10.59    3.32
  -3 -20   0   12.66    3.61
   4  20   0   45.34    3.97
   4 -20   0   40.21    3.96
  -4 -20   0   40.24    4.20
   5 -20   0    1.59    3.30
  -5 -20   0   -1.36    3.42
   6  20   0   34.99    3.87
   6 -20   0   42.64    4.11
  -6 -20   0   43.17    4.17
   7 -20   0    3.79    3.37
  -7 -20   0    4.94    3.62
   0 -21   0    1.82    3.57
   1  21   0    0.37    2.78
   1 -21   0    1.32    3.34
  -1 -21   0    2.51    3.30
   2  21   0    1.47    2.47
   2 -21   0    1.90    4.18
  -2 -21   0    1.02    3.25
  24   0  -1    1.26    3.32
  23   0  -1    3.03    3.02
  22   0  -1    1.05    2.62
  21   0  -1    1.76    3.14
  20   0  -1    0.80    1.87
  20   0  -1   -0.56    2.81
  19   0  -1    1.36    2.24
  19   0  -1   -1.30    2.27
  18   0  -1    0.59    2.22
 -18   0   1   -0.26    1.97
  18   0  -1    0.14    2.00
  17   0  -1   -0.02    1.87
 -17   0   1    0.42    2.23
  17   0  -1    0.64    2.19
  16   0  -1    0.40    1.84
 -16   0   1   -0.02    1.99
  16   0  -1   -1.17    2.27
  15   0  -1   -0.12    1.58
 -15   0   1   -0.30    1.92
  15   0  -1    0.01    1.91
  14   0  -1    0.41    1.62
 -14   0   1    1.13    1.93
  14   0  -1    0.37    1.79
  13   0  -1   -0.20    1.67
 -13   0   1   -0.62    2.03
  13   0  -1   -0.41    1.81
 -13   0   1   -0.56    1.70
  12   0  -1    1.13    1.57
 -12   0   1    0.70    1.67
  12   0  -1    1.34    1.50
 -12   0   1    0.20    2.18
  11   0  -1   -0.34    1.34
 -11   0   1   -0.22    1.45
  11   0  -1    0.20    1.51
 -11   0   1   -0.13    1.63
  10   0  -1    0.41    1.39
 -10   0   1    0.18    1.52
  10   0  -1    0.50    1.55
 -10   0   1    0.53    1.93
   9   0  -1    0.00    1.16
  -9   0   1   -0.22    1.32
   9   0  -1    0.01    0.97
  -9   0   1   -0.21    1.45
   8   0  -1    0.79    1.29
  -8   0   1    0.00    1.29
   8   0  -1    0.30    1.32
  -8   0   1    0.07    1.30
   7   0  -1    0.17    0.96
  -7   0   1    0.03    1.33
   7   0  -1    0.29    1.06
  -7   0   1    0.38    1.35
   6   0  -1    0.09    1.06
  -6   0   1    0.13    1.12
   6   0  -1    0.21    1.11
  -6   0   1    0.00    1.23
   5   0  -1    0.01    0.77
  -5   0   1   -0.11    0.93
   5   0  -1    0.23    1.01
  -5   0   1    0.12    1.08
   4   0  -1    0.00    0.78
  -4   0   1   -0.15    0.82
   4   0  -1    0.07    0.91
  -4   0   1   -0.07    0.75
   3   0  -1    0.16    0.68
  -3   0   1   -0.15    0.78
   3   0  -1    0.37    0.88
  -3   0   1    0.00    0.83
   2   0   1   -0.07    0.84
  -2   0  -1    0.02    0.81
   3   0   1    0.06    0.77
  -3   0  -1    0.70    0.82
  -3   0  -1   -0.08    0.90
   4   0   1    0.15    0.76
  -4   0  -1    0.15    1.10
  -4   0  -1    0.14    0.99
   5   0   1    0.61    1.01
  -5   0  -1   -0.09    0.91
  -5   0  -1    0.32    0.92
   6   0   1    0.39    0.99
  -6   0  -1    0.03    1.07
  -6   0  -1    0.22    1.36
   7   0   1    0.22    1.10
  -7   0  -1    0.09    1.21
  -7   0  -1    0.25    1.19
   8   0   1    0.35    1.31
  -8   0  -1    0.05    1.29
  -8   0  -1    0.54    1.40
   9   0   1    0.11    1.29
  -9   0  -1   -0.28    1.58
  -9   0  -1    0.48    1.37
  10   0   1    0.45    1.44
 -10   0  -1    0.56    1.44
  11   0   1    0.18    1.34
 -11   0  -1   -0.28    1.66
  12   0   1    0.90    1.60
 -12   0  -1    1.28    2.17
  13   0   1    0.24    1.70
 -13   0  -1   -0.99    1.79
  14   0   1   -0.56    1.55
 -14   0  -1    0.04    1.79
  15   0   1    0.50    1.83
 -15   0  -1   -0.07    2.05
  16   0   1    0.01    2.02
 -16   0  -1   -0.20    2.02
  16   0   1    1.73    2.14
  17   0   1   -0.22    1.98
  17   0   1    0.78    2.39
  18   0   1    0.58    1.95
  18   0   1   -0.83    2.45
  19   0   1   -0.12    2.19
  19   0   1   -1.70    2.39
  20   0   1    0.25    2.02
  20   0   1   -1.19    2.62
  21   0   1   -0.75    2.11
  21   0   1   -0.01    2.72
  22   0   1    1.33    2.84
  23   0   1    0.61    3.16
  24   0   1   -1.72    3.38
  24  -1  -1    3.37    3.09
 -24  -1   1    2.65    3.76
  23  -1  -1    9.03    3.07
  22   1  -1   39.12    4.03
  22  -1  -1   43.76    3.92
  21   1  -1    8.90    2.71
  21   1  -1   11.53    3.06
  21  -1  -1    8.64    2.98
  20  -1  -1   33.47    3.41
  20   1  -1   33.72    3.47
  20   1  -1   26.32    3.01
  20  -1  -1   32.03    3.66
  19   1  -1    0.44    2.18
  19  -1  -1    0.55    2.32
  19   1  -1    1.25    2.51
  19  -1  -1   -0.18    2.34
  18  -1  -1    3.27    2.07
  18   1  -1    2.47    1.93
  18   1  -1    3.85    2.33
  18  -1  -1    1.98    2.64
  17  -1  -1    3.60    2.16
  17   1  -1    3.74    1.97
 -17  -1   1    3.92    2.10
 -17   1   1    3.93    2.01
  17   1  -1    2.76    2.41
  17  -1  -1    2.91    2.33
  16  -1  -1  191.21    8.05
  16   1  -1  188.61    8.12
 -16  -1   1  181.73    7.96
 -16   1   1  179.62    7.74
  16   1  -1  184.52    8.52
  16  -1  -1  176.48    8.07
  15   1  -1  157.75    7.78
  15  -1  -1  160.11    6.74
 -15  -1   1  159.71    6.64
 -15   1   1  158.45    6.57
  15   1  -1  166.35    7.36
  15  -1  -1  162.88    7.13
  14   1  -1  231.32    8.86
  14  -1  -1  231.75   11.19
 -14  -1   1  242.15    8.94
 -14   1   1  228.67    8.58
  14   1  -1  238.97    9.29
  14  -1  -1  229.36    9.02
  13   1  -1   12.98    2.11
  13  -1  -1   12.62    8.68
 -13  -1   1   12.07    2.07
 -13   1   1   11.99    2.08
  13   1  -1   14.70    2.33
  13  -1  -1   13.09    2.29
 -13  -1   1   12.67    2.53
 -13   1   1   11.77    2.39
  12  -1  -1  681.53   19.18
  12   1  -1  731.31   16.57
 -12  -1   1  632.74   14.97
 -12   1   1  701.32   15.79
  12   1  -1  676.79   16.02
  12  -1  -1  698.15   16.72
 -12  -1   1  690.99   17.40
 -12   1   1  695.75   17.61
  11   1  -1    3.72    2.34
 -11  -1   1    3.52    1.53
 -11   1   1    2.94    1.64
  11   1  -1    3.33    1.72
  11  -1  -1    3.36    1.60
 -11  -1   1    4.52    1.89
 -11   1   1    3.74    1.84
  10  -1  -1  672.65   19.44
  10   1  -1  598.16   18.00
 -10  -1   1  631.95   18.20
 -10   1   1  637.58   18.24
  10   1  -1  643.57   19.54
  10  -1  -1  624.92   18.69
 -10  -1   1  648.02   20.13
 -10   1   1  632.16   19.02
  -9  -1   1   -0.08    1.15
  -9   1   1    0.07    1.46
   9   1  -1   -0.57    1.25
   9  -1  -1    0.24    1.48
  -9  -1   1    0.11    1.24
  -9   1   1    0.02    1.56
   8   1  -1  197.66    9.70
   8  -1  -1  189.07    8.10
  -8  -1   1  203.36    8.48
  -8   1   1  202.22    8.34
   8   1  -1  187.90    8.34
  -8  -1   1  200.20    8.76
   8  -1  -1  202.26    9.44
  -8   1   1  202.53    9.22
   7   1  -1    5.18    1.34
   7  -1  -1    5.46    1.43
  -7  -1   1    4.80    1.42
  -7   1   1    4.34    1.43
   7   1  -1    4.47    1.43
  -7  -1   1    4.15    1.41
   7  -1  -1    3.76    1.33
  -7   1   1    3.70    1.47
   6   1  -1   60.00    4.67
  -6  -1   1   58.28    4.45
  -6   1   1   60.02    4.52
   6   1  -1   59.92    4.73
  -6  -1   1   60.48    4.82
   6  -1  -1   58.32    4.66
  -6   1   1   63.51    5.04
   5   1  -1   51.53    4.15
  -5  -1   1   51.77    4.26
  -5   1   1   55.57    4.30
   5   1  -1   52.85    4.55
  -5  -1   1   52.57    4.46
   5  -1  -1   49.38    4.14
  -5   1   1   52.98    4.52
   4   1  -1   63.90    4.75
  -4   1   1   68.28    4.98
  -4  -1   1   64.91    4.84
   4   1  -1   66.14    5.05
  -4  -1   1   66.38    5.11
   4  -1  -1   67.61    5.16
  -4   1   1   67.67    5.37
  -3   1   1   33.94    2.98
   3   1  -1   33.90    3.04
  -3  -1   1   33.46    2.89
  -3   1   1   35.28    3.03
  -3  -1   1   35.62    3.17
   3  -1  -1   37.75    3.28
  -3   1   1   35.41    3.14
  -3  -1   1   36.31    3.26
   2  -1   1  300.04    8.58
  -2   1  -1  304.34    8.79
   2   1   1  289.22    8.54
  -2  -1  -1  303.42    9.34
  -2   1  -1  291.41    8.70
   3   1   1    6.80    1.46
   3  -1   1    7.28    1.47
  -3   1  -1    7.12    1.52
   3   1   1    6.32    1.56
  -3  -1  -1    6.27    1.31
  -3   1  -1    6.40    1.40
   4   1   1   63.11    5.09
  -4  -1  -1   65.28    4.84
   4  -1   1   66.35    4.95
  -4   1  -1   69.59    5.13
  -4  -1  -1   62.33    5.02
  -4   1  -1   61.85    5.11
   5   1   1   20.72    2.29
   5  -1   1   22.41    2.40
  -5  -1  -1   22.59    2.50
  -5   1  -1   20.36    2.37
  -5  -1  -1   22.63    2.51
  -5   1  -1   20.91    2.43
   6   1   1   20.81    2.33
   6  -1   1   16.88    2.17
  -6  -1  -1   17.11    2.20
  -6   1  -1   17.68    2.22
  -6  -1  -1   16.07    2.10
  -6   1  -1   15.67    2.26
   7   1   1   29.07    2.77
   7  -1   1   30.16    2.89
  -7  -1  -1   30.39    2.92
  -7   1  -1   27.70    2.75
  -7  -1  -1   37.88    3.89
   8   1   1    2.67    1.27
   8  -1   1    2.40    1.28
  -8  -1  -1    1.71    1.27
  -8   1  -1    3.82    1.45
  -8  -1  -1    0.94    1.39
   9   1   1    5.15    1.67
   9  -1   1    6.12    1.62
  -9  -1  -1    4.34    1.61
  -9   1  -1    4.07    1.57
  -9  -1  -1    9.17    1.91
  10   1   1  147.16    7.49
  10  -1   1  148.33    7.62
 -10  -1  -1  156.11    7.80
 -10   1  -1  146.74    7.46
 -10  -1  -1  148.42    8.29
  11   1   1    4.72    1.53
  11  -1   1    6.17    1.89
 -11  -1  -1    4.92    1.87
 -11   1  -1    4.96    1.87
 -11  -1  -1    8.65    1.90
  12   1   1  195.54    6.78
  12  -1   1  196.78    6.82
 -12  -1  -1  198.65    7.06
 -12   1  -1  205.35    6.82
  13   1   1    0.78    1.59
  13  -1   1    1.03    1.64
 -13  -1  -1    1.71    2.04
 -13   1  -1    1.89    1.91
  14   1   1   25.00    2.85
  14  -1   1   22.81    2.49
 -14  -1  -1   24.38    2.66
 -14   1  -1   24.47    2.51
  15   1   1   18.28    4.02
  15  -1   1   20.31    2.51
 -15  -1  -1   20.76    2.71
 -15   1  -1   20.57    2.70
  15  -1   1   18.36    2.50
  16   1   1  102.91    6.10
  16  -1   1  103.75    5.06
 -16   1  -1  106.60    5.39
  16  -1   1   97.94    4.76
  17   1   1  122.16    4.78
  17  -1   1  123.76    4.79
 -17   1  -1  122.97    4.82
  17  -1   1  122.78    5.29
  18   1   1    4.54    2.35
  18  -1   1    3.75    2.06
  18   1   1    5.56    2.48
  18  -1   1    3.25    2.47
  19   1   1   30.77    3.20
  19  -1   1   30.84    3.05
  19   1   1   30.59    3.27
  19  -1   1   34.46    3.86
  20  -1   1   21.22    2.93
  20   1   1   19.11    2.89
  20   1   1   18.73    3.14
  20  -1   1   21.99    3.39
  21   1   1   24.35    2.99
  21   1   1   28.10    3.50
  21  -1   1   27.07    3.60
  22   1   1   19.07    3.38
  22  -1   1   21.78    3.61
  23   1   1   20.07    3.41
  23  -1   1   19.13    3.50
  24   1   1    0.88    3.48
  24  -1   1    1.67    3.49
  24  -2  -1    8.56    2.95
 -24  -2   1    6.35    3.43
  23  -2  -1   69.13    4.50
 -23  -2   1   68.43    4.61
  22   2  -1    3.73    2.71
  22  -2  -1    5.54    3.25
 -22  -2   1    3.96    3.05
  21   2  -1   78.39    4.18
  21  -2  -1   89.61    5.13
 -21  -2   1   99.06    5.53
  20   2  -1   11.91    2.42
  20  -2  -1   14.40    3.26
  19  -2  -1  108.48    4.64
  19   2  -1  105.31    6.25
  19  -2  -1  118.58    6.18
  18  -2  -1    8.39    3.17
  18   2  -1    9.28    4.09
  18   2  -1    9.18    2.29
  18  -2  -1    6.21    2.90
  17  -2  -1    0.51    1.90
  17   2  -1    0.60    1.99
 -17   2   1    0.78    2.27
  17   2  -1    3.04    2.21
  17  -2  -1    0.57    2.13
  16  -2  -1  182.53    8.01
  16   2  -1  181.22    8.12
 -16  -2   1  181.13    7.83
 -16   2   1  180.54    7.85
  16   2  -1  182.03    8.25
  16  -2  -1  181.75    8.26
  15  -2  -1   35.82    4.35
  15   2  -1   37.25    3.73
 -15  -2   1   39.65    3.20
 -15   2   1   41.01    3.17
  15   2  -1   42.87    3.41
  15  -2  -1   47.84    4.17
  14   2  -1   13.13    2.71
  14  -2  -1   13.42    2.75
 -14  -2   1   10.32    2.07
 -14   2   1   12.50    2.18
  14   2  -1   10.97    2.39
  14  -2  -1   10.19    2.18
  13  -2  -1   86.49    5.27
  13   2  -1   83.07    4.90
 -13  -2   1   94.22    5.25
 -13   2   1   95.94    5.34
  13   2  -1   98.87    5.74
  13  -2  -1  102.69    6.23
 -13  -2   1  108.94    6.74
 -13   2   1   98.07    6.37
  12  -2  -1   41.60    3.79
  12   2  -1   41.56    3.05
 -12  -2   1   40.58    3.00
 -12   2   1   41.72    3.03
  12   2  -1   42.85    3.31
  12  -2  -1   39.81    3.22
 -12  -2   1   36.24    3.19
 -12   2   1   37.62    3.13
  11   2  -1   57.89    5.08
  11  -2  -1   56.29    6.34
 -11  -2   1   66.43    5.60
 -11   2   1   62.14    5.64
  11   2  -1   69.02    5.95
 -11  -2   1   76.73    6.51
  11  -2  -1   76.53    6.48
 -11   2   1   70.43    6.33
  10  -2  -1   43.83    4.39
  10   2  -1   43.19    5.50
 -10  -2   1   43.47    3.32
 -10   2   1   42.72    3.51
  10   2  -1   44.81    3.32
 -10  -2   1   43.66    3.61
  10  -2  -1   44.59    3.29
 -10   2   1   44.75    3.46
   9   2  -1  186.63    8.23
  -9  -2   1  188.23    8.37
  -9   2   1  183.73    7.84
   9   2  -1  196.28    8.50
  -9  -2   1  194.44    9.16
   9  -2  -1  204.84    8.82
  -9   2   1  195.54    9.23
   8   2  -1  272.67   12.66
  -8  -2   1  288.21    7.05
  -8   2   1  287.72    6.94
   8   2  -1  294.66    9.33
  -8  -2   1  294.10    8.96
   8  -2  -1  280.62   11.13
  -8   2   1  293.27    8.41
   7   2  -1   28.23    7.20
  -7  -2   1   22.64    2.42
  -7   2   1   23.01    2.45
  -7  -2   1   21.21    2.69
   7  -2  -1   15.10    2.02
  -7   2   1   20.11    2.48
  -7  -2   1   14.02    2.16
   6   2  -1   95.11    6.63
  -6  -2   1   90.92    6.55
  -6   2   1  100.20    7.28
  -6  -2   1   93.00    6.91
   6  -2  -1   92.41    6.51
  -6   2   1   95.07    6.86
  -6  -2   1   94.44    6.57
   5  -2  -1  118.21    7.89
   5   2  -1  120.25    7.91
  -5  -2   1  117.44    8.17
  -5   2   1  130.31    8.43
  -5  -2   1  119.27    8.36
   5  -2  -1  116.63    7.84
  -5   2   1  121.52    8.00
  -5  -2   1  119.41    8.09
   4   2  -1  230.59    7.56
  -4   2   1  258.93    7.65
  -4  -2   1  232.70    7.83
  -4   2   1  254.98    7.74
   4  -2  -1  234.75    7.59
  -4   2   1  242.48    7.78
  -4  -2   1  243.45    7.77
   4   2  -1  245.12    8.44
   3   2  -1   24.12    2.42
  -3   2   1   24.77    2.56
   3  -2  -1   28.35    2.80
   3  -2  -1   26.31    2.68
  -3   2   1   27.12    2.77
  -3  -2   1   24.21    2.70
   3   2  -1   26.27    2.74
  -2   2   1   52.61    4.29
   2  -2  -1   50.66    4.25
   2  -2  -1   58.35    4.59
  -2   2   1   62.16    4.92
   2   2  -1   61.90    4.91
  -1  -2   1   32.77    2.88
  -1   2   1   30.42    2.79
   1  -2  -1   33.35    2.93
  -1   2   1   30.08    2.93
   1   2  -1   29.39    2.89
   0  -2   1   80.12    5.62
   0   2   1   67.19    4.96
   0  -2  -1   86.17    5.96
   0  -2   1   92.22    6.32
   0   2  -1   96.84    6.74
   0   2   1  101.30    6.88
  -1  -2  -1   33.80    2.93
   1  -2   1   29.96    2.78
  -1   2  -1   30.49    2.81
  -1   2  -1   29.91    2.89
  -1  -2  -1   29.74    2.89
   1   2   1   31.21    2.96
   2  -2   1   23.91    2.49
  -2   2  -1   26.37    2.61
  -2   2  -1   25.95    2.65
  -2  -2  -1   26.42    2.67
   2   2   1   25.83    2.70
   3  -2   1  316.53    8.96
  -3   2  -1  325.70    8.97
  -3  -2  -1  320.84    9.42
  -3   2  -1  318.08    9.08
  -3  -2  -1  340.99    9.49
   4   2   1    6.29    1.50
   4  -2   1    5.54    1.30
  -4   2  -1    6.68    1.53
   4   2   1    7.05    1.61
  -4  -2  -1    5.74    1.60
  -4   2  -1    4.56    1.41
   5   2   1  221.56    7.12
  -5  -2  -1  221.70    7.04
   5  -2   1  219.54    6.43
  -5   2  -1  221.32    7.15
  -5  -2  -1  216.35    7.02
   6   2   1    0.86    1.31
  -6  -2  -1    0.43    1.13
   6  -2   1    1.00    1.10
  -6   2  -1    0.87    1.44
  -6  -2  -1    0.96    1.44
   7   2   1  378.66    9.41
  -7  -2  -1  363.59    9.42
   7  -2   1  376.29    9.91
  -7   2  -1  381.92    9.40
  -7  -2  -1  387.77   11.15
   8   2   1  509.79   11.07
   8  -2   1  518.92   11.41
  -8  -2  -1  513.73   11.55
  -8   2  -1  512.82   11.02
  -8  -2  -1  504.44   12.22
   9   2   1    7.22    1.82
   9  -2   1    7.49    1.80
  -9  -2  -1    6.89    1.79
  -9   2  -1    7.29    1.92
  -9  -2  -1    6.92    1.94
  10   2   1    1.39    1.79
  10  -2   1    1.31    1.32
 -10  -2  -1    0.29    1.69
 -10   2  -1    0.31    1.32
 -10  -2  -1    0.37    1.97
  11   2   1   62.92    5.46
  11  -2   1   61.26    5.33
 -11  -2  -1   58.13    5.03
 -11   2  -1   58.68    5.14
 -11  -2  -1   68.15    6.21
  12   2   1   31.09    2.95
  12  -2   1   29.26    2.95
 -12  -2  -1   28.84    3.03
 -12   2  -1   28.29    2.63
 -12  -2  -1   35.16    3.21
  13   2   1   80.76    4.35
  13  -2   1   84.27    4.40
 -13  -2  -1   80.96    4.32
 -13   2  -1   76.04    4.32
  13  -2   1   85.41    4.94
  14   2   1   44.27    6.34
  14  -2   1   43.18    3.54
 -14  -2  -1   43.18    3.78
 -14   2  -1   41.78    3.00
  14  -2   1   42.90    3.51
  15   2   1  113.74    4.84
  15  -2   1  112.22    4.59
 -15   2  -1  109.51    4.60
  15  -2   1  116.48    5.07
  16   2   1  197.69    7.23
  16  -2   1  195.76    7.06
 -16   2  -1  198.63    7.50
  16  -2   1  196.57    7.60
  17  -2   1    1.90    1.78
  17   2   1    2.01    2.15
 -17   2  -1    1.85    2.02
  17  -2   1    2.31    2.14
  18   2   1   96.52    5.83
  18  -2   1   95.32    5.86
  18  -2   1   90.43    6.05
  19  -2   1   18.12    2.63
  19   2   1   17.71    2.79
  19  -2   1   19.95    3.10
  20   2   1   16.64    2.83
  20   2   1   12.80    3.11
  20  -2   1   15.95    2.59
  21   2   1   30.00    3.25
  21   2   1   32.82    3.70
  21  -2   1   32.72    3.45
  22   2   1   17.88    2.82
  22  -2   1   16.17    3.11
  23  -2   1   23.37    3.63
  24  -2   1   18.88    3.57
  24  -3  -1   45.24    4.40
 -24  -3   1   37.83    4.15
  23  -3  -1   25.25    3.55
 -23  -3   1   24.18    3.75
  22   3  -1   93.09    4.37
  22  -3  -1   86.59    4.94
 -22  -3   1   73.52    4.75
  21   3  -1   23.59    2.98
  21  -3  -1   25.76    3.46
 -21  -3   1   29.47    3.82
  20   3  -1  241.26    6.61
  20  -3  -1  220.95    7.01
 -20  -3   1  209.76    6.86
  19   3  -1    8.57    3.45
  19  -3  -1   10.35    2.58
 -19  -3   1   10.14    3.04
  18  -3  -1  216.53    7.13
  18   3  -1  204.81    6.92
  18  -3  -1  186.31    7.14
 -18  -3   1  182.72    6.98
  17  -3  -1   28.03    5.91
  17   3  -1   25.19    3.35
  17  -3  -1   28.45    3.54
 -17  -3   1   31.58    3.80
  16  -3  -1  152.00    6.32
  16   3  -1  137.36    5.72
 -16   3   1  139.83    5.97
  16  -3  -1  128.17    5.95
 -16  -3   1  122.78    5.65
  15  -3  -1   30.75   11.98
  15   3  -1   28.50    4.52
 -15  -3   1   29.08    3.14
 -15   3   1   31.26    3.71
  15  -3  -1   34.56    3.24
 -15  -3   1   34.89    3.34
  14  -3  -1  937.58   14.03
  14   3  -1  879.88   25.87
 -14  -3   1  861.60   25.32
 -14   3   1  898.70   12.63
  14  -3  -1  867.58   25.95
 -14  -3   1  871.93   25.97
  13   3  -1    6.01    4.79
 -13  -3   1    5.09    2.05
 -13   3   1    4.49    3.03
  13  -3  -1    6.15    2.08
 -13   3   1    5.12    2.06
 -13  -3   1    4.32    2.05
  12   3  -1 1001.49   21.31
 -12  -3   1 1039.88   22.31
 -12   3   1 1020.92   21.30
 -12  -3   1 1019.44   22.47
  12  -3  -1 1000.01   21.88
 -12   3   1 1000.04   21.55
 -12  -3   1 1024.05   22.15
  11   3  -1    3.91    4.74
 -11  -3   1    2.83    1.57
 -11   3   1    3.21    3.54
 -11  -3   1    1.98    1.92
  11  -3  -1    2.63    1.99
 -11   3   1    3.39    1.99
 -11  -3   1    3.64    2.07
  10   3  -1  761.58   21.38
 -10  -3   1  764.69   21.67
 -10   3   1  746.18   21.23
 -10  -3   1  763.92   23.87
  10  -3  -1  773.34   22.36
 -10   3   1  755.41   22.64
 -10  -3   1  785.34   22.58
   9   3  -1  169.30    8.09
  -9  -3   1  170.79    7.77
  -9   3   1  174.46   13.98
  -9  -3   1  170.51    7.93
   9  -3  -1  175.15    7.86
  -9   3   1  174.40    8.30
  -9  -3   1  172.42    7.80
   8   3  -1 2313.68   33.03
  -8  -3   1 2384.46   33.70
  -8  -3   1 2336.62   34.23
   8  -3  -1 2353.68   34.77
  -8   3   1 2310.81   33.95
  -8  -3   1 2338.15   33.58
   7   3  -1   53.92    5.66
  -7  -3   1   56.24    4.06
  -7   3   1   55.66    4.38
  -7  -3   1   55.98    3.90
   7  -3  -1   63.94    4.11
  -7   3   1   59.30    3.82
  -7  -3   1   63.09    4.13
   6   3  -1 1279.47   24.92
  -6  -3   1 1272.28   25.80
  -6   3   1 1324.13   24.68
  -6  -3   1 1257.08   26.36
   6  -3  -1 1266.92   24.61
  -6   3   1 1296.48   24.98
  -6  -3   1 1251.33   24.19
   5   3  -1    9.44    1.77
  -5  -3   1    7.84    1.67
   5  -3  -1    7.07    1.56
  -5   3   1    5.64    1.52
  -5  -3   1    6.91    1.78
   5   3  -1    5.41    1.59
   4   3  -1 1434.37   26.25
   4  -3  -1 1407.03   26.59
  -4   3   1 1376.80   25.69
   4   3  -1 1355.13   28.44
  -3   3   1   84.41    7.15
   3  -3  -1   83.95    6.06
   3  -3  -1   96.63    6.71
  -3   3   1   97.49    6.76
   3   3  -1  101.27    7.15
  -2   3   1 2205.08   37.72
   2  -3  -1 2052.21   36.25
  -2   3   1 2095.75   36.70
   2   3  -1 2086.36   36.93
  -1  -3   1    8.58    1.47
  -1   3   1    6.68    1.73
   1  -3  -1    6.33    1.31
   1  -3  -1    5.44    1.61
  -1   3   1    4.14    1.49
   1   3  -1    5.06    1.52
   0   3  -1  924.11   18.50
   0  -3   1  902.01   18.38
   0   3   1  869.41   17.69
   0  -3  -1  858.40   17.39
   0   3  -1  802.38   17.31
   0  -3  -1  821.70   17.56
   0   3   1  841.19   17.45
   1  -3   1   28.79    2.70
   1   3   1   30.31    2.84
  -1  -3  -1   31.81    2.85
   1  -3   1   36.44    3.19
  -1   3  -1   32.09    3.09
  -1  -3  -1   34.92    3.16
   1   3   1   39.56    2.93
  -2  -3  -1  747.64   17.30
   2  -3   1  712.78   15.48
  -2   3  -1  722.07   15.27
  -2   3  -1  674.96   15.69
  -2  -3  -1  718.05   15.86
   2   3   1  738.00   16.13
   3  -3   1   65.30    4.92
  -3   3  -1   59.08    4.55
  -3   3  -1   45.96    4.49
  -3  -3  -1   58.64    4.70
   3   3   1   55.50    4.56
   4  -3   1  122.29    8.03
  -4   3  -1   89.11    6.18
  -4  -3  -1   98.52    6.84
  -4  -3  -1   87.77    6.46
   5   3   1   37.42    3.22
   5  -3   1   38.58    3.35
  -5   3  -1   38.03    3.32
  -5  -3  -1   34.83    3.19
  -5  -3  -1   31.04    3.05
   6   3   1  301.72    8.64
  -6  -3  -1  298.32    9.43
   6  -3   1  301.16    8.56
  -6   3  -1  303.39    8.69
  -6  -3  -1  292.52    9.34
  -6  -3  -1  293.35    9.03
   7   3   1   23.56    3.14
  -7  -3  -1   24.24    2.47
   7  -3   1   24.03    2.42
  -7   3  -1   22.66    2.51
  -7  -3  -1   26.97    2.83
  -7  -3  -1   33.01    2.94
   8   3   1  573.05   11.91
  -8  -3  -1  567.61   13.00
   8  -3   1  599.52   12.70
  -8   3  -1  588.24   12.09
  -8  -3  -1  537.65   13.74
   9   3   1   73.33    4.67
   9  -3   1   76.92    4.84
  -9  -3  -1   73.16    4.74
  -9   3  -1   72.50    4.60
  -9  -3  -1   78.23    5.15
  10   3   1  158.79    5.72
  10  -3   1  157.18    5.69
 -10  -3  -1  156.91    6.12
 -10   3  -1  167.76    5.92
 -10  -3  -1  148.40    6.07
  11   3   1    8.71    5.91
  11  -3   1    8.67    2.01
 -11  -3  -1    8.79    2.03
 -11   3  -1    7.64    2.07
 -11  -3  -1   12.52    2.44
  12   3   1  316.76   10.84
  12  -3   1  320.31   10.76
 -12  -3  -1  302.36   11.65
 -12   3  -1  328.59   10.95
  12  -3   1  273.90   10.26
  13   3   1   18.14    7.88
  13  -3   1   17.94    2.32
 -13  -3  -1   17.81    2.34
 -13   3  -1   16.45    2.36
  13  -3   1   26.97    2.79
  14   3   1  232.10    9.40
  14  -3   1  226.28    8.40
 -14   3  -1  244.42    9.02
  14  -3   1  209.93    8.45
  15   3   1  135.69    6.66
  15  -3   1  141.06    6.62
 -15   3  -1  137.44    6.73
  15  -3   1  154.17    7.31
  16   3   1   91.69    6.78
  16  -3   1   91.81    6.84
 -16   3  -1   90.40    6.80
  16  -3   1   83.86    6.67
  17   3   1    0.74    2.12
  17  -3   1    1.13    2.20
  17  -3   1    0.77    2.09
  18   3   1   59.52    4.37
  18  -3   1   59.04    4.38
  18  -3   1   56.17    4.66
  19   3   1   32.29    3.48
  19  -3   1   35.53    4.18
  20   3   1   33.29    3.25
  20  -3   1   31.21    3.62
  21   3   1   64.01    4.23
  21  -3   1   67.56    4.49
  22   3   1   34.20    3.35
  22  -3   1   30.74    4.00
  23   3   1   27.17    3.24
  23  -3   1   30.91    3.84
  24  -4  -1    5.31    3.36
 -24  -4   1    5.18    3.41
  23   4  -1    0.51    2.95
  23  -4  -1    0.47    3.41
 -23  -4   1    2.17    3.43
  22   4  -1   29.72    3.39
  22  -4  -1   34.06    3.70
 -22  -4   1   27.37    3.95
  21   4  -1   24.65    3.22
  21  -4  -1   28.29    3.95
 -21  -4   1   30.14    4.02
  20   4  -1    9.27    2.29
  20  -4  -1   12.21    3.03
 -20  -4   1   11.31    2.82
  19   4  -1   28.05    3.02
  19  -4  -1   32.37    3.51
 -19  -4   1   41.80    3.85
  18   4  -1   10.42    2.48
  18  -4  -1   12.93    2.93
 -18  -4   1   13.92    2.81
  17   4  -1   56.46    3.60
  17  -4  -1   68.77    5.83
 -17  -4   1   65.49    5.64
  16   4  -1    0.79    3.27
 -16   4   1    1.45    2.20
  16  -4  -1    1.69    2.07
 -16  -4   1    2.16    2.61
  15   4  -1   32.53    2.91
 -15   4   1   34.34    3.02
  15  -4  -1   43.68    3.42
 -15  -4   1   43.37    3.71
  14  -4  -1   54.50    6.74
  14   4  -1   52.84    4.03
 -14  -4   1   55.03    4.19
 -14   4   1   53.26    4.12
  14  -4  -1   51.34    4.27
 -14  -4   1   52.86    4.49
  13  -4  -1   69.10    8.74
  13   4  -1   66.60    6.08
 -13  -4   1   74.61    4.37
 -13   4   1   69.59    4.05
  13  -4  -1   89.37    5.82
 -13  -4   1   89.55    4.98
  12  -4  -1    2.24    3.72
  12   4  -1    2.91    1.71
 -12  -4   1    1.56    1.94
 -12   4   1    1.69    1.78
 -12  -4   1    1.45    1.98
  12  -4  -1    3.10    1.82
 -12   4   1    1.31    1.85
 -12  -4   1    2.61    1.83
  11  -4  -1    1.41    3.51
  11   4  -1    2.04    1.77
 -11  -4   1    3.08    1.84
 -11   4   1    2.39    1.59
 -11  -4   1    4.65    2.11
  11  -4  -1   10.78    2.00
 -11   4   1    3.93    2.00
 -11  -4   1    5.13    2.07
  10  -4  -1   53.70    6.35
  10   4  -1   55.35    4.91
 -10  -4   1   51.37    4.75
 -10   4   1   53.78    4.89
 -10  -4   1   53.29    4.94
  10  -4  -1   54.97    5.09
 -10   4   1   53.54    4.86
 -10  -4   1   56.08    5.14
   9   4  -1   23.77    2.52
  -9  -4   1   21.52    2.64
  -9   4   1   24.24    3.14
  -9  -4   1   22.14    2.55
   9  -4  -1   20.89    2.56
  -9   4   1   21.25    2.47
  -9  -4   1   21.21    2.61
   8   4  -1   28.02    3.12
  -8  -4   1   25.80    2.72
  -8   4   1   23.98    2.59
  -8  -4   1   25.10    2.90
   8  -4  -1   24.84    2.66
  -8   4   1   26.68    2.78
  -8  -4   1   26.98    2.85
   7   4  -1  301.21    8.27
  -7  -4   1  303.78    9.02
  -7  -4   1  305.96    9.12
   7  -4  -1  306.82    8.93
  -7   4   1  311.50    8.60
  -7  -4   1  294.93    8.35
   6   4  -1  277.41    8.37
  -6  -4   1  277.00    9.06
   6  -4  -1  285.04    8.86
  -6   4   1  288.47    8.39
   6   4  -1  287.83    9.52
   5   4  -1   50.93    4.79
   5  -4  -1   46.85    4.00
  -5   4   1   37.09    3.36
   5   4  -1   38.93    3.98
   4  -4  -1   52.49    4.25
   4  -4  -1   49.67    4.17
  -4   4   1   48.66    4.09
   4   4  -1   48.67    4.42
  -3  -4   1   22.74    2.29
  -3   4   1   26.49    4.33
   3  -4  -1   26.57    2.76
   3  -4  -1   36.95    3.36
  -3   4   1   31.61    3.07
   3   4  -1   35.06    3.21
  -2  -4   1   77.66    5.76
  -2   4   1   77.58    5.52
   2  -4  -1   74.83    5.36
   2  -4  -1   70.32    5.39
  -2   4   1   72.62    5.51
   2   4  -1   71.26    5.65
   1   4  -1  399.91   10.10
  -1  -4   1  392.82   10.12
  -1   4   1  401.23   10.21
   1  -4  -1  402.97   10.13
   1  -4  -1  408.69   10.97
  -1   4   1  417.79   10.72
   1   4  -1  395.10   10.46
   0   4  -1    6.69    1.48
   0  -4   1    6.45    1.39
   0   4   1    7.87    1.52
   0  -4  -1    7.26    1.51
   0   4  -1    7.50    1.68
   0  -4  -1    9.21    1.94
   0   4   1    8.52    1.92
  -1   4  -1  491.62   11.67
   1  -4   1  497.55   11.78
   1   4   1  478.18   11.55
  -1  -4  -1  477.16   12.36
  -1  -4  -1  450.56   11.39
   1   4   1  457.62   11.54
   2  -4   1  406.19   10.25
   2   4   1  385.01   10.01
  -2  -4  -1  389.01   10.50
   2  -4   1  394.53   10.17
  -2  -4  -1  405.44   10.67
   2   4   1  393.51   10.28
  -3  -4  -1    0.92    1.02
   3  -4   1    0.48    1.03
  -3   4  -1    0.20    1.07
  -3  -4  -1    0.84    1.41
   3   4   1    0.31    1.28
   4  -4   1    5.56    1.54
  -4   4  -1    4.60    1.44
  -4  -4  -1    5.57    1.60
   4   4   1    5.62    1.56
   5  -4   1   71.53    5.29
  -5   4  -1   81.56    5.80
  -5  -4  -1   74.99    5.52
  -5  -4  -1   77.20    5.92
   6   4   1    0.91    1.19
   6  -4   1    0.84    1.41
  -6   4  -1    1.74    1.44
  -6  -4  -1    0.46    1.52
  -6  -4  -1    1.76    1.52
   7   4   1    4.74    1.57
  -7  -4  -1    5.15    1.59
   7  -4   1    6.40    1.57
  -7   4  -1    5.46    1.60
  -7  -4  -1    5.64    1.46
  -7  -4  -1    5.10    1.48
   8   4   1   86.69    5.54
  -8  -4  -1   82.88    5.95
   8  -4   1   86.71    5.22
  -8   4  -1   88.41    5.24
  -8  -4  -1   82.02    5.73
  -8  -4  -1   81.18    5.15
   9   4   1  143.08    7.43
  -9  -4  -1  152.23    8.43
   9  -4   1  148.46    7.64
  -9   4  -1  147.82    7.81
  -9  -4  -1  150.37    8.01
  -9  -4  -1  149.31    7.80
  10   4   1  249.45    7.28
 -10  -4  -1  260.01    7.91
  10  -4   1  261.39    7.88
 -10   4  -1  254.63    7.46
 -10  -4  -1  253.59    8.47
  10  -4   1  243.23    7.64
 -10  -4  -1  247.77    7.64
  11   4   1   98.57    4.92
  11  -4   1   95.09    4.58
 -11  -4  -1   94.87    4.90
 -11   4  -1   99.10    4.75
 -11  -4  -1  105.56    6.12
  11  -4   1  102.55    5.06
 -11  -4  -1  102.38    5.42
  12   4   1   62.51    4.15
  12  -4   1   65.58    4.21
 -12  -4  -1   64.91    4.05
 -12   4  -1   61.34    4.19
  12  -4   1   73.65    4.85
 -12  -4  -1   75.36    4.76
  13   4   1   39.83    3.30
  13  -4   1   41.19    3.19
 -13   4  -1   41.66    3.05
  13  -4   1   44.09    3.43
 -13  -4  -1   42.20    3.31
  14   4   1   50.65    3.45
  14  -4   1   52.23    3.31
 -14   4  -1   51.56    3.48
  14  -4   1   48.17    3.53
 -14  -4  -1   47.42    3.54
  15   4   1    0.78    1.74
  15  -4   1    1.09    2.03
 -15   4  -1    0.87    2.24
  15  -4   1    0.83    2.00
 -15  -4  -1    1.81    2.34
  16   4   1    0.79    2.36
  16  -4   1    1.56    2.06
  16  -4   1    1.18    2.25
  17   4   1   55.53    4.09
  17  -4   1   54.59    4.02
  17  -4   1   59.33    4.61
  18   4   1   31.18    3.22
  18  -4   1   32.76    3.36
  19   4   1   38.10    4.20
  19  -4   1   40.28    4.32
  20   4   1   56.14    3.97
  20  -4   1   52.22    4.33
  21   4   1   15.51    2.67
  21  -4   1   14.70    3.30
  22   4   1   29.58    3.35
  22  -4   1   29.46    3.87
  23   4   1    5.04    2.67
  23  -4   1    3.52    3.31
  24   5  -1   -1.18    2.71
  24  -5  -1   -1.83    3.56
 -24  -5   1   -0.17    3.55
  23   5  -1    2.29    2.38
  23  -5  -1    2.71    3.28
 -23  -5   1    3.27    3.15
  22   5  -1    2.11    2.47
  22  -5  -1    1.28    2.73
 -22  -5   1    0.48    3.30
  21   5  -1    4.33    2.43
  21  -5  -1    5.94    3.16
 -21  -5   1    2.25    3.73
  20   5  -1   18.35    2.93
  20  -5  -1   14.01    3.50
 -20  -5   1   13.73    2.92
  19   5  -1    1.32    2.43
  19  -5  -1   -0.94    2.70
 -19  -5   1    0.43    2.82
  18   5  -1   65.64    4.70
  18  -5  -1   61.17    4.92
 -18  -5   1   63.23    4.93
  17   5  -1    2.33    2.21
  17  -5  -1    2.96    2.42
 -17  -5   1    2.64    2.66
  16  -5  -1   66.53    5.92
  16   5  -1   65.62    5.92
  16  -5  -1   64.13    6.01
 -16  -5   1   63.31    6.11
  15   5  -1    4.97    2.21
 -15   5   1    6.28    2.34
  15  -5  -1    8.24    2.65
 -15  -5   1    5.76    2.15
  14  -5  -1   42.28    3.71
  14   5  -1   39.72    3.09
 -14   5   1   41.79    3.17
  14  -5  -1   39.98    3.60
 -14  -5   1   42.17    3.44
  13   5  -1    8.09    3.65
 -13   5   1    8.68    2.23
  13  -5  -1   11.04    2.57
 -13  -5   1   11.22    2.61
  12   5  -1    8.65    2.45
 -12  -5   1    8.19    2.03
 -12   5   1    8.46    3.26
  12  -5  -1    8.05    2.09
 -12   5   1    7.03    2.20
 -12  -5   1    6.78    1.91
  11  -5  -1   12.31    2.20
  11   5  -1   14.32    2.36
 -11  -5   1   15.56    2.60
 -11   5   1   16.58    3.00
 -11  -5   1   15.91    2.86
  11  -5  -1   18.94    2.87
 -11   5   1   17.75    2.80
 -11  -5   1   17.25    2.92
  10   5  -1   22.05    2.41
 -10  -5   1   22.53    2.42
 -10  -5   1   20.30    2.56
  10  -5  -1   21.42    2.52
 -10   5   1   20.86    2.45
 -10  -5   1   20.01    2.56
   9   5  -1   63.34    4.21
  -9  -5   1   62.32    4.45
  -9  -5   1   61.56    4.37
   9  -5  -1   60.05    4.35
  -9   5   1   59.93    4.28
  -9  -5   1   57.55    4.25
   8   5  -1  103.37    5.85
  -8  -5   1   98.01    6.25
  -8  -5   1   96.45    6.12
   8  -5  -1   98.80    5.90
  -8   5   1   94.93    6.00
  -8  -5   1   87.79    5.45
   7   5  -1   37.06    5.40
  -7  -5   1   38.41    3.28
   7  -5  -1   40.66    3.38
  -7   5   1   41.42    3.41
   7   5  -1   41.75    3.70
   6   5  -1  997.47   17.10
   6  -5  -1  969.41   17.41
  -6   5   1  978.35   17.32
   6   5  -1  969.54   18.19
   5  -5  -1   97.57    6.68
   5  -5  -1  107.26    7.34
   5  -5  -1  101.53    7.09
  -5   5   1  103.11    7.14
   5   5  -1  101.11    7.14
   4  -5  -1  380.94    9.78
   4  -5  -1  447.54   11.41
  -4   5   1  443.53   11.35
   4   5  -1  441.65   12.37
  -3   5   1   32.84    2.94
  -3  -5   1   33.54    3.03
   3  -5  -1   35.22    3.10
   3  -5  -1   35.39    3.24
  -3   5   1   39.28    3.53
   3   5  -1   40.08    3.07
   2   5  -1    8.52    1.62
  -2  -5   1   10.84    1.79
  -2   5   1   12.37    1.92
   2  -5  -1   13.78    1.92
   2  -5  -1   18.42    2.33
  -2   5   1   20.78    2.57
   2   5  -1   18.23    2.31
   1   5  -1   64.18    4.79
  -1  -5   1   60.74    4.61
  -1   5   1   61.06    4.63
   1  -5  -1   59.82    4.54
   1  -5  -1   61.11    4.92
  -1   5   1   58.32    4.64
   1   5  -1   56.13    4.59
   0   5  -1  278.13    8.19
   0  -5   1  269.81    7.82
   0   5   1  270.28    7.88
   0  -5  -1  268.61    7.78
   0  -5  -1  276.73    8.46
   0   5   1  276.93    8.20
  -1   5  -1   28.21    2.77
   1  -5   1   31.07    2.95
   1   5   1   25.27    2.50
  -1  -5  -1   24.41    2.55
  -1  -5  -1   18.97    2.48
   1   5   1   19.22    2.31
   2  -5   1   13.96    1.94
   2   5   1   16.93    2.03
  -2  -5  -1   14.71    1.95
   2  -5   1   17.96    2.21
  -2  -5  -1   17.85    2.24
   2   5   1   17.33    2.41
   3  -5   1   50.29    4.16
   3   5   1   41.51    2.98
  -3  -5  -1   46.92    3.82
   3  -5   1   49.03    4.05
  -3  -5  -1   47.50    4.15
   3   5   1   48.81    4.18
   4  -5   1  211.46   12.65
  -4  -5  -1  195.81   12.23
   4  -5   1  193.36   11.87
  -4  -5  -1  208.74   12.72
   4   5   1  209.55   12.74
   5  -5   1   25.11    2.63
  -5   5  -1   28.70    2.73
  -5  -5  -1   28.52    2.82
   5   5   1   28.50    2.69
   6  -5   1  294.38    8.06
  -6   5  -1  251.97   10.08
  -6  -5  -1  256.93   10.36
  -6  -5  -1  255.89   11.00
   7   5   1   19.45    2.37
  -7   5  -1   20.67    2.58
  -7  -5  -1   18.59    2.36
  -7  -5  -1   21.42    2.59
   8   5   1   22.98    2.53
  -8  -5  -1   23.63    2.63
  -8   5  -1   23.42    2.47
  -8  -5  -1   22.98    2.69
   8  -5   1   23.65    2.71
  -8  -5  -1   24.27    2.56
   9   5   1   52.58    4.68
  -9  -5  -1   54.15    5.37
  -9   5  -1   53.78    4.82
  -9  -5  -1   53.54    4.94
   9  -5   1   56.21    5.22
  -9  -5  -1   54.17    5.01
  10   5   1    9.87    2.21
 -10  -5  -1    8.20    2.08
  10  -5   1   10.22    2.10
 -10   5  -1   10.27    2.18
 -10  -5  -1   10.85    2.34
  10  -5   1   13.26    2.50
 -10  -5  -1   11.80    2.47
  11   5   1   10.66    2.08
 -11  -5  -1    9.58    2.18
  11  -5   1    9.16    1.99
 -11   5  -1    8.86    1.94
  11  -5   1    7.57    1.92
 -11  -5  -1    6.85    2.25
  12   5   1    2.83    1.66
  12  -5   1    3.79    1.80
 -12   5  -1    3.91    1.88
  12  -5   1    4.53    1.74
 -12  -5  -1    5.54    1.81
  13   5   1    0.80    1.87
  13  -5   1    0.79    1.91
 -13   5  -1    0.25    1.79
  13  -5   1    1.71    2.05
 -13  -5  -1    1.49    1.73
  14   5   1    1.05    2.13
  14  -5   1    0.32    1.63
 -14   5  -1    0.25    1.96
  14  -5   1    0.26    2.11
 -14  -5  -1    0.64    2.26
  15   5   1   -0.07    2.01
  15  -5   1    1.10    1.96
 -15   5  -1    1.05    2.14
  15  -5   1    0.81    2.35
 -15  -5  -1    0.67    1.94
  16   5   1    0.59    2.08
  16  -5   1    0.14    1.92
  16  -5   1    0.06    2.29
 -16  -5  -1   -1.43    1.87
  17   5   1   10.22    2.45
  17  -5   1   11.56    2.87
 -17  -5  -1   11.82    2.62
  18   5   1    9.60    2.58
  18  -5   1    7.03    2.87
  19   5   1    2.03    2.33
  19  -5   1    1.48    2.93
  20   5   1    4.48    2.40
  20  -5   1    4.28    2.89
  21   5   1    1.79    2.39
  21  -5   1    1.34    2.52
  22   5   1   -0.98    2.60
  22  -5   1   -1.74    3.00
  23   5   1   -0.10    2.68
  23  -5   1    1.78    3.51
  23   6  -1    4.49    2.53
  23  -6  -1    4.39    3.37
 -23  -6   1    3.01    3.37
  22   6  -1    1.72    2.26
  22  -6  -1    0.47    2.85
 -22  -6   1   -0.94    3.47
  21   6  -1    3.71    2.44
  21  -6  -1    4.54    2.87
 -21  -6   1    3.48    3.00
  20   6  -1    6.43    2.64
  20  -6  -1    9.30    3.02
 -20  -6   1    6.90    3.25
  19   6  -1    1.29    2.17
  19  -6  -1    1.97    2.63
 -19  -6   1    0.54    3.16
  18   6  -1   25.51    2.88
  18  -6  -1   23.36    3.09
 -18  -6   1   24.92    3.35
  17   6  -1    8.11    2.18
  17  -6  -1    7.04    2.95
 -17  -6   1    9.20    3.08
  16   6  -1    1.83    1.94
  16  -6  -1    2.27    2.35
 -16  -6   1    1.17    2.30
  15   6  -1    1.20    2.03
  15  -6  -1    0.60    2.24
 -15  -6   1    0.81    2.24
  14   6  -1    0.38    1.71
  14  -6  -1   -0.44    2.27
 -14  -6   1   -0.44    2.28
  13   6  -1    8.24    1.86
  13  -6  -1   11.22    2.38
 -13  -6   1    8.75    2.63
  12   6  -1    1.58    1.64
  12  -6  -1    1.16    2.23
 -12  -6   1    1.02    2.21
  11   6  -1    2.86    1.63
 -11  -6   1    2.23    1.77
  11  -6  -1    1.64    1.86
 -11   6   1    2.94    1.90
 -11  -6   1    4.02    2.03
  10   6  -1    1.20    1.77
 -10  -6   1    1.39    1.73
 -10  -6   1    0.72    1.85
  10  -6  -1    2.07    1.68
 -10   6   1    2.77    1.87
 -10  -6   1    1.53    1.60
   9   6  -1    2.24    1.31
  -9  -6   1    3.19    1.50
  -9  -6   1    4.33    1.88
   9  -6  -1    5.11    1.56
  -9   6   1    6.28    1.81
   8   6  -1    0.58    1.05
  -8  -6   1    0.54    1.67
   8  -6  -1    0.30    1.43
  -8   6   1   -0.26    1.75
   8   6  -1   -0.17    1.53
   7   6  -1  213.21    7.95
   7  -6  -1  224.35    8.55
  -7   6   1  238.87    9.23
   7   6  -1  227.84    8.92
   6  -6  -1   23.28    2.61
   6  -6  -1   21.63    2.50
   6  -6  -1   23.92    2.70
  -6   6   1   23.15    2.59
   6   6  -1   22.62    2.90
  -5   6   1    3.54    1.53
  -5  -6   1    1.43    1.08
   5  -6  -1    1.00    1.31
   5  -6  -1    0.75    1.44
  -5   6   1    0.31    1.52
   5   6  -1    0.15    1.16
  -4   6   1    2.31    1.42
  -4  -6   1    2.39    1.07
   4  -6  -1    2.64    1.28
   4  -6  -1    2.50    1.48
  -4   6   1    2.63    1.61
   4   6  -1    4.04    1.73
   3   6  -1  231.78    7.16
  -3   6   1  216.25    6.09
  -3  -6   1  206.44   12.45
   3  -6  -1  211.38   12.62
  -3   6   1  180.46    8.11
   3   6  -1  171.53   10.95
   2   6  -1   23.54    2.71
  -2   6   1   26.36    2.67
  -2  -6   1   25.01    2.54
   2  -6  -1   27.00    2.74
   2  -6  -1   29.13    3.03
  -2   6   1   31.83    3.11
   1   6  -1    0.97    1.15
  -1  -6   1    2.51    1.28
  -1   6   1    3.47    1.25
   1  -6  -1    3.69    1.32
   1  -6  -1    7.91    1.94
  -1   6   1    8.10    1.90
   0   6  -1    2.54    1.25
   0  -6   1    4.52    1.48
   0   6   1    3.54    1.25
   0  -6  -1    3.39    1.30
   0  -6  -1    4.85    1.65
   0   6   1    4.43    1.49
  -1   6  -1  137.24    8.73
   1  -6   1  130.83    8.36
   1   6   1  133.57    8.57
  -1  -6  -1  135.56    8.62
  -1  -6  -1  126.63    8.40
   1   6   1  134.37    8.72
   2  -6   1   43.14    2.86
   2   6   1   47.86    4.17
  -2  -6  -1   50.82    4.06
  -2  -6  -1   57.77    4.67
   2   6   1   60.35    4.76
   3  -6   1    7.28    1.55
   3   6   1    6.64    1.51
  -3  -6  -1    6.27    1.64
   3  -6   1    5.87    1.41
  -3  -6  -1    5.31    1.51
   3   6   1    6.27    1.72
   4  -6   1    7.48    1.66
   4   6   1    4.29    1.45
  -4  -6  -1    4.14    1.53
   4  -6   1    2.58    1.26
  -4  -6  -1    1.85    1.55
   4   6   1    3.41    1.78
   5  -6   1   25.11    2.54
  -5  -6  -1   21.12    2.28
   5  -6   1   18.26    2.24
  -5  -6  -1   16.96    2.42
   5   6   1   17.48    2.22
   6  -6   1    7.52    1.66
   6  -6   1    8.17    2.02
   6  -6   1    7.51    1.76
  -6  -6  -1    7.19    2.00
   6   6   1    7.02    2.07
  -7   6  -1    5.27    1.62
  -7  -6  -1    3.78    1.94
   7  -6   1    2.90    1.63
  -7  -6  -1    5.51    2.20
   8   6   1   20.09    2.21
  -8  -6  -1   18.50    2.29
  -8   6  -1   21.94    2.44
  -8  -6  -1   19.20    2.21
   8  -6   1   21.38    2.43
  -8  -6  -1   20.95    2.60
   9   6   1   24.53    2.35
  -9  -6  -1   21.80    2.40
  -9   6  -1   24.75    2.51
  -9  -6  -1   22.92    2.59
   9  -6   1   21.33    2.60
  -9  -6  -1   24.64    2.85
  10   6   1    8.22    2.02
 -10  -6  -1    7.18    2.24
 -10   6  -1    7.24    1.97
 -10  -6  -1    8.80    1.99
  10  -6   1    5.93    1.98
 -10   6  -1    6.94    2.25
 -10  -6  -1    7.04    2.10
  11   6   1    6.49    1.75
 -11   6  -1    6.65    2.07
  11  -6   1    7.14    2.01
 -11  -6  -1    6.94    1.99
  12   6   1    0.91    1.49
 -12   6  -1    0.37    1.86
  12  -6   1    1.15    1.90
 -12  -6  -1    0.38    2.14
  13   6   1   12.04    2.16
 -13   6  -1   12.32    2.60
  13  -6   1   13.59    2.64
 -13  -6  -1   13.46    2.44
  14   6   1    7.13    2.24
 -14   6  -1    6.12    2.23
  14  -6   1    4.52    1.88
 -14  -6  -1    5.15    2.13
  15   6   1   16.90    2.60
  15  -6   1   18.08    3.16
 -15  -6  -1   15.90    3.02
  16   6   1    3.23    2.06
  16  -6   1    1.78    2.50
 -16  -6  -1    3.90    2.76
  17   6   1    7.73    2.51
  17  -6   1    7.75    2.94
 -17  -6  -1    9.39    3.13
  18   6   1   22.15    2.84
  18  -6   1   16.81    3.12
 -18  -6  -1   18.51    2.79
  19   6   1   -0.26    2.37
  19  -6   1    1.27    2.77
 -19  -6  -1    1.65    2.79
  20   6   1    4.45    2.36
  20  -6   1    2.38    2.93
  21   6   1    2.87    2.95
  21  -6   1    2.91    3.36
  22   6   1    7.25    3.10
  22  -6   1    9.47    3.15
  23   6   1   12.60    3.17
  23  -6   1   10.50    3.69
  23   7  -1    5.15    2.98
  23  -7  -1    9.38    3.48
 -23  -7   1   10.83    3.79
  22   7  -1   36.12    3.50
  22  -7  -1   25.29    3.58
 -22  -7   1   24.50    4.12
  21   7  -1    0.99    2.55
  21  -7  -1    1.83    3.10
 -21  -7   1    1.42    2.86
  20   7  -1   56.24    4.03
  20  -7  -1   43.21    4.02
 -20  -7   1   43.96    4.08
  19   7  -1    1.61    2.14
  19  -7  -1    2.09    2.53
 -19  -7   1    0.78    3.04
  18   7  -1  108.71    4.65
  18  -7  -1  103.40    5.04
 -18  -7   1  100.11    5.17
  17   7  -1   -0.27    2.33
 -17  -7   1    0.33    2.45
  16   7  -1  119.93    5.15
  16  -7  -1  109.34    5.51
 -16  -7   1  115.87    5.61
  15   7  -1    9.95    3.35
  15  -7  -1   11.04    2.73
 -15  -7   1    8.98    2.63
  14   7  -1  154.19    6.18
  14  -7  -1  147.68    6.49
 -14  -7   1  151.39    6.53
  13   7  -1   -0.22    1.39
  13  -7  -1    0.73    1.78
 -13  -7   1   -0.09    1.81
  12   7  -1  121.75    5.52
  12  -7  -1  120.76    5.91
 -12  -7   1  110.56    5.58
  11   7  -1    3.38    1.89
  11  -7  -1    2.86    1.66
  10   7  -1  300.34   10.29
 -10  -7   1  287.89   10.20
 -10  -7   1  259.81   10.02
  10  -7  -1  282.55   10.18
 -10   7   1  281.80   10.33
   9   7  -1    3.17    4.20
  -9  -7   1    2.87    2.02
   9  -7  -1    4.13    1.89
  -9   7   1    2.52    1.85
   9   7  -1    1.33    2.02
   8   7  -1  527.14   11.76
   8  -7  -1  522.40   12.23
  -8   7   1  524.47   12.31
   8   7  -1  521.10   13.04
   7  -7  -1    0.87    1.95
  -7   7   1   -0.46    1.58
   7   7  -1    0.39    1.88
  -6  -7   1  794.96   22.33
   6  -7  -1  814.60   22.70
   6  -7  -1  873.97   24.55
   6  -7  -1  850.19   24.07
  -6   7   1  831.07   23.48
   6   7  -1  822.17   23.85
  -5   7   1    6.63    1.60
  -5  -7   1    8.33    1.77
   5  -7  -1    8.17    1.93
   5  -7  -1   13.33    2.31
  -5   7   1   11.73    2.34
   5   7  -1   12.17    2.10
  -4   7   1  597.71   12.20
   4   7  -1  613.14   12.59
  -4  -7   1  597.98   12.19
   4  -7  -1  580.87   11.78
   4  -7  -1  565.76   12.39
  -4   7   1  587.59   13.01
   3   7  -1   74.25    4.27
  -3   7   1   76.04    4.40
  -3  -7   1   71.68    4.13
   3  -7  -1   72.09   19.72
   3  -7  -1   68.56    4.45
  -3   7   1   69.90    4.29
   2   7  -1  308.47    8.16
  -2   7   1  324.88    8.26
  -2  -7   1  319.39    8.12
   2  -7  -1  333.59    8.33
   2  -7  -1  348.97    9.49
   1   7  -1  187.04    7.91
  -1  -7   1  169.57    7.32
  -1   7   1  167.12    7.35
   1  -7  -1  165.53    7.21
   1  -7  -1  146.24    7.11
  -1   7   1  142.36    6.65
   0   7  -1    6.95    1.66
   0  -7   1    4.94    1.44
   0   7   1    5.12    1.39
   0  -7  -1    4.83    1.50
   0  -7  -1    5.87    1.77
   0   7   1    4.97    1.71
  -1   7  -1  103.51    5.39
   1  -7   1   96.29    5.02
   1   7   1   94.90    5.02
  -1  -7  -1   91.52    4.84
  -1  -7  -1   83.98    4.83
   1   7   1   87.42    4.94
  -2   7  -1  376.06    9.09
   2  -7   1  350.85    8.64
   2   7   1  359.51    9.35
  -2  -7  -1  360.35    8.88
  -2  -7  -1  353.17    9.23
   2   7   1  366.57    9.52
   3  -7   1   38.41    3.10
   3   7   1   39.94    3.28
  -3  -7  -1   39.08    2.98
   3  -7   1   43.66    3.27
  -3  -7  -1   43.33    3.51
   3   7   1   48.57    3.63
   4  -7   1  561.53   11.73
   4   7   1  535.13   11.40
  -4  -7  -1  553.40   12.42
   4  -7   1  571.18   11.87
   4  -7   1  519.04   11.71
  -4  -7  -1  571.71   12.76
   4   7   1  569.84   12.50
   5  -7   1    4.61    1.62
   5   7   1    4.26    1.59
  -5  -7  -1    4.87    1.47
   5  -7   1    6.31    1.76
   5  -7   1    6.12    1.76
  -5  -7  -1    7.69    1.69
   5   7   1    7.43    1.94
   6  -7   1  511.00   15.32
  -6  -7  -1  499.13   15.42
   6  -7   1  505.22   15.45
   6  -7   1  478.85   15.07
  -6  -7  -1  487.43   15.15
   6   7   1  490.92   15.43
   7  -7   1   48.73    4.43
   7  -7   1   55.98    5.14
  -7  -7  -1   62.99    5.62
   7   7   1   63.02    5.68
   8  -7   1  193.03    6.54
  -8  -7  -1  180.66    6.49
   8  -7   1  183.94    6.53
  -8  -7  -1  181.91    6.60
   9  -7   1   43.32    3.68
   9   7   1   42.62    3.06
  -9  -7  -1   40.39    3.12
  -9  -7  -1   42.14    3.31
   9  -7   1   46.52    3.51
  -9   7  -1   51.93    3.89
  -9  -7  -1   50.10    3.57
  10   7   1  169.72    6.95
 -10   7  -1  168.42    7.29
  10  -7   1  175.06    7.31
 -10  -7  -1  164.85    6.99
  11   7   1   37.96    3.82
 -11   7  -1   51.06    3.40
  11  -7   1   46.28    3.34
 -11  -7  -1   46.95    3.41
  12   7   1  157.54    6.59
 -12   7  -1  160.96    6.77
  12  -7   1  153.00    6.90
 -12  -7  -1  154.47    6.90
  13   7   1   22.15    2.63
 -13   7  -1   29.40    2.86
  13  -7   1   26.79    2.99
 -13  -7  -1   25.48    3.01
  14   7   1   94.44    7.97
  14  -7   1   94.45    7.83
  14  -7   1   84.49    7.42
 -14  -7  -1   86.03    7.55
  15   7   1   28.13    3.40
  15  -7   1   39.10    4.29
 -15  -7  -1   31.90    3.81
  16   7   1  145.54    5.86
  16  -7   1  148.31    6.41
 -16  -7  -1  146.55    6.21
  17   7   1   80.84    5.72
  17  -7   1   99.24    6.48
 -17  -7  -1   92.18    6.05
  18   7   1  104.67    5.27
  18  -7   1   95.26    5.75
 -18  -7  -1   94.60    5.44
  19   7   1   27.73    3.04
  19  -7   1   35.09    3.53
 -19  -7  -1   31.01    3.56
  20   7   1   20.60    3.27
  20  -7   1   16.26    3.52
 -20  -7  -1   18.96    3.71
  21   7   1    7.70    3.22
  21  -7   1   12.72    3.26
 -21  -7  -1   11.66    2.99
  22   7   1   29.88    3.47
  22  -7   1   24.86    3.65
  23   8  -1   10.85    2.86
  23  -8  -1   15.20    3.89
 -23  -8   1   18.38    3.92
  22   8  -1   38.00    3.49
  22  -8  -1   43.32    4.33
 -22  -8   1   42.95    4.16
  21   8  -1   47.94    3.59
  21  -8  -1   63.55    4.33
 -21  -8   1   64.00    4.81
  20   8  -1   21.81    2.88
  20  -8  -1   25.46    3.77
 -20  -8   1   25.18    3.85
  19   8  -1   26.03    3.30
  19  -8  -1   37.41    3.64
 -19  -8   1   40.64    3.80
  18   8  -1    0.87    2.51
  18  -8  -1    3.44    2.83
 -18  -8   1    0.51    3.07
  17   8  -1   51.74    3.63
  17  -8  -1   65.76    5.03
 -17  -8   1   65.82    5.05
  16   8  -1    2.34    1.96
  16  -8  -1    2.75    2.48
 -16  -8   1    2.86    2.45
  15   8  -1   40.52    3.87
  15  -8  -1   54.03    5.01
 -15  -8   1   50.16    4.62
  14   8  -1   44.23    5.10
  14  -8  -1   57.93    5.74
 -14  -8   1   49.54    5.07
  13   8  -1   30.36    2.82
  13  -8  -1   45.56    3.54
  12   8  -1   11.92    2.18
  12  -8  -1   12.16    2.61
  11   8  -1    1.40    1.45
  11  -8  -1    1.02    1.88
  10   8  -1    9.19    2.08
  10  -8  -1    8.26    1.98
 -10   8   1    7.55    2.28
   9   8  -1    7.09    2.01
   9  -8  -1    5.22    2.05
  -9   8   1    2.75    2.46
   8  -8  -1    4.82    1.70
  -8   8   1    5.20    2.25
   8   8  -1    4.74    2.16
  -7  -8   1    0.67    1.63
   7  -8  -1    0.18    2.58
   7  -8  -1    0.14    1.72
  -7   8   1   -0.22    2.05
   7   8  -1    1.24    1.95
  -6  -8   1    3.26    1.74
   6  -8  -1    3.49    1.58
   6  -8  -1    3.80    1.55
   6  -8  -1    3.50    1.52
  -6   8   1    5.12    2.05
   6   8  -1    3.40    1.91
  -5   8   1    0.14    1.32
   5   8  -1    0.11    1.42
  -5  -8   1   -0.05    1.46
   5  -8  -1    0.50    1.59
   5  -8  -1    0.07    1.61
  -5   8   1    0.60    1.61
  -4   8   1   14.22    2.06
   4   8  -1   13.72    2.14
  -4  -8   1   14.46    2.19
   4  -8  -1   14.28    2.04
   4  -8  -1   14.00    2.30
  -4   8   1   13.27    2.28
   3   8  -1    0.06    1.15
  -3   8   1   -0.12    1.38
  -3  -8   1    0.43    1.35
   3  -8  -1    0.28    1.66
  -3   8   1   -1.35    1.64
   2   8  -1   77.47    4.79
  -2   8   1   84.64    5.09
  -2  -8   1   85.79    5.05
   2  -8  -1   87.89    5.13
   2  -8  -1   94.48    5.81
  -2   8   1  100.28    6.10
   1   8  -1    4.67    1.43
  -1   8   1    6.01    1.62
  -1  -8   1    5.16    1.64
   1  -8  -1    6.33    1.81
   1  -8  -1    7.14    2.02
  -1   8   1    6.66    1.90
   0   8  -1   64.54    4.11
   0   8   1   57.90    3.31
   0  -8   1   58.14    3.26
   0  -8  -1   58.32    3.83
   0  -8  -1   53.48    4.00
   0   8   1   52.16    3.68
  -1   8  -1  302.65   10.24
   1  -8   1  308.13   10.19
   1   8   1  315.65   10.64
  -1  -8  -1  317.36   10.45
  -1  -8  -1  339.59   11.54
   1   8   1  344.07   11.43
  -2   8  -1    6.18    1.62
   2  -8   1    5.23    1.69
   2   8   1    5.79    3.50
  -2  -8  -1    5.70    1.59
   2  -8   1    7.03    1.82
  -2  -8  -1    6.95    1.97
   2   8   1    7.66    1.94
   3  -8   1   99.60    5.61
   3   8   1   98.21    5.71
  -3  -8  -1   96.31    5.52
   3  -8   1   91.99    5.98
   3  -8   1   87.62    5.47
  -3  -8  -1   93.41    5.81
   3   8   1   90.66    5.57
   4  -8   1   27.98    2.61
   4   8   1   29.39    3.94
  -4  -8  -1   29.89    2.80
   4  -8   1   36.08    3.02
   4  -8   1   34.24    3.25
  -4  -8  -1   33.48    3.20
   4   8   1   33.02    2.99
   5  -8   1   50.06    4.48
   5   8   1   58.61    5.97
  -5  -8  -1   61.15    5.19
   5  -8   1   68.84    5.81
   5  -8   1   69.49    5.93
  -5  -8  -1   71.70    6.16
   5   8   1   71.18    6.19
   6  -8   1   23.85    2.39
   6   8   1   22.09    2.26
  -6  -8  -1   23.07    2.25
   6  -8   1   21.12    2.39
   6  -8   1   21.87    2.45
  -6  -8  -1   21.90    2.44
   6   8   1   21.14    2.35
   7  -8   1   79.76    4.20
  -7  -8  -1   85.21    4.41
   7  -8   1   86.10    4.61
  -7   8  -1   90.53    4.69
  -7  -8  -1   93.96    4.78
   7   8   1   91.59    5.03
   8  -8   1   10.67    2.19
   8  -8   1    8.76    2.11
  -8   8  -1    5.93    2.17
  -8  -8  -1    7.06    1.96
   8   8   1    7.22    2.10
   9  -8   1   92.86    5.30
   9  -8   1  106.27    6.04
  -9  -8  -1  109.91    6.17
  10  -8   1   93.21    4.66
  10   8   1   92.73    4.74
  10  -8   1   90.44    5.02
 -10  -8  -1   91.87    5.05
  11  -8   1   62.22    4.60
  11   8   1   58.83    4.36
  11  -8   1   66.45    4.74
  11  -8   1   66.96    5.08
 -11  -8  -1   73.14    5.23
  12  -8   1   76.98    3.96
  12   8   1   80.23    4.00
  12  -8   1   80.70    3.98
  12  -8   1   81.88    4.39
 -12  -8  -1   79.87    4.40
  13   8   1   45.18    4.64
  13  -8   1   42.43    4.61
  13  -8   1   50.72    5.09
 -13  -8  -1   47.40    4.92
  14   8   1   36.54    3.72
  14  -8   1   37.76    4.25
 -14  -8  -1   34.13    4.22
  15   8   1   11.91    2.66
  15  -8   1   13.40    2.94
 -15  -8  -1   13.95    2.86
  16   8   1   19.50    2.73
  16  -8   1   19.08    3.04
 -16  -8  -1   20.77    3.37
  17   8   1   24.17    3.24
  17  -8   1   29.84    3.77
 -17  -8  -1   25.81    3.51
  18   8   1   40.41    3.43
  18  -8   1   43.85    3.87
 -18  -8  -1   40.09    3.80
  19   8   1   40.36    3.46
  19  -8   1   46.68    4.16
 -19  -8  -1   44.43    4.16
  20   8   1   56.03    4.03
  20  -8   1   62.44    4.26
 -20  -8  -1   61.94    4.37
  21   8   1   27.24    3.39
  21  -8   1   25.95    3.78
 -21  -8  -1   26.95    3.68
  22   8   1   23.46    3.17
  22  -8   1   23.35    3.73
 -22  -8  -1   20.99    3.77
  22   9  -1    2.99    3.39
  22  -9  -1    1.23    3.29
 -22  -9   1   -0.06    3.76
  21   9  -1    3.57    2.71
  21  -9  -1    0.05    2.67
 -21  -9   1    2.75    2.72
  20   9  -1   50.62    3.83
  20  -9  -1   32.00    3.83
 -20  -9   1   31.81    3.82
  19   9  -1    3.14    2.44
  19  -9  -1    0.25    2.75
 -19  -9   1    2.82    3.04
  18   9  -1   88.95    4.56
  18  -9  -1   74.64    4.55
 -18  -9   1   73.90    4.68
  17   9  -1    1.62    2.47
  17  -9  -1    5.05    2.78
 -17  -9   1    3.67    2.93
  16   9  -1  166.50    7.41
  16  -9  -1  136.62    6.85
 -16  -9   1  137.93    6.98
  15   9  -1   45.71    3.87
  15  -9  -1   47.50    3.84
 -15  -9   1   43.67    4.45
  14   9  -1  185.08    5.97
  14  -9  -1  161.27    6.00
  13   9  -1   11.96    2.27
  13  -9  -1   10.71    2.33
  12   9  -1  171.22    7.55
  12  -9  -1  168.77    7.98
  11   9  -1   27.59    2.76
  11  -9  -1   28.04    3.05
  10   9  -1  291.58   10.34
  10  -9  -1  277.21   10.63
   9  -9  -1   21.74    2.68
   8  -9  -1  326.46   11.30
   8  -9  -1  322.36   11.34
  -8   9   1  316.23   11.61
  -7  -9   1   17.06    2.66
   7  -9  -1   17.48    2.79
   7  -9  -1   23.68    3.12
   7  -9  -1   22.73    3.09
  -7   9   1   23.51    3.35
   6   9  -1  477.35   12.11
  -6  -9   1  448.85   11.53
   6  -9  -1  465.47   11.57
   6  -9  -1  434.99   11.77
  -6   9   1  453.46   12.71
  -5   9   1   34.70    2.70
   5   9  -1   33.49    2.77
  -5  -9   1   32.20    2.78
   5  -9  -1   33.19    2.72
   5  -9  -1   33.93    3.11
  -5   9   1   34.35    2.99
  -4   9   1  408.27    9.85
   4   9  -1  410.44   10.70
  -4  -9   1  386.12    9.38
   4  -9  -1  380.95    9.76
   4  -9  -1  362.33    9.85
  -4   9   1  375.49    9.69
   3   9  -1    5.40    1.78
  -3   9   1    5.11    1.58
  -3  -9   1    6.43    1.97
   3  -9  -1    5.98    1.88
  -3   9   1    6.94    2.18
   2   9  -1  185.49    9.09
  -2   9   1  183.19    9.36
  -2  -9   1  181.96    8.75
   2  -9  -1  181.80    9.02
   2  -9  -1  180.12    9.25
  -2   9   1  183.43    9.09
   1   9  -1  226.67    8.29
  -1   9   1  220.06    8.25
  -1  -9   1  212.52    7.82
   1  -9  -1  213.53    7.84
   1  -9  -1  207.85    8.29
  -1   9   1  203.65    7.89
   0   9  -1  469.99   14.45
   0   9   1  435.74   13.47
   0  -9   1  435.48   13.50
   0  -9  -1  426.34   13.16
   0  -9  -1  391.66   13.03
   0   9   1  402.89   12.89
  -1   9  -1  165.87    8.23
   1  -9   1  158.37    7.87
   1   9   1  156.05    7.86
  -1  -9  -1  156.91    7.84
   1  -9   1  158.72    8.27
  -1  -9  -1  164.07    8.47
   1   9   1  165.23    8.38
  -2   9  -1  150.76    5.47
   2  -9   1  140.33    4.91
   2   9   1  133.97    6.29
  -2  -9  -1  139.28    4.90
   2  -9   1  116.54    9.07
  -2  -9  -1  111.43    8.79
   2   9   1  119.41    9.60
   3  -9   1   78.30    6.36
   3   9   1   76.70    6.53
  -3  -9  -1   78.93    6.48
   3  -9   1   77.97    6.41
   3  -9   1   71.35    6.18
  -3  -9  -1   71.87    6.12
   3   9   1   75.68    6.36
   4  -9   1  363.04    8.97
   4   9   1  354.37    9.11
  -4  -9  -1  357.40    9.24
   4  -9   1  361.66    9.14
   4  -9   1  353.67    9.68
  -4  -9  -1  346.35    9.30
   4   9   1  348.58    9.55
   5  -9   1    0.83    1.54
  -5  -9  -1    1.79    1.66
   5  -9   1    1.75    1.51
   5  -9   1    1.48    1.82
  -5   9  -1    2.22    1.70
  -5  -9  -1    2.70    1.89
   5   9   1    1.71    2.13
   6  -9   1  216.36    7.26
   6   9   1  206.21    6.93
  -6  -9  -1  203.39    6.77
   6  -9   1  199.15    6.90
   6  -9   1  189.08    7.09
  -6   9  -1  190.91    7.16
  -6  -9  -1  190.25    7.41
   6   9   1  192.78    7.23
   7   9   1    0.43    1.37
   7  -9   1    0.40    1.56
   7  -9   1    0.02    1.88
  -7  -9  -1    1.74    1.87
   7   9   1   -0.77    1.98
   8  -9   1   42.18    3.02
   8  -9   1   37.90    3.23
  -8  -9  -1   36.97    3.17
   9  -9   1    1.21    1.82
   9  -9   1    0.60    1.72
  -9  -9  -1    0.36    1.93
  10  -9   1  233.20    8.68
  10  -9   1  238.77    8.95
  10  -9   1  234.86    9.10
 -10  -9  -1  236.24    8.99
  11  -9   1    3.66    5.07
  11   9   1    5.78    2.15
  11  -9   1    6.47    1.99
  11  -9   1    6.59    2.31
 -11  -9  -1    8.47    2.43
  12   9   1   52.69    5.03
  12  -9   1   50.19    4.89
  12  -9   1   46.09    4.68
 -12  -9  -1   38.90    3.47
  13   9   1   31.19    3.40
  13  -9   1   33.86    3.82
 -13  -9  -1   35.15    3.79
  14   9   1   55.70    4.23
  14  -9   1   43.65    3.79
 -14  -9  -1   44.11    3.76
  15   9   1   34.42    3.15
  15  -9   1   42.45    3.69
 -15  -9  -1   46.36    3.73
  16   9   1   35.85    3.66
  16  -9   1   31.25    3.37
 -16  -9  -1   26.19    3.27
  17   9   1   10.07    2.62
  17  -9   1   14.91    3.25
 -17  -9  -1   12.44    3.12
  18   9   1   72.29    4.78
  18  -9   1   61.33    4.35
 -18  -9  -1   66.97    4.42
  19   9   1   12.60    2.69
  19  -9   1   17.44    3.35
 -19  -9  -1   16.33    3.66
  20   9   1   39.73    3.61
  20  -9   1   26.39    3.59
 -20  -9  -1   27.68    4.05
  21   9   1   22.05    3.06
  21  -9   1   28.03    3.78
 -21  -9  -1   28.39    4.08
  21  10  -1    4.23    2.60
  21 -10  -1    4.97    3.44
 -21 -10   1    4.42    3.12
  20  10  -1    2.27    2.62
  20 -10  -1    4.69    3.06
 -20 -10   1    1.80    3.49
  19  10  -1    4.35    2.90
  19 -10  -1    5.78    3.19
 -19 -10   1    4.76    2.94
  18  10  -1    5.43    2.54
  18 -10  -1   10.63    3.00
 -18 -10   1   10.26    2.76
  17  10  -1   15.60    2.88
  17 -10  -1   16.54    3.17
 -17 -10   1   17.51    3.13
  16  10  -1   28.65    3.19
  16 -10  -1   28.80    3.30
  15  10  -1   14.89    2.78
  14  10  -1   17.11    2.58
  14 -10  -1   22.81    2.93
  13  10  -1    0.70    2.27
  13 -10  -1    0.18    2.26
  12  10  -1    5.34    2.12
  12 -10  -1    4.92    2.39
  11  10  -1   11.31    2.19
  11 -10  -1   12.58    2.61
  10 -10  -1   33.35    3.25
   9 -10  -1   10.79    2.45
   8 -10  -1   12.78    2.33
   8 -10  -1   13.20    4.66
   8 -10  -1   13.39    2.60
   7  10  -1   -0.47    2.37
   7 -10  -1   -0.09    1.70
   7 -10  -1    0.37    1.68
   7 -10  -1    1.02    1.94
  -7  10   1    0.14    2.04
  -6  10   1   10.88    1.98
   6  10  -1   12.04    2.15
   6 -10  -1   12.08    2.22
   6 -10  -1   13.40    2.52
  -6  10   1   11.36    2.52
  -5  10   1   77.28    4.02
   5  10  -1   77.47    5.21
  -5 -10   1   74.51    4.03
   5 -10  -1   70.91    3.89
   5 -10  -1   71.43    4.35
  -5  10   1   70.34    4.17
  -4  10   1    1.29    1.54
  -4 -10   1    1.73    1.89
   4 -10  -1    2.53    1.78
  -4  10   1    2.91    2.09
   3  10  -1   58.00    3.62
  -3  10   1   59.36    3.64
  -3 -10   1   51.81    3.62
   3 -10  -1   52.81    3.40
   3 -10  -1   46.35    3.63
  -3  10   1   44.92    3.27
   2  10  -1   27.64    3.31
  -2  10   1   27.74    3.34
  -2 -10   1   25.22    3.16
   2 -10  -1   24.30    3.97
   2 -10  -1   22.73    3.23
  -2  10   1   22.65    3.20
   1  10  -1  143.36    5.39
  -1  10   1  141.11    5.11
  -1 -10   1  142.86    5.22
   1 -10  -1  142.12    5.25
   1 -10  -1  146.73    5.94
  -1 -10   1  134.00    5.37
  -1  10   1  139.81    5.46
   0  10  -1   -0.68    1.65
   0  10   1    0.23    1.57
   0 -10   1    0.10    1.50
   0 -10  -1   -0.16    2.44
   0 -10   1   -0.92    1.76
   0 -10  -1    0.95    1.56
   0  10   1    0.14    2.14
  -1  10  -1   95.98    4.54
   1  10   1   90.98    4.42
   1 -10   1   89.97    4.67
  -1 -10  -1   93.32    4.48
   1 -10   1   95.94    4.83
  -1 -10  -1   92.50    4.83
   1  10   1   93.95    4.92
  -2  10  -1   61.24    3.66
   2  10   1   60.50    3.70
   2 -10   1   61.53    3.58
  -2 -10  -1   60.87    3.49
   2 -10   1   58.11    3.74
  -2 -10  -1   58.53    3.95
   2  10   1   61.94    3.91
   3 -10   1   31.88    2.72
   3  10   1   30.52    3.57
  -3 -10  -1   34.44    2.90
   3 -10   1   38.09    3.29
  -3  10  -1   34.74    3.11
  -3 -10  -1   33.94    3.07
   3  10   1   35.26    3.20
   4 -10   1    9.25    2.12
   4  10   1    8.36    5.00
  -4 -10  -1   10.69    2.32
   4 -10   1   12.13    2.36
   4 -10   1   12.91    2.25
  -4  10  -1   11.22    2.80
  -4 -10  -1   11.28    2.54
   4  10   1   12.07    2.46
   5 -10   1   40.00    3.18
   5  10   1   40.73    5.38
  -5 -10  -1   42.40    3.54
   5 -10   1   46.79    3.55
   5 -10   1   44.21    3.83
  -5 -10  -1   46.60    3.78
   5  10   1   43.90    3.76
   6 -10   1   27.79    2.53
   6  10   1   28.23    2.77
   6 -10   1   24.42    2.68
   6 -10   1   23.38    2.83
  -6 -10  -1   25.18    3.01
   7 -10   1    0.16    2.27
   7  10   1    0.00    1.34
   7 -10   1   -0.57    1.66
   7 -10   1    0.30    1.98
  -7 -10  -1   -0.70    2.12
   8  10   1    0.44    1.98
   8 -10   1    2.05    2.00
  -8 -10  -1    1.14    1.86
   9 -10   1   79.59    6.12
   9 -10   1   79.64    5.41
  -9 -10  -1   78.53    5.38
  10 -10   1   31.09    4.27
  10 -10   1   32.02    3.01
  10 -10   1   29.44    3.15
 -10 -10  -1   25.40    2.74
  11 -10   1   -0.16    1.91
  11 -10   1   -1.04    2.00
 -11 -10  -1    1.12    2.31
  12  10   1   15.49    2.42
  12 -10   1   20.06    3.06
 -12 -10  -1   18.71    2.98
  13  10   1   -0.60    1.92
  13 -10   1    0.04    2.14
 -13 -10  -1   -0.69    2.46
  14  10   1   25.71    2.67
  14 -10   1   26.75    2.95
 -14 -10  -1   27.51    3.11
  15  10   1   14.47    2.60
  15 -10   1   15.31    3.11
 -15 -10  -1   17.79    2.71
  16  10   1   13.00    2.46
  16 -10   1   12.29    2.96
 -16 -10  -1    8.04    3.16
  17  10   1    1.23    2.68
  17 -10   1    1.75    2.83
 -17 -10  -1    0.09    2.82
  18  10   1    3.14    2.91
  18 -10   1    1.62    3.10
 -18 -10  -1    2.12    3.23
  19  10   1    4.71    2.59
  19 -10   1    6.28    2.88
 -19 -10  -1    7.30    3.00
  20  10   1    2.55    3.07
  20 -10   1    1.15    3.73
 -20 -10  -1    1.49    2.96
  21  10   1    1.01    3.00
  21 -10   1   -0.98    2.97
 -21 -10  -1    0.55    3.44
  21  11  -1   11.07    3.15
  21 -11  -1   11.20    3.42
 -21 -11   1   10.65    3.49
  20  11  -1    4.65    3.04
  20 -11  -1    6.98    3.26
 -20 -11   1    6.05    3.82
  19  11  -1   32.52    3.41
  19 -11  -1   30.39    3.68
 -19 -11   1   28.79    3.96
  18  11  -1   12.39    2.89
  18 -11  -1   14.14    3.07
 -18 -11   1   15.32    3.76
  17  11  -1   43.56    3.44
  17 -11  -1   51.71    4.16
  16  11  -1   27.51    3.07
  16 -11  -1   25.65    3.53
  15  11  -1   30.70    3.47
  15 -11  -1   29.86    3.44
  14  11  -1    0.68    2.11
  13  11  -1   60.85    4.29
  13 -11  -1   67.57    4.97
  12  11  -1    0.47    1.90
  12 -11  -1    2.01    2.33
  11 -11  -1    7.68    2.10
  10 -11  -1   38.04    3.41
   9 -11  -1  201.80    9.25
   9 -11  -1  199.00    9.25
   8 -11  -1    3.41    1.96
   8 -11  -1    4.75    2.13
   8 -11  -1    3.11    2.30
   7  11  -1   93.89    5.87
   7 -11  -1   83.70    5.46
   7 -11  -1   86.73    5.85
  -6  11   1  146.49    6.04
   6  11  -1  153.98    5.49
   6 -11  -1  144.80    6.05
   6 -11  -1  148.03    6.69
  -5  11   1    4.76    2.08
   5 -11  -1    3.03    1.73
   5 -11  -1    0.97    2.22
  -4  11   1   65.71    4.37
   4  11  -1   66.99    4.52
  -4 -11   1   66.44    4.31
   4 -11  -1   68.46    4.38
   4 -11  -1   64.78    4.64
  -4  11   1   64.21    4.41
  -3  11   1    4.93    1.72
   3  11  -1    3.18    1.96
  -3 -11   1    5.08    2.10
   3 -11  -1    6.24    2.86
   3 -11  -1   10.10    2.18
  -3 -11   1    9.88    2.05
  -3  11   1    8.27    2.28
   2  11  -1    3.18    1.91
  -2  11   1    4.66    1.83
  -2 -11   1    4.05    1.80
   2 -11  -1    3.72    1.80
   2 -11  -1    4.93    2.45
  -2 -11   1    3.48    1.63
  -2  11   1    4.61    2.22
   1  11  -1   15.50    2.38
  -1  11   1   16.84    2.21
  -1 -11   1   16.66    2.33
   1 -11  -1   17.56    2.09
   1 -11  -1   19.76    2.83
  -1 -11   1   19.50    2.70
  -1  11   1   18.27    2.77
   0  11  -1    4.97    2.02
   0  11   1    7.10    1.95
   0 -11   1    8.39    1.91
   0 -11  -1    7.54    1.84
   0 -11   1   11.51    2.46
   0 -11  -1   11.19    2.38
   0  11   1   11.00    2.48
  -1  11  -1   13.92    2.15
   1  11   1   13.56    2.13
   1 -11   1   14.18    2.13
  -1 -11  -1   15.86    2.19
   1 -11   1   16.77    2.75
  -1 -11  -1   17.45    2.54
   1  11   1   16.26    2.71
  -2  11  -1  126.80    4.88
   2  11   1  124.00    6.88
   2 -11   1  128.67    5.70
  -2 -11  -1  126.74    4.85
   2 -11   1  136.01    6.48
  -2 -11  -1  130.04    6.19
   2  11   1  130.98    5.99
  -3  11  -1   19.27    2.33
   3 -11   1   18.02    2.92
  -3 -11  -1   19.07    2.45
   3 -11   1   21.41    2.80
  -3 -11  -1   22.83    2.82
   4  11   1  267.80    9.92
   4 -11   1  267.82    9.66
  -4 -11  -1  268.17    9.77
   4 -11   1  264.01    9.66
   4 -11   1  265.37   10.06
  -4 -11  -1  259.57    9.89
   5  11   1   11.75    2.69
   5 -11   1   11.33    4.47
   5 -11   1   14.76    2.37
   5 -11   1   14.54    2.57
  -5 -11  -1   13.07    2.29
   6 -11   1   42.47    3.08
   6  11   1   41.83    3.63
   6 -11   1   43.62    3.72
   6 -11   1   44.03    3.92
  -6 -11  -1   43.62    3.97
   7 -11   1    0.72    1.98
   7  11   1    0.28    2.10
   7 -11   1    0.78    1.92
   7 -11   1    2.14    1.90
  -7 -11  -1    1.94    2.57
   8  11   1   12.05    2.35
   8 -11   1   12.24    2.16
   8 -11   1   12.52    2.42
   8 -11   1   13.58    2.70
  -8 -11  -1   15.26    2.92
   9  11   1    5.97    2.22
   9 -11   1    3.61    2.03
  -9 -11  -1    2.86    2.42
  10 -11   1  110.22    5.34
  10 -11   1  101.79    5.26
 -10 -11  -1  104.85    5.27
  11 -11   1    0.20    2.39
 -11 -11  -1    0.76    1.98
  12 -11   1    0.89    3.13
 -12 -11  -1    0.84    2.41
  13  11   1    3.95    2.11
  13 -11   1    5.95    2.62
 -13 -11  -1    5.36    2.79
  14  11   1   13.26    2.81
  14 -11   1   12.20    3.24
 -14 -11  -1   15.29    3.01
  15  11   1    1.40    2.64
  15 -11   1    3.59    2.46
 -15 -11  -1    3.77    2.43
  16  11   1   16.98    2.96
  16 -11   1   18.73    3.43
 -16 -11  -1   19.49    3.54
  17  11   1   11.53    3.02
  17 -11   1   18.54    3.26
 -17 -11  -1   18.61    3.32
  18  11   1    7.44    3.03
  18 -11   1    5.34    3.14
 -18 -11  -1    8.11    3.16
  19  11   1    8.05    2.83
  19 -11   1   12.83    3.72
 -19 -11  -1   10.58    3.54
  20  11   1   10.56    3.28
  20 -11   1    5.89    3.36
 -20 -11  -1    8.63    3.16
  20  12  -1    0.16    2.67
  20 -12  -1    1.33    3.06
 -20 -12   1    2.66    3.32
  19  12  -1    6.95    3.05
  19 -12  -1    8.35    3.21
  18  12  -1   -0.12    2.72
  18 -12  -1   -1.79    2.98
  17  12  -1   18.87    3.08
  17 -12  -1   23.21    3.78
  16  12  -1    1.30    2.65
  16 -12  -1    0.33    2.75
  15  12  -1   47.83    3.65
  15 -12  -1   53.53    4.43
  14  12  -1    4.65    2.46
  14 -12  -1    5.06    2.83
  13  12  -1   44.01    3.36
  12 -12  -1   15.61    2.81
  11 -12  -1    0.24    1.83
  10 -12  -1   21.26    3.14
   9  12  -1    2.75    5.04
   9 -12  -1    4.67    2.80
   9 -12  -1    6.39    2.75
   8  12  -1   63.56    5.82
   8 -12  -1   55.24    5.32
   8 -12  -1   57.38    5.58
   7  12  -1  169.40   10.35
   7 -12  -1  163.42    7.18
   7 -12  -1  156.26    7.60
  -6  12   1   18.73    2.29
   6  12  -1   17.88    4.45
   6 -12  -1   16.39    2.51
   6 -12  -1   11.05    2.63
  -5  12   1  120.39    6.88
   5  12  -1  120.18    7.56
   5 -12  -1  125.29    7.00
   5 -12  -1  139.48    6.60
  -5 -12   1  126.96    6.08
  -4  12   1   -0.01    1.75
   4  12  -1    0.69    2.00
   4 -12  -1   -0.02    1.78
   4 -12  -1    2.13    2.20
  -4 -12   1    0.25    1.77
  -3  12   1   62.57    4.09
   3  12  -1   61.51    3.90
   3 -12  -1   63.05    3.80
   3 -12  -1   63.93    4.47
  -3 -12   1   61.51    4.15
   2  12  -1    1.02    2.03
  -2  12   1    2.83    1.67
  -2 -12   1    0.80    1.78
   2 -12  -1    1.47    1.76
   2 -12  -1    1.28    2.41
  -2 -12   1    0.53    2.27
   1  12  -1   10.35    2.18
  -1  12   1    8.51    2.00
  -1 -12   1   10.46    2.12
   1 -12  -1    9.19    2.27
   1 -12  -1   10.61    2.59
  -1 -12   1   11.05    2.49
   0  12  -1   22.75    2.60
   0  12   1   24.73    2.60
   0 -12   1   25.11    2.62
   0 -12  -1   27.59    2.82
   0 -12   1   27.93    3.21
   0 -12  -1   29.35    3.20
  -1  12  -1    1.59    1.62
   1  12   1    1.38    2.04
   1 -12   1    0.82    1.94
  -1 -12  -1    0.36    2.07
   1 -12   1    0.49    1.87
  -1 -12  -1    0.79    2.23
  -2  12  -1   25.30    2.66
   2  12   1   25.08    2.76
   2 -12   1   26.60    2.74
  -2 -12  -1   29.48    2.75
   2 -12   1   31.19    3.03
  -2 -12  -1   34.15    3.43
  -3  12  -1    0.15    1.64
   3 -12   1    0.24    3.25
   3 -12   1   -0.33    2.24
  -3 -12  -1    0.50    1.80
   4  12   1   43.46    3.79
   4 -12   1   44.74    3.60
   4 -12   1   37.90    3.08
   4 -12   1   39.08    3.44
  -4 -12  -1   40.96    3.55
   5 -12   1    3.60    1.80
   5 -12   1    4.07    2.50
  -5 -12  -1    3.68    2.56
   6  12   1   68.18    5.98
   6 -12   1   64.55    7.15
   6 -12   1   63.00    3.80
   6 -12   1   63.85    4.12
  -6 -12  -1   62.46    3.87
   7  12   1   53.41    3.50
   7 -12   1   53.90    3.97
   7 -12   1   46.76    3.58
   7 -12   1   46.42    3.55
  -7 -12  -1   45.42    3.68
   8  12   1    3.38    4.27
   8 -12   1    3.44    2.28
   8 -12   1    2.98    2.82
  -8 -12  -1    5.37    2.56
   9  12   1  179.50    5.82
   9 -12   1  180.22    6.30
  -9 -12  -1  190.74    6.28
  10  12   1    7.19    2.61
  10 -12   1    6.28    2.51
 -10 -12  -1    8.64    2.95
  11 -12   1   19.20    2.92
 -11 -12  -1   18.10    2.92
  12 -12   1   90.23    6.02
 -12 -12  -1   89.75    5.91
  13 -12   1    8.53    3.29
 -13 -12  -1   10.77    4.50
  14  12   1   32.53    3.63
  14 -12   1   35.35    3.91
 -14 -12  -1   36.00    4.07
  15  12   1   22.44    2.78
  15 -12   1   21.25    3.28
 -15 -12  -1   23.22    3.27
  16  12   1   17.93    3.01
  16 -12   1   16.99    3.75
 -16 -12  -1   14.25    2.75
  17  12   1   14.48    3.14
  17 -12   1   17.00    3.46
 -17 -12  -1   17.67    3.74
  18  12   1   33.09    3.33
  18 -12   1   33.36    3.97
 -18 -12  -1   37.08    4.01
  19  12   1   24.22    3.64
  19 -12   1   33.70    4.37
 -19 -12  -1   29.41    3.69
  19  13  -1    2.35    2.77
  19 -13  -1    2.80    3.31
  18  13  -1   98.85    4.98
  18 -13  -1   75.60    4.86
  17  13  -1   30.45    3.15
  17 -13  -1   31.60    3.81
  16  13  -1   92.98    4.56
  16 -13  -1   73.68    4.62
  15  13  -1    8.89    2.61
  15 -13  -1    7.09    3.12
  14  13  -1  116.01    5.63
  14 -13  -1  103.84    5.70
  13 -13  -1    5.19    2.62
  11 -13  -1   22.16    3.35
  10  13  -1  247.13    7.72
  10 -13  -1  223.84    7.98
   9  13  -1   37.63   13.16
   9 -13  -1   45.34    4.76
   8  13  -1  325.43    8.15
   8 -13  -1  291.05    7.35
   8 -13  -1  300.17    8.13
   7 -13  -1   11.27    2.74
  -7 -13   1    9.48    2.80
  -6  13   1  237.14    7.91
   6  13  -1  229.48    8.07
   6 -13  -1  237.00    7.87
   6 -13  -1  244.30    8.85
  -6 -13   1  238.60    8.36
  -5  13   1   23.74    2.66
   5 -13  -1   23.81    2.79
   5 -13  -1   24.30    3.36
  -5 -13   1   26.09    2.83
  -4  13   1  591.55   20.36
   4  13  -1  595.65   20.49
   4 -13  -1  559.25   19.36
   4 -13  -1  538.69   19.52
  -4 -13   1  540.07   19.09
  -3  13   1    9.17    2.20
   3  13  -1    8.96    6.46
   3 -13  -1    9.73    2.53
   3 -13  -1   12.17    2.84
  -3 -13   1   11.82    2.63
   2  13  -1  563.12   19.45
  -2  13   1  547.47   19.26
   2 -13  -1  536.00   18.47
   2 -13  -1  535.03   19.14
  -2 -13   1  545.62   19.26
   1  13  -1   -0.13    1.89
  -1  13   1    0.72    2.09
   1 -13  -1    0.10    1.86
   1 -13  -1    1.02    2.23
  -1 -13   1   -0.01    2.12
   0  13  -1  416.38   15.72
   0  13   1  392.99   14.34
   0 -13   1  405.12   14.57
   0 -13  -1  401.72   14.41
   0 -13   1  407.98   15.18
   0 -13  -1  409.27   15.26
  -1  13  -1    1.70    1.87
   1  13   1    1.40    2.12
   1 -13   1    0.10    1.94
  -1 -13  -1   -0.57    1.97
   1 -13   1    0.51    2.34
  -1 -13  -1    0.48    2.44
  -2  13  -1  338.10   12.71
   2  13   1  330.97   13.13
   2 -13   1  337.33   12.67
   2 -13   1  323.93   12.67
  -2 -13  -1  319.98   12.47
  -3  13  -1   -0.64    1.60
   3 -13   1    0.17    2.23
  -3 -13  -1    0.99    2.41
   4  13   1  351.41   13.82
   4 -13   1  343.29   12.92
   4 -13   1  321.88   12.23
   4 -13   1  319.86   12.85
  -4 -13  -1  310.19   12.12
   5 -13   1   37.75    3.74
   5 -13   1   35.34    3.27
   5 -13   1   35.19    3.15
  -5 -13  -1   33.00    3.43
   6  13   1  172.14    7.94
   6 -13   1  173.06    9.64
   6 -13   1  167.59    6.57
   6 -13   1  172.46    7.17
  -6 -13  -1  175.79    6.94
   7 -13   1   46.83    4.47
   7 -13   1   46.34    4.54
  -7 -13  -1   41.98    4.42
   8  13   1  269.59    7.04
   8 -13   1  265.36    7.27
   8 -13   1  274.85    7.85
  -8 -13  -1  264.87    7.47
   9  13   1   -0.99    2.25
   9 -13   1    0.12    2.40
  -9 -13  -1    0.43    2.63
  10  13   1  301.00    9.59
  10 -13   1  289.17    9.22
 -10 -13  -1  292.68   10.01
  11  13   1   43.28    4.58
  11 -13   1   46.57    4.03
 -11 -13  -1   51.68    3.89
  12 -13   1  140.60    5.88
 -12 -13  -1  131.83    6.32
  13 -13   1   10.51    3.11
 -13 -13  -1   13.41    8.13
  14 -13   1   60.32    4.53
 -14 -13  -1   57.20    5.31
  15  13   1   26.88    3.00
  15 -13   1   30.44    3.72
 -15 -13  -1   34.81    6.05
  16  13   1   43.82    3.60
  16 -13   1   33.56    3.66
 -16 -13  -1   32.09    4.86
  17  13   1    6.63    2.68
  17 -13   1   10.57    2.87
 -17 -13  -1   11.91    3.34
  18  13   1   51.69    4.17
  18 -13   1   34.55    4.14
 -18 -13  -1   39.59    3.93
  18  14  -1    2.06    2.62
  18 -14  -1    0.97    3.11
  17  14  -1   23.64    3.11
  17 -14  -1   25.49    3.58
  16  14  -1    3.80    2.66
  16 -14  -1    3.44    3.07
  15  14  -1   30.85    3.28
  15 -14  -1   36.40    3.85
  14 -14  -1    6.75    3.10
  13 -14  -1   15.49    3.36
  12 -14  -1   -0.21    2.70
  11  14  -1   46.42    4.28
  11 -14  -1   52.43    5.31
  10  14  -1    1.88    3.37
   9  14  -1  154.12    7.39
   9 -14  -1  158.24    7.50
  -9 -14   1  156.69    7.22
   8 -14  -1    1.44    2.44
  -8 -14   1    0.50    2.23
   7  14  -1   17.95    2.66
   7 -14  -1   22.98    3.29
  -7 -14   1   23.98    3.05
  -6  14   1    5.82    1.92
   6  14  -1    5.45    4.73
   6 -14  -1    6.75    2.70
  -6 -14   1    4.02    2.33
  -5  14   1    1.12    2.00
   5  14  -1    1.77    2.31
   5 -14  -1    1.30    2.39
  -5 -14   1    0.39    2.45
  -4  14   1    3.81    2.28
   4  14  -1    4.20    2.25
   4 -14  -1    2.05    1.95
   4 -14  -1    1.50    2.64
  -4 -14   1    1.46    2.43
   3  14  -1   21.71    2.69
  -3  14   1   20.49    2.66
   3 -14  -1   24.76    2.58
   3 -14  -1   27.88    3.40
  -3 -14   1   28.14    3.24
   2  14  -1    7.32    2.08
  -2  14   1    6.78    2.05
   2 -14  -1    6.44    2.08
   2 -14  -1    6.23    2.66
  -2 -14   1    5.33    2.58
   1  14  -1   22.39    2.73
  -1  14   1   21.11    2.53
   1 -14  -1   23.72    2.65
   1 -14  -1   24.48    3.29
  -1 -14   1   25.97    3.14
   0  14  -1   12.10    2.33
   0  14   1    7.57    2.36
   0 -14  -1   10.60    2.91
   0 -14   1    9.58    2.78
  -1  14  -1   -0.13    1.88
   1  14   1   -1.52    1.84
   1 -14   1    2.20    2.50
  -1 -14  -1   -0.28    2.23
  -2  14  -1    3.18    2.06
   2  14   1    3.46    2.07
   2 -14   1    3.68    2.09
   2 -14   1    5.96    2.69
  -2 -14  -1    3.90    2.50
   3 -14   1    0.10    1.86
   3 -14   1    0.18    2.44
  -3 -14  -1    0.58    2.45
   4  14   1   72.45    5.89
   4 -14   1   67.86    5.35
   4 -14   1   69.36    5.61
   4 -14   1   72.10    5.99
  -4 -14  -1   69.23    5.79
   5 -14   1    0.50    1.74
   5 -14   1   -0.35    2.35
  -5 -14  -1    1.36    2.31
   6  14   1   77.14   12.85
   6 -14   1   92.75    6.91
   6 -14   1   93.03    7.10
  -6 -14  -1   99.64    7.46
   7  14   1  165.28    7.51
   7 -14   1  182.25    6.55
   7 -14   1  188.03    7.11
  -7 -14  -1  185.99    7.13
   8  14   1   37.21    3.08
   8 -14   1   38.25    3.53
  -8 -14  -1   35.70    3.49
   9  14   1    0.37    2.12
   9 -14   1    0.55    2.59
  -9 -14  -1    1.76    2.71
  10  14   1   15.14    2.80
  10 -14   1   16.25    3.10
 -10 -14  -1   17.91    3.18
  11  14   1    6.35    2.59
  11 -14   1    7.98    2.98
 -11 -14  -1    8.79    3.80
  12  14   1   72.56    4.12
  12 -14   1   75.90    4.62
 -12 -14  -1   78.54    6.24
  13 -14   1   35.66    3.97
 -13 -14  -1   41.96    8.35
  14 -14   1   76.54    5.02
 -14 -14  -1   79.22    8.89
  15 -14   1   60.22    4.41
 -15 -14  -1   60.00    7.78
  16  14   1   49.25    3.81
  16 -14   1   49.22    4.46
 -16 -14  -1   50.06    8.20
  17  14   1   55.05    4.07
  17 -14   1   60.27    4.65
 -17 -14  -1   56.02    4.61
  18  14   1   26.23    3.50
  18 -14   1   32.28    4.63
 -18 -14  -1   29.59    3.91
  17  15  -1    7.69    3.24
  17 -15  -1    9.18    3.39
  16  15  -1   12.65    3.04
  16 -15  -1    7.61    3.00
  15 -15  -1    1.87    3.31
  14 -15  -1   13.72    3.57
  13 -15  -1    1.06    3.20
  12  15  -1   46.30    3.88
  12 -15  -1   41.31    4.18
  11  15  -1    7.44    2.77
  11 -15  -1    8.05    2.92
 -11 -15   1    9.64    4.21
  10  15  -1   44.73    4.12
  10 -15  -1   34.59    3.96
 -10 -15   1   33.39    3.97
   9  15  -1   39.83    7.14
   9 -15  -1   36.47    4.12
  -9 -15   1   41.72    4.01
   8  15  -1   39.04    6.25
  -8 -15   1   26.98    3.34
   7  15  -1   40.07    5.33
  -7 -15   1   41.18    3.50
   6  15  -1   68.28    7.86
   6 -15  -1   54.50    4.02
   6 -15  -1   50.17    4.08
  -6 -15   1   51.77    4.04
  -5  15   1    4.18    2.14
   5 -15  -1    6.29    2.81
  -5 -15   1    6.57    2.55
  -4  15   1   56.64    4.26
   4  15  -1   52.24    3.67
   4 -15  -1   47.63    4.07
  -4 -15   1   47.11    3.88
  -3  15   1    5.72    2.18
   3  15  -1    7.27    2.42
   3 -15  -1    4.02    2.75
  -3 -15   1    6.30    2.83
   2  15  -1  130.89    5.95
  -2  15   1  132.70    5.74
   2 -15  -1  119.73    5.15
   2 -15  -1  113.09    5.54
  -2 -15   1  114.99    5.55
   1  15  -1    7.84    2.19
  -1  15   1    7.85    2.28
   1 -15  -1    9.56    2.68
  -1 -15   1   10.97    2.56
   0  15  -1  113.84    4.81
   0  15   1  109.31    4.61
   0 -15   1  106.95    7.93
   0 -15  -1  101.82    7.77
  -1  15  -1   65.62    4.47
   1  15   1   61.77    4.39
   1 -15   1   65.27    4.75
  -1 -15  -1   64.92    4.81
  -2  15  -1  101.70    4.80
   2  15   1  101.44    4.67
   2 -15   1   96.18    5.75
  -2 -15  -1   98.76    4.92
   3 -15   1    1.21    2.39
   3 -15   1    1.36    2.79
  -3 -15  -1    1.31    2.54
   4  15   1  124.44    8.17
   4 -15   1  116.75    5.17
   4 -15   1  116.80    6.14
  -4 -15  -1  116.04    5.65
   5  15   1   48.59    8.22
   5 -15   1   56.42    4.46
   5 -15   1   53.45    4.56
  -5 -15  -1   53.09    4.19
   6  15   1  100.39    5.97
   6 -15   1   82.35    5.47
   6 -15   1   82.40    5.72
  -6 -15  -1   85.16    5.89
   7 -15   1    1.33    2.65
  -7 -15  -1    1.74    2.24
   8  15   1   57.98    5.53
   8 -15   1   53.24    5.41
  -8 -15  -1   49.97    4.11
   9  15   1    0.91    2.48
   9 -15   1    0.28    2.92
  -9 -15  -1   -0.67    2.90
  10  15   1   10.72    3.02
  10 -15   1   10.09    2.93
 -10 -15  -1   10.39    3.33
  11  15   1    0.69    2.65
  11 -15   1    1.25    3.34
  12  15   1   32.51    3.33
  12 -15   1   31.34    3.74
 -12 -15  -1   26.20    3.97
  13  15   1    6.25    2.67
  13 -15   1    5.43    2.55
 -13 -15  -1    4.47    2.88
  14 -15   1    2.59    2.97
 -14 -15  -1    2.78    3.94
  15 -15   1    6.59    3.01
 -15 -15  -1    4.92    3.53
  16 -15   1    8.79    3.62
 -16 -15  -1    8.19    3.33
  16 -16  -1    5.62    3.49
  15 -16  -1    5.67    3.66
  14 -16  -1    7.84    3.16
  13  16  -1   -0.76    2.57
  13 -16  -1   -0.25    3.14
 -13 -16   1    2.49    3.78
  12  16  -1    0.34    2.57
  12 -16  -1    1.89    3.21
 -12 -16   1    1.13    2.90
  11  16  -1   10.24    2.96
  11 -16  -1    9.64    3.20
 -11 -16   1    7.43    2.92
  10  16  -1   10.11    2.89
  10 -16  -1    7.18    2.92
 -10 -16   1    6.52    2.64
   9  16  -1    3.13    2.49
   9 -16  -1    4.58    2.86
  -9 -16   1    5.98    2.92
   8  16  -1    6.20    2.48
   8 -16  -1    5.53    3.36
  -8 -16   1    7.11    2.95
   7  16  -1   -0.87    3.62
   7 -16  -1   -0.82    2.62
  -7 -16   1   -2.64    2.66
   6  16  -1    0.43    2.14
   6 -16  -1    1.21    2.72
  -6 -16   1    0.64    2.38
  -5  16   1   -0.24    1.83
   5  16  -1    0.23    2.37
   5 -16  -1   -0.15    2.49
  -5 -16   1   -1.55    2.86
  -4  16   1    4.71    2.56
   4  16  -1    5.02    2.27
   4 -16  -1    3.08    2.46
  -4 -16   1    3.72    2.81
   3  16  -1   31.12    3.15
  -3  16   1   30.01    3.28
   3 -16  -1   27.87    3.43
  -3 -16   1   29.19    3.46
   2  16  -1    6.13    2.40
  -2  16   1    4.49    2.22
   2 -16  -1   10.32    2.86
  -2 -16   1    7.34    2.42
   1  16  -1    6.50    2.50
  -1  16   1    4.94    2.41
   1 -16  -1    6.32    2.85
  -1 -16   1    5.93    2.55
   0  16  -1    1.92    2.39
   0  16   1    1.80    2.07
   0 -16   1    0.56    2.15
  -1  16  -1   -0.24    2.38
   1  16   1    0.58    2.55
   1 -16   1    0.22    2.66
  -1 -16  -1    0.09    2.11
  -2  16  -1    2.06    2.25
   2  16   1    0.66    2.12
   2 -16   1    4.39    2.91
  -2 -16  -1    3.40    2.79
   3 -16   1    0.74    2.55
   3 -16   1   -1.24    2.77
  -3 -16  -1    0.31    2.18
   4  16   1   13.70    3.34
   4 -16   1   10.00    2.60
   4 -16   1   11.42    3.33
  -4 -16  -1   12.03    3.07
   5  16   1    6.03    2.50
   5 -16   1    4.31    2.20
   5 -16   1    5.49    3.19
  -5 -16  -1    2.41    2.24
   6  16   1    0.56    2.48
   6 -16   1    2.59    2.70
  -6 -16  -1    3.11    2.18
   7 -16   1    0.38    2.82
  -7 -16  -1    1.95    2.63
   8  16   1   45.18    3.49
   8 -16   1   42.28    4.22
  -8 -16  -1   43.34    3.98
   9  16   1    4.37    2.58
   9 -16   1    2.25    3.26
  -9 -16  -1    1.88    2.92
  10  16   1   19.43    2.82
  10 -16   1   20.80    3.51
 -10 -16  -1   18.47    3.18
  11  16   1    0.25    2.53
  11 -16   1    2.46    3.31
 -11 -16  -1    1.16    3.29
  12  16   1    2.83    2.65
  12 -16   1    3.40    2.90
 -12 -16  -1    5.43    3.15
  13  16   1    1.04    3.09
  13 -16   1   -1.10    2.78
 -13 -16  -1    0.53    4.11
  14  16   1    4.26    3.01
  14 -16   1   10.33    3.73
 -14 -16  -1    8.19    3.78
  15 -16   1    5.00    3.39
 -15 -16  -1    3.39    3.42
  14  17  -1   48.71    3.91
  14 -17  -1   53.95    4.55
 -14 -17   1   57.32    8.93
  13  17  -1   28.91    3.70
  13 -17  -1   26.46    3.63
 -13 -17   1   28.64    8.80
  12  17  -1   74.38    4.39
  12 -17  -1   73.85    4.94
 -12 -17   1   71.87    4.58
  11  17  -1    3.86    2.75
  11 -17  -1    5.91    3.13
 -11 -17   1    6.35    3.44
  10  17  -1   66.69    4.08
  10 -17  -1   68.91    4.65
 -10 -17   1   67.92    4.40
   9 -17  -1    3.20    3.44
  -9 -17   1    2.11    3.09
   8  17  -1   48.60    3.79
   8 -17  -1   58.84    4.76
  -8 -17   1   61.77    4.43
   7  17  -1    9.72    5.86
   7 -17  -1    7.30    2.91
  -7 -17   1    8.64    3.01
   6  17  -1   54.87    3.97
   6 -17  -1   65.31    4.72
  -6 -17   1   71.00    4.45
   5 -17  -1    4.42    2.67
  -5 -17   1    3.99    3.04
  -4  17   1   96.00    5.02
   4  17  -1   94.54    5.50
   4 -17  -1   89.61    5.36
  -4 -17   1   93.91    5.39
   3  17  -1   27.33    6.99
  -3  17   1   26.91    3.12
   3 -17  -1   29.42    3.65
  -3 -17   1   26.33    3.54
   2  17  -1   75.29    6.60
  -2  17   1   75.19    6.46
   2 -17  -1   80.93    7.29
  -2 -17   1   85.86    7.57
   1  17  -1   25.04    3.05
  -1  17   1   24.37    3.17
   1 -17  -1   24.92    3.62
  -1 -17   1   23.58    3.65
   0  17  -1   37.78    3.85
   0  17   1   35.30    3.52
   0 -17   1   38.65    4.27
   0 -17  -1   41.44    4.43
  -1  17  -1    1.67    2.13
   1  17   1    0.32    2.36
   1 -17   1   -0.40    2.58
  -1 -17  -1   -0.45    2.74
  -2  17  -1   31.86    3.54
   2  17   1   30.19    5.13
   2 -17   1   26.50    3.54
  -2 -17  -1   27.60    3.67
   3  17   1   13.24    5.69
   3 -17   1   20.59    3.12
   3 -17   1   27.24    3.41
  -3 -17  -1   20.45    3.37
   4  17   1   39.58    5.74
   4 -17   1   33.12    3.31
   4 -17   1   34.76    3.91
  -4 -17  -1   34.47    3.66
   5  17   1   23.97    4.33
   5 -17   1   25.59    3.90
  -5 -17  -1   26.63    3.71
   6  17   1   12.66    4.95
   6 -17   1   16.88    3.31
  -6 -17  -1   16.15    3.39
   7  17   1   16.42    7.11
   7 -17   1   19.49    3.70
  -7 -17  -1   21.24    3.36
   8  17   1   29.86    3.21
   8 -17   1   27.10    3.81
  -8 -17  -1   29.83    3.52
   9  17   1    2.91    2.50
   9 -17   1    1.62    3.19
  -9 -17  -1    4.06    2.90
  10  17   1   14.39    2.92
  10 -17   1   19.05    3.84
 -10 -17  -1   17.72    3.55
  11  17   1   31.14    3.45
  11 -17   1   37.83    3.97
 -11 -17  -1   43.84    6.79
  12  17   1   12.85    3.17
  12 -17   1   11.33    3.32
 -12 -17  -1   12.84    8.29
  13  17   1   33.17    3.72
  13 -17   1   27.43    3.84
 -13 -17  -1   33.49    5.03
  14  17   1   12.70    3.25
  14 -17   1   10.43    3.66
 -14 -17  -1   12.66    3.69
  13  18  -1    4.04    3.03
  13 -18  -1    6.82    3.58
 -13 -18   1    5.04    3.27
  12  18  -1    4.10    2.78
  12 -18  -1    3.63    3.57
 -12 -18   1    1.17    3.31
  11  18  -1   18.94    2.96
  11 -18  -1   17.94    3.66
 -11 -18   1   24.53    3.53
  10  18  -1    6.55    4.13
  10 -18  -1    7.11    3.28
 -10 -18   1    5.41    3.55
   9  18  -1    0.78    3.59
   9 -18  -1    1.31    2.85
  -9 -18   1    1.84    2.85
   8  18  -1    1.02    2.64
   8 -18  -1    0.90    2.87
  -8 -18   1    1.79    2.93
   7  18  -1    1.44    2.60
   7 -18  -1    2.53    2.94
  -7 -18   1    4.73    3.35
   6  18  -1   -0.40    2.42
   6 -18  -1    0.64    3.07
  -6 -18   1   -1.06    2.80
   5  18  -1    8.43    2.79
   5 -18  -1    9.61    3.36
  -5 -18   1    8.52    3.12
   4  18  -1    4.03    3.41
   4 -18  -1    4.52    3.00
  -4 -18   1    2.98    2.92
  -3  18   1    1.77    2.28
   3  18  -1    0.20    2.58
   3 -18  -1    1.83    2.89
  -3 -18   1    0.37    2.78
   2  18  -1   15.76    2.76
  -2  18   1   15.87    3.00
   2 -18  -1   15.98    3.37
  -2 -18   1   14.05    3.13
   1  18  -1    3.06    2.20
  -1  18   1    1.76    2.19
  -1 -18   1    1.52    3.38
   1 -18  -1    1.44    2.80
   0  18  -1    4.89    2.60
   0  18   1    5.40    2.51
   0 -18  -1    7.40    3.20
   0 -18   1    5.06    3.13
  -1  18  -1    2.44    2.39
   1  18   1    0.68    2.37
   1 -18   1    2.30    2.77
  -1 -18  -1    4.23    3.24
   2 -18   1    1.80    2.26
   2 -18   1    0.55    2.91
  -2 -18  -1    3.53    3.29
   3  18   1   43.84    3.70
   3 -18   1   47.33    3.70
   3 -18   1   41.98    3.57
  -3 -18  -1   42.93    4.04
   4  18   1    3.93    3.43
   4 -18   1    3.17    2.94
  -4 -18  -1    2.61    2.87
   5  18   1    5.36    4.04
   5 -18   1    9.41    3.44
  -5 -18  -1    9.35    3.17
   6  18   1    9.85    3.51
   6 -18   1    8.14    3.81
  -6 -18  -1   12.74    3.32
   7  18   1   11.81    2.89
   7 -18   1   15.06    3.41
  -7 -18  -1   17.68    3.31
   8 -18   1    8.14    3.26
  -8 -18  -1    3.42    3.39
   9  18   1   39.69    4.56
   9 -18   1   41.40    4.18
  -9 -18  -1   40.34    4.64
  10  18   1   12.94    2.91
  10 -18   1   10.82    3.69
 -10 -18  -1   10.96    3.79
  11  18   1   22.27    3.20
  11 -18   1   26.54    3.81
 -11 -18  -1   24.76    3.86
  12  18   1    2.60    2.69
  12 -18   1    0.72    3.80
 -12 -18  -1    0.69    3.59
  10  19  -1  117.40    5.20
  10 -19  -1  103.11    5.69
 -10 -19   1   97.92    5.05
   9 -19  -1   -1.95    3.87
   8  19  -1  157.74    5.73
   8 -19  -1  148.72    6.29
  -8 -19   1  146.13    6.04
   7 -19  -1    1.07    2.72
  -7 -19   1   -0.06    3.19
   6  19  -1  138.08    5.40
   6 -19  -1  140.19    6.02
  -6 -19   1  135.53    6.17
   5 -19  -1   -0.07    2.95
  -5 -19   1   -1.01    3.23
   4  19  -1  107.50    5.04
   4 -19  -1   96.55    5.54
  -4 -19   1  103.19    5.29
   3  19  -1    0.03    2.86
   3 -19  -1    0.06    3.21
  -3 -19   1   -0.31    3.30
   2  19  -1  128.93    5.14
   2 -19  -1  116.78    5.69
  -2 -19   1  122.53    5.46
   1  19  -1    0.43    2.95
  -1  19   1   -0.21    2.55
   1 -19  -1    2.29    3.04
  -1 -19   1   -0.47    3.18
   0  19  -1  116.50    4.86
   0  19   1  113.87    4.79
   0 -19   1  120.85    5.53
   0 -19  -1  116.82    5.38
  -1  19  -1    1.87    2.39
   1  19   1    2.79    2.71
   1 -19   1   -0.64    3.32
  -1 -19  -1    0.51    2.90
   2  19   1  100.68    4.69
   2 -19   1   89.46    4.92
  -2 -19  -1   93.77    5.04
   3 -19   1   -0.65    2.99
  -3 -19  -1   -0.13    2.95
   4  19   1   99.49    5.51
   4 -19   1   94.69    5.37
  -4 -19  -1   97.78    5.21
   5 -19   1    7.07    3.51
  -5 -19  -1    5.62    3.46
   6  19   1   66.59    3.98
   6 -19   1   63.67    4.66
  -6 -19  -1   57.64    4.51
   7 -19   1    4.45    3.35
  -7 -19  -1    4.63    3.41
   8  19   1   35.77    3.78
   8 -19   1   33.37    4.13
  -8 -19  -1   32.49    4.04
   9  19   1   17.41    6.32
   9 -19   1   19.21    4.06
  -9 -19  -1   17.22    6.88
  10  19   1   27.25    3.41
  10 -19   1   23.22    3.83
 -10 -19  -1   20.74    3.55
   8 -20  -1    7.42    4.14
  -8 -20   1    3.43    4.18
   7  20  -1   15.56    3.03
   7 -20  -1   15.98    3.62
  -7 -20   1   13.42    3.67
   6 -20  -1    0.73    3.06
  -6 -20   1    0.03    2.75
   5  20  -1    0.12    3.00
   5 -20  -1   -0.65    3.49
  -5 -20   1    0.00    3.34
   4  20  -1    2.50    3.23
   4 -20  -1    0.76    3.11
  -4 -20   1   -1.97    3.35
   3  20  -1   -0.32    2.76
   3 -20  -1   -0.55    2.97
  -3 -20   1   -0.96    3.15
   2  20  -1   -0.23    2.58
   2 -20  -1    2.18    3.49
  -2 -20   1    1.48    3.10
   1  20  -1    1.02    2.92
   1 -20  -1    1.67    2.98
  -1 -20   1    2.45    2.95
   0  20  -1    2.92    2.68
   0  20   1    2.63    2.50
   0 -20   1    1.41    3.80
   0 -20  -1    2.48    3.25
   1  20   1   18.74    3.13
   1 -20   1   18.80    3.80
  -1 -20  -1   17.30    3.46
   2  20   1   -0.28    2.87
   2 -20   1   -2.20    2.91
  -2 -20  -1    1.61    3.27
   3  20   1   14.68    3.22
   3 -20   1   15.23    3.32
  -3 -20  -1   19.34    3.82
   4  20   1    2.13    3.70
   4 -20   1    0.11    3.49
  -4 -20  -1    0.87    3.26
   5  20   1    6.62    2.97
   5 -20   1   10.26    3.43
  -5 -20  -1    7.61    3.63
   6 -20   1    8.26    3.67
  -6 -20  -1    7.00    3.42
   7  20   1   14.89    5.69
   7 -20   1   19.52    3.74
  -7 -20  -1   18.81    3.91
   2  21  -1    6.55    3.13
   2 -21  -1    1.66    3.26
  -2 -21   1    6.24    3.63
   1  21  -1    2.15    2.82
  -1 -21   1    2.90    3.71
   1 -21  -1    1.82    3.46
   0 -21   1    3.46    3.64
   0 -21  -1    2.72    3.32
   1 -21   1   13.54    3.89
  -1 -21  -1   16.84    3.61
 -25   0   2    0.56    3.66
  23   0  -2   -0.70    2.99
  22   0  -2  217.00    7.57
  21   0  -2   -0.86    2.40
  20   0  -2   99.75    4.43
  20   0  -2   95.98    4.88
  19   0  -2    5.23    5.36
  19   0  -2    7.36    2.40
  18   0  -2   38.10    3.26
 -18   0   2   34.54    3.00
  18   0  -2   36.26    3.38
 -17   0   2    3.58    2.03
  17   0  -2    5.05    2.20
  16   0  -2  999.53   13.29
 -16   0   2 1003.39   13.08
  16   0  -2  990.98   33.07
 -15   0   2   48.73    3.83
  15   0  -2   50.98    4.27
  14   0  -2  284.93   10.47
 -14   0   2  301.99   10.50
  14   0  -2  284.64   11.21
 -13   0   2   -0.43    1.61
  13   0  -2    0.28    1.91
 -13   0   2   -0.65    2.16
  12   0  -2  518.76   12.84
 -12   0   2  500.29   12.40
  12   0  -2  506.86   13.01
 -12   0   2  510.05   13.29
 -11   0   2   10.27    1.87
  11   0  -2   11.35    2.05
 -11   0   2   10.43    1.83
  10   0  -2  376.14   12.16
 -10   0   2  391.88   12.35
  10   0  -2  389.78   12.81
 -10   0   2  413.95   13.51
   9   0  -2    1.46    1.37
  -9   0   2    1.40    1.25
   9   0  -2    1.15    1.46
  -9   0   2    0.18    1.43
   8   0  -2  405.56   11.00
  -8   0   2  395.55    9.41
   8   0  -2  382.68   11.22
  -8   0   2  376.49    9.62
   7   0  -2   40.19    2.76
  -7   0   2   39.26    3.29
   7   0  -2   34.61    3.16
  -7   0   2   35.27    3.23
   6   0  -2   84.39    6.25
  -6   0   2   85.05    5.91
   6   0  -2   82.78    5.99
  -6   0   2   83.81    5.99
   5   0  -2   48.14    3.88
  -5   0   2   55.15    4.28
   5   0  -2   43.11    3.01
  -5   0   2   35.74    3.23
  -4   0   2   12.51    1.83
  -4   0   2   14.33    1.97
   4   0  -2   13.70    1.92
  -4   0   2   14.18    2.01
  -3   0   2  321.72    8.83
   3   0  -2  319.52    8.87
  -3   0   2  300.27    8.72
  -3   0   2  318.11    9.11
  -2   0   2  457.07   11.23
   2   0  -2  463.50   11.35
  -2   0   2  469.59   11.70
   1   0  -2  223.87    7.10
  -1   0   2  214.06    6.41
   1   0  -2  197.25   12.35
   0   0   2  686.80   15.17
   0   0  -2  694.43   15.33
  -1   0  -2  785.37   16.67
   2   0   2  159.41    9.99
   2   0   2  170.61   10.75
  -2   0  -2  156.82    9.87
   3   0   2    4.35    1.44
  -3   0  -2    4.67    1.30
   3   0   2   14.50    2.05
  -3   0  -2   12.70    1.84
   4   0   2  400.02   10.58
  -4   0  -2  392.08   10.60
   4   0   2  442.61   11.39
  -4   0  -2  445.18   12.03
   5   0   2    0.67    1.01
  -5   0  -2    0.38    1.18
   5   0   2   -0.05    0.95
  -5   0  -2   -0.16    1.25
   6   0   2  596.40   14.06
  -6   0  -2  587.94   13.93
   6   0   2  576.24   14.02
  -6   0  -2  551.11   13.45
   7   0   2  111.98    5.64
   7   0   2  141.79    8.05
   8   0   2  634.35   12.69
  -8   0  -2  638.91   13.27
   8   0   2  605.20   12.86
  -8   0  -2  588.11   14.33
   9   0   2   24.07    2.61
  -9   0  -2   23.86    2.55
   9   0   2   21.70    2.66
  -9   0  -2   23.22    2.81
  10   0   2  458.45   10.56
 -10   0  -2  459.79   10.47
  10   0   2  463.89   11.35
 -10   0  -2  438.03   12.59
  11   0   2   36.05    3.01
 -11   0  -2   30.56    2.65
  11   0   2   41.45    3.17
 -11   0  -2   45.62    3.71
  12   0   2  255.55    9.11
 -12   0  -2  259.27    9.70
  12   0   2  238.66    9.07
  13   0   2   64.65    3.96
 -13   0  -2   54.55    3.43
  13   0   2   69.31    4.39
  14   0   2  191.02    7.61
 -14   0  -2  212.86    8.27
  15   0   2   39.76    3.18
 -15   0  -2   35.70    3.14
  16   0   2  228.58    6.93
  17   0   2    7.68    2.23
  18   0   2    4.51    2.26
  19   0   2   40.02    4.01
  20   0   2   18.34    3.12
  21   0   2  132.41    5.11
  25  -1  -2   27.58    4.02
 -25  -1   2   28.20    4.13
  24  -1  -2    1.90    3.15
 -24  -1   2    1.74    3.01
  23  -1  -2   26.82    3.78
 -23  -1   2   29.43    3.79
  22  -1  -2    0.10    2.87
  21   1  -2   29.37    3.14
  21  -1  -2   38.52    3.69
  20   1  -2   -0.50    2.07
  20   1  -2    2.17    2.50
  20  -1  -2    1.33    2.17
  19  -1  -2   18.01    2.46
  19   1  -2   19.46    2.71
  18  -1  -2    1.46    2.89
  18   1  -2    3.00    3.76
 -18  -1   2    1.96    2.28
  18   1  -2    1.21    2.37
  18  -1  -2    2.60    2.28
  17  -1  -2   12.74    2.46
  17   1  -2   14.00    2.43
 -17  -1   2   14.74    2.41
 -17   1   2   14.02    2.42
  17   1  -2   14.74    2.41
  17  -1  -2   14.43    2.73
  16  -1  -2    1.64    2.30
  16   1  -2    1.45    2.03
 -16  -1   2    1.29    2.17
 -16   1   2    0.67    1.99
  16   1  -2    2.76    2.08
  16  -1  -2    1.94    2.26
  15  -1  -2    5.04    2.20
  15   1  -2    4.68    1.95
 -15  -1   2    8.32    2.18
 -15   1   2    6.67    2.09
  15   1  -2    8.32    2.31
  15  -1  -2    7.98    2.32
  14  -1  -2   85.76    4.59
  14   1  -2   91.09    4.73
 -14  -1   2   95.94    4.66
 -14   1   2   85.32    4.40
  14   1  -2   90.48    5.48
  14  -1  -2   94.51    5.03
  13  -1  -2    0.62    3.36
  13   1  -2    2.49    1.67
 -13  -1   2    2.24    1.74
 -13   1   2    1.99    1.52
  13   1  -2    2.53    2.07
  13  -1  -2    3.62    2.03
 -13  -1   2    3.05    2.19
 -13   1   2    3.76    1.98
  12  -1  -2  116.98    5.72
  12   1  -2  117.77    5.34
 -12  -1   2  112.23    4.85
 -12   1   2  113.24    4.88
  12   1  -2  114.45    5.59
  12  -1  -2  112.80    5.58
 -12  -1   2  113.16    5.20
 -12   1   2  118.35    5.38
  11   1  -2    7.15    2.39
 -11  -1   2    7.44    1.73
 -11   1   2    7.76    2.03
  11   1  -2    7.08    1.86
  11  -1  -2    7.16    1.97
 -11  -1   2    6.41    2.08
 -11   1   2    7.21    1.94
  10  -1  -2   46.05    3.13
  10   1  -2   46.61    3.04
 -10  -1   2   46.08    2.97
 -10   1   2   48.67    3.59
  10   1  -2   49.11    3.84
  10  -1  -2   48.33    3.76
 -10  -1   2   47.43    3.72
 -10   1   2   49.24    3.81
   9  -1  -2    6.97    1.75
   9   1  -2    8.13    1.66
  -9  -1   2    6.66    1.75
  -9   1   2    6.51    1.67
   9   1  -2    5.46    1.64
   9  -1  -2    5.91    1.85
  -9  -1   2    5.62    1.91
  -9   1   2    5.52    1.79
   8  -1  -2   87.14    4.98
   8   1  -2   84.09    4.68
  -8   1   2   96.94    5.05
  -8  -1   2   92.79    4.89
   8   1  -2   93.12    5.51
  -8  -1   2   96.78    5.76
   8  -1  -2   91.79    7.62
  -8   1   2  100.57    5.34
   7  -1  -2   13.85    1.87
   7   1  -2   15.76    2.01
  -7   1   2   14.68    2.08
  -7  -1   2   14.76    2.00
   7   1  -2   14.02    2.07
   7  -1  -2   13.84    2.16
  -7  -1   2   14.13    2.04
  -7   1   2   12.42    2.21
   6  -1  -2   70.82    5.18
   6   1  -2   67.72    5.54
  -6   1   2   70.21    5.16
  -6  -1   2   69.46    5.08
  -6  -1   2   83.49    5.99
   6  -1  -2   90.81    6.52
  -6   1   2   99.75    6.86
   5   1  -2    3.39    1.17
  -5   1   2    3.94    1.35
  -5  -1   2    3.34    1.33
  -5   1   2    3.05    1.13
  -5  -1   2    3.78    1.35
   5  -1  -2    3.24    1.17
  -5   1   2    2.52    1.27
  -5  -1   2    2.76    1.36
   4   1  -2   26.71    2.58
  -4   1   2   13.99    1.92
  -4  -1   2   20.26    2.38
   4  -1  -2   14.65    2.02
  -4   1   2   15.41    2.12
  -4  -1   2   17.63    2.24
  -3  -1   2    2.69    1.00
  -3   1   2    2.63    1.12
   3  -1  -2    2.61    1.35
  -3  -1   2    2.69    1.31
  -3   1   2    2.69    1.13
  -3  -1   2    2.91    1.40
   3   1  -2    2.73    1.44
  -2   1   2   62.96    4.78
   2  -1  -2   64.74    4.88
   2   1  -2   63.65    4.87
   2  -1  -2   68.48    6.57
  -2   1   2   67.77    5.12
  -2  -1   2   66.21    5.02
   2   1  -2   67.61    5.39
  -1   1   2   81.81    5.82
   1  -1  -2   79.61    5.69
   1  -1  -2   79.28    5.80
  -1  -1   2  102.52    7.04
   1   1  -2   98.96    6.91
   0  -1  -2   68.43    5.10
   0  -1  -2   86.62    6.25
   0  -1   2   98.04    6.74
   0   1  -2   92.04    6.50
   1  -1   2    2.52    1.13
   1   1   2    2.47    1.12
  -1  -1  -2    1.34    1.10
   1  -1   2    2.55    1.07
  -1   1  -2    1.70    1.06
   2  -1   2    5.54    1.52
  -2   1  -2    6.35    1.55
   2   1   2    3.58    1.39
  -2  -1  -2    2.46    1.19
   2  -1   2    3.83    1.15
  -2   1  -2    3.83    1.42
   3   1   2  317.47    8.95
   3  -1   2  325.29    9.03
  -3   1  -2  317.22    9.03
   3   1   2  313.84    9.09
  -3  -1  -2  313.36    9.28
   3  -1   2  310.79    8.95
  -3   1  -2  314.79    9.45
   4   1   2    4.73    1.20
  -4  -1  -2    5.93    1.65
   4  -1   2    7.12    1.59
  -4   1  -2    4.74    1.59
   4   1   2    2.37    1.34
  -4  -1  -2    0.70    1.37
   4  -1   2    0.23    1.12
  -4   1  -2    3.01    1.36
   5   1   2    0.75    1.06
  -5  -1  -2    0.89    1.07
   5  -1   2    1.07    1.07
  -5   1  -2   -0.03    1.25
   5   1   2   -0.52    1.21
  -5  -1  -2    1.25    1.18
   5  -1   2    1.42    1.24
  -5   1  -2    0.56    1.01
   6   1   2   91.08    6.34
   6  -1   2   87.70    6.17
  -6  -1  -2   85.70    6.07
  -6   1  -2   85.66    6.04
   6   1   2   99.21    7.14
  -6  -1  -2  110.73    7.54
   6  -1   2  112.98    8.00
  -6   1  -2   96.79    6.68
   7   1   2   67.91    4.13
   7  -1   2   70.38    4.23
  -7  -1  -2   63.61    3.89
  -7   1  -2   67.38    4.10
   7   1   2   70.24    4.67
   7  -1   2   68.04    4.28
  -7  -1  -2   73.30    4.51
  -7   1  -2   71.18    4.64
   8   1   2  314.68    8.43
   8  -1   2  315.27    8.31
  -8  -1  -2  302.25    8.36
  -8   1  -2  319.82    8.28
   8   1   2  298.59    8.75
   8  -1   2  312.20    9.24
  -8  -1  -2  302.55   10.27
  -8   1  -2  296.65   10.12
   9   1   2   20.45    2.47
   9  -1   2   22.99    2.68
  -9  -1  -2   22.82    2.40
  -9   1  -2   27.26    2.77
   9   1   2   21.50    2.68
   9  -1   2   13.94    2.28
  -9  -1  -2   11.82    2.26
  -9   1  -2   16.56    2.20
  10   1   2    7.68    1.84
  10  -1   2    6.94    1.80
 -10  -1  -2    5.92    1.95
 -10   1  -2    6.33    1.95
  10   1   2    7.27    2.16
  10  -1   2   10.89    2.11
 -10  -1  -2   16.09    2.42
 -10   1  -2    9.24    1.85
  11   1   2   27.07    3.27
  11  -1   2   27.46    3.31
 -11  -1  -2   21.61    2.94
 -11   1  -2   22.01    3.12
  11   1   2   27.72    3.33
  11  -1   2   36.02    3.16
 -11  -1  -2   45.50    3.91
 -11   1  -2   35.07    3.17
  12   1   2   36.25    3.14
  12  -1   2   35.75    3.19
 -12  -1  -2   36.59    3.31
 -12   1  -2   36.15    3.23
  12   1   2   38.14    3.49
  13   1   2  155.46    5.75
  13  -1   2  150.35    6.31
 -13  -1  -2  150.08    6.92
 -13   1  -2  142.16    6.03
  13   1   2  156.24    5.83
  14   1   2  116.69    6.81
  14  -1   2  114.36    6.67
 -14  -1  -2  114.35    6.83
 -14   1  -2  119.40    7.17
  14   1   2  112.04    6.91
  15   1   2   28.24    2.98
  15  -1   2   31.55    2.92
 -15   1  -2   29.16    3.09
  15   1   2   28.94    3.24
  16  -1   2  118.53    4.80
  16   1   2  114.75    5.59
 -16   1  -2  113.14    4.91
  17   1   2    0.83    2.01
  17  -1   2    0.29    2.14
  18  -1   2   26.07    2.80
  18   1   2   25.47    2.93
  19   1   2   69.99    6.29
  19  -1   2   70.56    6.24
  20  -1   2   21.44    2.81
  20   1   2   22.48    3.09
  21   1   2   39.06    3.75
  24  -2  -2   23.29    3.77
 -24  -2   2   24.46    3.79
  23  -2  -2   -2.16    3.06
 -23  -2   2    2.04    3.38
  22   2  -2   23.24    3.26
  22  -2  -2   26.21    3.22
 -22  -2   2   27.57    3.40
  21   2  -2    0.15    2.33
  21  -2  -2    0.50    2.82
 -21  -2   2   -0.26    2.86
  20   2  -2   78.48    6.76
  20  -2  -2   76.36    6.89
 -20  -2   2   75.98    6.98
  19   2  -2    1.85    2.35
 -19  -2   2    0.79    2.50
  18  -2  -2   90.87    5.33
  18   2  -2   87.83    5.17
  18  -2  -2   91.80    5.90
 -18  -2   2   90.37    5.69
  17   2  -2   10.30    2.15
 -17   2   2    9.76    2.37
  17  -2  -2   10.16    2.65
  16  -2  -2   10.33    2.55
  16   2  -2   10.94    2.74
 -16  -2   2    8.11    2.50
 -16   2   2    9.62    2.22
  16  -2  -2    7.72    2.31
  15  -2  -2    1.52    2.39
  15   2  -2    0.52    2.86
 -15  -2   2    1.75    1.78
 -15   2   2    1.79    1.81
  15  -2  -2    2.73    1.99
  14  -2  -2  136.91    6.06
  14   2  -2  138.27    5.92
 -14  -2   2  134.82    5.80
 -14   2   2  137.70    5.87
  14  -2  -2  133.85    6.53
  13   2  -2    1.67    1.70
 -13  -2   2    1.12    1.64
 -13   2   2    1.04    1.60
  13  -2  -2    0.91    2.08
 -13  -2   2    1.44    2.20
 -13   2   2    0.83    2.07
  12  -2  -2   11.99    2.73
  12   2  -2   12.47    2.20
 -12  -2   2   10.66    2.34
 -12   2   2    9.50    2.05
  12  -2  -2   10.98    2.27
 -12  -2   2    8.53    2.16
 -12   2   2    8.91    2.33
  11  -2  -2    9.22    3.71
  11   2  -2    9.55    2.40
 -11  -2   2   10.89    1.99
 -11   2   2   10.94    1.88
  11  -2  -2   11.13    1.96
 -11  -2   2   10.39    2.22
 -11   2   2   10.59    2.15
 -11  -2   2   11.85    1.94
  10   2  -2   20.24    4.31
 -10  -2   2   20.60    2.43
 -10   2   2   19.42    2.34
 -10  -2   2   20.33    2.50
  10  -2  -2   19.65    2.78
 -10   2   2   20.06    2.45
 -10  -2   2   17.09    2.44
   9   2  -2  264.70   10.66
  -9  -2   2  248.18   10.23
  -9   2   2  260.10   10.13
  -9  -2   2  251.74   10.54
   9  -2  -2  244.98   10.85
  -9   2   2  247.75   10.78
  -9  -2   2  245.28   10.02
   8   2  -2  221.09    9.07
  -8  -2   2  208.83    8.63
  -8   2   2  201.10    8.34
  -8  -2   2  192.18    8.39
   8  -2  -2  177.87    9.27
  -8   2   2  193.65    8.40
  -8  -2   2  183.94    8.32
   7   2  -2   12.87    1.96
  -7  -2   2   12.68    1.91
  -7   2   2   13.11    1.96
  -7   2   2   10.74    1.96
  -7  -2   2   11.88    2.20
   7  -2  -2   10.37    1.87
  -7   2   2   11.39    1.87
  -7  -2   2   11.68    2.03
   6   2  -2    6.27    1.41
  -6   2   2    5.52    1.62
  -6  -2   2    4.79    1.21
  -6   2   2    2.49    1.27
  -6  -2   2    3.93    1.41
   6  -2  -2    2.31    1.39
  -6   2   2    3.68    1.45
  -6  -2   2    2.95    1.22
  -5   2   2    6.60    1.56
   5   2  -2    5.28    1.18
  -5  -2   2    6.17    1.38
  -5   2   2   10.09    1.74
   5  -2  -2   13.14    1.94
  -5   2   2    9.50    1.69
  -5  -2   2   10.22    1.88
   5   2  -2   11.74    1.94
   4   2  -2  122.64    8.12
  -4  -2   2  127.57    8.50
  -4   2   2  130.05    8.39
   4  -2  -2  126.01    8.17
   4  -2  -2  123.42    8.18
  -4   2   2  129.52    8.42
  -4  -2   2  127.49    8.37
   4   2  -2  128.53    8.54
   3   2  -2   23.39    2.37
  -3   2   2   26.29    2.69
   3  -2  -2   29.00    2.81
  -3   2   2   34.39    3.14
  -3  -2   2   33.42    3.15
   3   2  -2   37.05    3.39
  -2   2   2   70.84    5.20
   2  -2  -2   70.88    5.23
  -2   2   2   75.69    5.60
  -2  -2   2   74.65    5.50
   2   2  -2   72.55    5.46
  -1   2   2  222.60    7.12
   1  -2  -2  211.52   12.69
  -1  -2   2  191.53   11.79
   1   2  -2  183.46   11.41
  -1   2   2  189.00   11.57
   0   2   2    3.19    1.35
   0  -2  -2    3.19    1.25
   0  -2   2    1.71    1.22
   0  -2   2    3.32    1.33
   0   2  -2    2.25    1.35
   0   2   2    2.01    1.22
  -1  -2  -2  309.58    8.60
   1  -2   2  301.64    8.57
  -1   2  -2  292.44    8.48
  -1  -2  -2  303.67    8.73
   1  -2   2  303.64    8.80
  -1   2  -2  313.86    9.19
  -1  -2  -2  279.53    8.44
   2  -2   2   14.06    2.05
  -2   2  -2   16.66    2.10
  -2  -2  -2   16.17    2.12
   2  -2   2   17.44    2.24
  -2   2  -2   21.79    2.47
  -2  -2  -2   19.89    2.40
   3  -2   2    0.79    1.04
  -3   2  -2    0.56    1.02
   3   2   2    2.93    1.22
  -3  -2  -2    2.09    1.32
   3  -2   2    2.37    1.31
  -3   2  -2    5.13    1.50
   4   2   2   15.39    2.05
   4  -2   2   12.69    1.89
  -4   2  -2   12.90    1.98
   4   2   2   15.64    2.22
  -4  -2  -2   18.08    2.32
   4  -2   2   19.20    2.24
  -4   2  -2   17.34    2.25
   5   2   2   65.14    5.55
  -5  -2  -2   65.90    5.06
   5  -2   2   67.53    5.07
  -5   2  -2   67.89    5.07
   5   2   2   64.70    6.25
  -5  -2  -2   65.58    5.09
   5  -2   2   62.84    5.12
  -5   2  -2   65.41    5.08
   6   2   2    2.03    1.17
  -6  -2  -2    1.49    1.17
   6  -2   2    1.74    1.24
  -6   2  -2    1.62    1.44
   6   2   2    1.31    1.38
  -6  -2  -2    0.55    1.29
   6  -2   2    2.31    1.35
  -6   2  -2    0.85    1.13
   7   2   2    0.23    0.96
  -7  -2  -2   -0.31    1.25
   7  -2   2   -0.01    1.14
  -7   2  -2    0.44    1.32
   7   2   2   -0.19    1.36
  -7  -2  -2   -0.39    1.33
   7  -2   2    1.08    1.40
  -7   2  -2   -0.04    1.44
   8   2   2  127.03    6.83
   8  -2   2  129.53    8.08
  -8  -2  -2  128.55    7.25
  -8   2  -2  131.11    6.90
   8   2   2  136.27    7.49
  -8  -2  -2  135.90    7.66
   8  -2   2  130.43    7.16
  -8   2  -2  129.47    7.55
   9   2   2    3.25    1.51
   9  -2   2    3.21    1.80
  -9  -2  -2    3.40    1.42
  -9   2  -2    3.57    1.80
   9   2   2    4.19    1.78
  -9  -2  -2    0.91    1.65
   9  -2   2    1.39    1.58
  -9   2  -2    2.62    1.67
  10   2   2   46.78    4.49
  10  -2   2   46.43    4.37
 -10  -2  -2   47.30    4.40
 -10   2  -2   48.84    4.50
  10   2   2   46.31    4.45
 -10  -2  -2   39.56    4.23
 -10   2  -2   42.87    4.30
  11   2   2   52.84    3.40
  11  -2   2   52.90    3.56
 -11  -2  -2   53.86    3.51
 -11   2  -2   56.44    3.71
  11   2   2   53.22    3.58
 -11  -2  -2   45.96    3.43
 -11   2  -2   52.05    3.93
  12   2   2   52.69    3.80
  12  -2   2   58.53    4.02
 -12  -2  -2   54.69    3.97
 -12   2  -2   57.79    4.00
  12   2   2   56.15    4.05
  13   2   2   10.66    2.07
  13  -2   2   11.64    2.32
 -13  -2  -2    9.02    2.16
 -13   2  -2   10.26    2.46
  13   2   2   13.24    2.71
  14   2   2   69.50    3.80
  14  -2   2   72.57    3.86
 -14   2  -2   69.94    3.81
  14   2   2   69.90    4.09
  15   2   2   16.11    2.44
  15  -2   2   15.68    2.44
 -15   2  -2   14.65    2.69
  15   2   2   14.64    2.73
  16   2   2    1.17    2.17
  16  -2   2    1.60    2.21
 -16   2  -2    2.12    2.37
  16   2   2    1.58    2.39
  17   2   2   -0.18    2.11
  17  -2   2    1.18    1.86
  17   2   2    0.96    2.15
  18   2   2   36.92    3.17
  18  -2   2   36.73    3.24
  19   2   2    1.80    2.40
  19  -2   2    0.10    2.26
  20   2   2   11.71    2.89
  21   2   2    0.83    2.45
  22   2   2    0.05    2.52
 -23  -2  -2    1.91    3.04
  24  -3  -2   -0.96    3.29
 -24  -3   2    1.52    3.44
  23  -3  -2    1.59    2.93
 -23  -3   2    0.99    3.40
  22   3  -2   -0.05    2.55
  22  -3  -2    1.49    3.10
 -22  -3   2    1.24    2.90
  21   3  -2    3.63    2.17
  21  -3  -2    5.05    2.84
 -21  -3   2    5.65    2.80
  20   3  -2    6.38    2.58
  20  -3  -2    4.98    2.57
 -20  -3   2    4.19    2.56
  19   3  -2    2.94    2.12
  19  -3  -2    3.92    2.23
 -19  -3   2    5.10    2.68
  18   3  -2   38.02    3.20
  18  -3  -2   37.61    3.61
 -18  -3   2   37.96    3.75
  17   3  -2   13.55    2.20
  17  -3  -2   12.09    2.91
 -17  -3   2   13.31    2.64
  16   3  -2   26.72    2.93
 -16   3   2   27.55    2.81
  16  -3  -2   27.15    3.13
 -16  -3   2   30.10    3.30
  15   3  -2    1.06    1.78
 -15  -3   2    2.13    1.83
 -15   3   2    1.89    1.86
  15  -3  -2    2.63    2.06
 -15  -3   2    3.98    2.68
  14   3  -2  102.08    5.02
 -14  -3   2   96.69    4.97
 -14   3   2   99.49    4.90
  14  -3  -2  102.26    5.37
 -14  -3   2  104.27    5.29
  13   3  -2   -0.30    1.66
 -13  -3   2    0.42    1.83
 -13   3   2    0.63    1.67
 -13  -3   2    0.16    1.86
  13  -3  -2    0.15    1.85
 -13   3   2    0.19    1.84
 -13  -3   2    2.08    1.89
  12   3  -2   18.83    2.71
 -12  -3   2   19.12    2.75
 -12   3   2   20.44    2.87
 -12  -3   2   19.25    2.72
  12  -3  -2   18.28    2.81
 -12   3   2   19.66    2.90
 -12  -3   2   20.35    3.11
  11   3  -2    7.55    2.75
 -11  -3   2    8.22    1.82
 -11   3   2    8.60    1.76
 -11  -3   2    8.46    1.84
  11  -3  -2    9.57    1.82
 -11   3   2    9.23    2.05
 -11  -3   2    9.46    2.01
  10  -3  -2    1.83    1.22
  10   3  -2    1.35    1.57
 -10  -3   2    1.30    1.70
 -10   3   2    1.71    1.36
 -10  -3   2    1.35    1.63
  10  -3  -2    1.74    1.55
 -10   3   2    1.68    1.63
 -10  -3   2    0.88    1.62
   9   3  -2    9.69    1.81
  -9  -3   2   10.12    1.98
  -9   3   2   11.87    2.05
  -9   3   2   13.42    2.01
  -9  -3   2   11.45    2.09
   9  -3  -2   15.23    2.21
  -9   3   2   10.93    2.08
  -9  -3   2   12.77    2.22
   8   3  -2  253.33   10.14
  -8  -3   2  236.87    9.75
  -8   3   2  254.24   10.19
  -8  -3   2  249.52   10.28
   8  -3  -2  249.53   10.21
  -8   3   2  246.76   10.09
  -8  -3   2  240.65    9.80
   7   3  -2   16.81    2.09
  -7  -3   2   19.83    2.26
  -7   3   2   23.28    2.47
  -7  -3   2   22.11    2.54
   7  -3  -2   25.49    2.62
  -7   3   2   22.99    2.60
  -7  -3   2   25.24    2.70
  -6   3   2    2.45    1.27
   6   3  -2    2.87    1.27
  -6  -3   2    2.97    1.42
  -6   3   2    2.93    2.39
   6  -3  -2    4.26    1.43
  -6   3   2    3.25    1.53
  -6  -3   2    3.69    1.49
   6   3  -2    3.79    1.38
   5   3  -2  228.94    7.26
  -5  -3   2  223.79    7.06
  -5   3   2  213.10    6.25
   5  -3  -2  183.36   11.20
   5  -3  -2  199.26   12.29
  -5   3   2  189.96   11.59
  -5  -3   2  178.42   11.09
   5   3  -2  192.74   11.90
   4   3  -2   22.46    2.40
  -4   3   2   22.88    2.51
   4  -3  -2   21.00    2.45
   4  -3  -2   22.48    2.53
  -4   3   2   20.17    2.37
  -4  -3   2   20.11    2.47
   4   3  -2   20.80    2.40
  -3   3   2   13.94    1.94
   3  -3  -2   14.62    2.03
   3  -3  -2   12.49    1.88
  -3   3   2   11.53    2.07
  -3  -3   2   11.89    2.03
   3   3  -2   11.96    2.10
  -2   3   2  316.43    8.79
   2  -3  -2  312.92    8.71
   2  -3  -2  286.52    8.79
  -2   3   2  328.20    9.20
  -2  -3   2  337.15    9.57
   2   3  -2  321.94    9.23
  -1  -3   2  151.90    9.56
  -1   3   2  160.49   10.00
   1  -3  -2  151.31    9.51
  -1  -3   2  170.44   10.50
  -1  -3   2  172.53   10.81
   1  -3  -2  133.43    8.78
   1   3  -2  180.80   11.41
  -1   3   2  168.83   10.52
   0   3   2  146.69    9.29
   0  -3  -2  147.99    9.32
   0  -3   2  118.81    7.81
   0   3  -2  128.56    8.49
   0  -3   2  127.21    8.40
   0   3  -2  122.00    8.16
   0  -3  -2  125.54    8.28
   0   3   2  122.13    8.05
   1   3   2   17.33    2.10
  -1  -3  -2   18.03    2.18
   1  -3   2   14.19    2.03
  -1   3  -2   11.76    1.88
   1  -3   2   12.48    2.03
  -1   3  -2   14.73    2.21
  -1  -3  -2   13.28    2.00
   1   3   2   14.14    2.10
  -2  -3  -2   13.40    1.77
   2  -3   2   10.94    1.80
  -2   3  -2    9.88    1.65
   2  -3   2    9.75    1.68
  -2   3  -2    7.59    1.69
  -2  -3  -2    9.14    1.75
   2   3   2    8.90    1.91
  -3  -3  -2    4.78    1.31
   3  -3   2    5.89    1.44
  -3   3  -2    5.75    1.55
  -3  -3  -2    6.35    1.65
   3  -3   2    6.54    1.64
  -3   3  -2    6.04    1.59
  -3  -3  -2    6.78    1.59
   4  -3   2   88.76    6.21
  -4   3  -2   84.30    5.92
  -4  -3  -2   87.09    6.17
   4  -3   2   81.96    5.93
  -4   3  -2   79.74    5.86
  -4  -3  -2   81.06    6.05
   5   3   2   90.06    6.28
   5  -3   2   96.86    6.68
  -5   3  -2   94.01    6.48
  -5  -3  -2   92.82    6.51
   5  -3   2   88.93    6.31
  -5   3  -2   85.67    6.06
  -5  -3  -2   81.34    6.38
   6   3   2   52.14    3.63
  -6  -3  -2   51.51    3.86
   6  -3   2   48.54    3.62
  -6   3  -2   51.33    3.61
  -6  -3  -2   54.96    4.02
   6  -3   2   53.05    3.83
  -6   3  -2   53.20    3.96
   7   3   2   39.92    3.14
  -7  -3  -2   37.63    3.52
   7  -3   2   40.99    3.22
  -7   3  -2   40.40    3.19
   7   3   2   38.99    3.23
  -7  -3  -2   38.10    3.13
   7  -3   2   36.73    3.17
  -7   3  -2   38.06    3.11
   8   3   2   40.48    3.30
  -8  -3  -2   39.77    3.37
   8  -3   2   40.45    3.45
  -8   3  -2   42.80    3.37
   8   3   2   37.95    3.33
  -8  -3  -2   35.91    3.38
   8  -3   2   32.59    3.13
  -8   3  -2   37.84    3.73
   9   3   2   27.10    2.69
   9  -3   2   26.40    2.51
  -9  -3  -2   25.94    2.59
  -9   3  -2   26.65    2.68
   9   3   2   24.70    2.65
  -9  -3  -2   22.91    2.52
  -9   3  -2   25.14    2.72
  10   3   2    4.32    1.69
  10  -3   2    4.77    1.72
 -10  -3  -2    4.72    1.93
 -10   3  -2    4.46    1.81
  10   3   2    7.79    2.16
 -10  -3  -2    7.59    2.24
 -10   3  -2    5.51    1.80
  11   3   2   13.43    2.30
  11  -3   2   13.60    2.28
 -11  -3  -2   13.04    2.10
 -11   3  -2   13.13    2.23
  11   3   2   12.76    2.21
 -11  -3  -2   12.06    2.45
 -11   3  -2   12.45    2.48
  12   3   2    7.39    1.98
  12  -3   2    7.59    1.89
 -12  -3  -2    7.38    2.09
 -12   3  -2    8.18    2.07
  12   3   2    8.63    2.35
  13   3   2    6.05    2.04
  13  -3   2    7.24    2.00
 -13   3  -2    6.51    2.02
  13   3   2    7.99    2.28
  14   3   2    9.57    2.20
  14  -3   2    9.42    2.39
 -14   3  -2    9.45    2.64
  14   3   2    9.00    2.43
  15   3   2    7.26    2.48
  15  -3   2    9.37    2.40
 -15   3  -2    9.51    2.42
  15   3   2    8.67    2.57
  16   3   2   69.47    5.66
  16  -3   2   69.41    5.62
 -16   3  -2   71.54    5.65
  16   3   2   68.87    5.95
  17   3   2  116.31    5.15
  17  -3   2  113.80    5.00
  17   3   2  110.99    5.36
  18   3   2    1.68    2.16
  18  -3   2    1.30    2.31
  18   3   2    2.71    2.43
  19   3   2   -0.05    2.29
  20   3   2   -0.25    2.34
 -20  -3  -2    0.13    3.01
  21   3   2    0.05    2.39
 -21  -3  -2    1.37    3.24
  22   3   2    1.07    2.93
 -22  -3  -2    1.09    2.94
  23   3   2    7.36    2.79
  23  -3   2    6.89    3.59
 -23  -3  -2    6.09    3.45
  24  -4  -2   67.00    4.96
 -24  -4   2   61.82    4.64
  23   4  -2    4.12    2.52
  23  -4  -2    6.57    3.15
 -23  -4   2    4.97    3.08
  22   4  -2   92.23    4.50
  22  -4  -2   90.67    5.42
 -22  -4   2   88.46    4.92
  21   4  -2    6.22    2.62
  21  -4  -2    7.16    3.04
 -21  -4   2   10.71    3.23
  20   4  -2   94.91    4.98
  20  -4  -2   87.88    4.69
 -20  -4   2   91.72    5.38
  19   4  -2   13.72    2.71
  19  -4  -2   13.11    3.12
 -19  -4   2   14.38    3.26
  18   4  -2  128.00    5.36
  18  -4  -2  119.48    6.01
 -18  -4   2  122.27    5.59
  17   4  -2    1.81    2.62
  17  -4  -2    2.89    2.12
 -17  -4   2    3.48    2.86
  16  -4  -2  140.26    5.84
  16   4  -2  148.33    6.03
 -16   4   2  150.31    6.20
  16  -4  -2  142.23    6.26
 -16  -4   2  149.67    6.36
  15   4  -2    8.25    6.75
 -15   4   2    8.03    2.77
  15  -4  -2   10.85    2.62
 -15  -4   2   11.57    2.85
  14  -4  -2  360.80   12.63
  14   4  -2  394.26   12.84
 -14  -4   2  381.20   12.87
 -14   4   2  371.68   12.39
  14  -4  -2  392.71   13.43
 -14  -4   2  400.15   13.48
 -13  -4   2    1.04    1.78
 -13   4   2    1.02    3.82
  13  -4  -2    1.33    2.08
 -13   4   2    1.49    2.06
 -13  -4   2    1.10    2.12
  12   4  -2  541.43   16.23
 -12  -4   2  504.39   16.06
 -12   4   2  514.91   15.71
 -12  -4   2  513.19   16.90
  12  -4  -2  506.44   16.31
 -12   4   2  505.62   15.78
 -12  -4   2  516.02   16.13
 -11  -4   2    1.59    1.55
 -11  -4   2    0.78    1.86
  11  -4  -2    1.18    1.83
 -11   4   2    1.15    2.04
 -11  -4   2    2.11    1.76
  10   4  -2  332.65    8.72
 -10  -4   2  325.01    9.07
 -10   4   2  329.15    9.16
 -10   4   2  318.17    9.16
 -10  -4   2  331.05    9.43
  10  -4  -2  335.57    9.29
 -10   4   2  330.55    9.24
 -10  -4   2  327.64    8.90
  -9  -4   2   -0.01    1.54
  -9   4   2    0.66    1.45
  -9  -4   2    0.88    1.41
   9  -4  -2    0.19    1.49
  -9   4   2    0.54    1.57
  -9  -4   2    1.30    1.62
   8   4  -2  707.55   13.56
  -8  -4   2  745.52   14.58
  -8  -4   2  727.28   15.45
   8  -4  -2  742.85   14.90
  -8   4   2  746.18   14.53
  -8  -4   2  748.87   14.54
   7   4  -2   19.18    2.18
  -7  -4   2   21.48    2.38
   7  -4  -2   22.35    2.46
  -7   4   2   25.59    2.60
  -7  -4   2   24.98    2.70
   7   4  -2   24.99    2.62
  -6   4   2  109.13    5.54
   6   4  -2  103.50    5.26
  -6  -4   2   98.60    5.80
  -6   4   2   93.30   10.30
   6  -4  -2   93.36    5.21
  -6   4   2   85.39    4.77
  -6  -4   2   83.56    4.86
   6   4  -2   87.50    4.98
   5  -4  -2   37.31    3.86
   5  -4  -2   34.17    3.18
  -5   4   2   41.63    2.98
  -5  -4   2   41.33    3.03
   5   4  -2   35.30    3.37
  -4   4   2  250.97    7.59
   4  -4  -2  245.25    7.68
   4  -4  -2  250.62    8.05
  -4   4   2  258.00    7.88
  -4  -4   2  255.33    7.88
   4   4  -2  256.45    8.20
   3  -4  -2    5.22    1.48
   3  -4  -2    5.32    1.51
  -3   4   2    4.79    1.65
  -3  -4   2    5.03    1.63
   3   4  -2    4.89    1.64
  -2  -4   2 1114.34   21.35
  -2   4   2 1143.39   21.83
   2  -4  -2 1137.69   21.81
   2  -4  -2 1074.37   21.59
  -2   4   2 1106.14   21.59
  -2  -4   2 1106.45   21.71
   2   4  -2 1102.95   21.93
  -1   4   2   30.19    2.82
   1  -4  -2   28.96    2.76
  -1  -4   2   46.63    4.06
   1  -4  -2   47.02    4.11
  -1   4   2   42.02    3.34
   0  -4   2 1920.45   33.57
   0   4   2 1854.39   32.83
   0  -4  -2 1863.86   32.64
   0  -4   2 1782.25   31.57
   0  -4   2 1825.08   32.74
   0   4  -2 1698.13   30.85
   0  -4  -2 1730.30   31.51
   0   4   2 1817.62   32.21
   1  -4   2  399.63   10.25
   1   4   2  392.38   10.09
  -1  -4  -2  396.05   10.00
   1  -4   2  350.82    9.41
   1  -4   2  358.80    9.89
  -1   4  -2  362.78   10.02
  -1  -4  -2  363.83    9.95
   1   4   2  349.66    9.51
   2   4   2  197.79   12.07
  -2  -4  -2  195.25   11.78
   2  -4   2  199.35   12.13
  -2   4  -2  213.59    6.24
   2  -4   2  211.22   12.85
  -2   4  -2  204.60   12.47
  -2  -4  -2  219.78    7.03
   2   4   2  204.93   12.43
  -3  -4  -2  153.76    9.95
   3  -4   2  161.49   10.10
  -3   4  -2  197.29   11.93
   3  -4   2  181.32   11.26
  -3   4  -2  192.08   11.82
  -3  -4  -2  187.99   11.78
   3   4   2  183.42   11.30
  -4  -4  -2  117.39    8.03
   4  -4   2  123.11    8.09
  -4   4  -2  132.82    8.50
  -4  -4  -2  126.59    8.26
   4  -4   2  132.13    8.64
  -4   4  -2  137.74    9.37
  -4  -4  -2  127.59    8.42
   5  -4   2    1.55    1.49
  -5   4  -2    1.36    1.60
  -5  -4  -2    1.24    1.06
   5  -4   2    1.47    1.14
  -5   4  -2    1.60    1.48
  -5  -4  -2    2.12    1.75
   6   4   2  206.07    8.54
   6  -4   2  225.00    9.24
  -6   4  -2  213.24    8.83
  -6  -4  -2  213.95    9.15
   6  -4   2  192.08    8.96
  -6   4  -2  201.80    9.27
  -6  -4  -2  201.35    8.62
   7   4   2   41.89    3.34
  -7  -4  -2   44.04    2.99
   7  -4   2   38.03    3.18
  -7   4  -2   43.72    3.59
  -7  -4  -2   44.20    3.30
  -7   4  -2   49.93    4.07
  -7  -4  -2   51.90    3.82
   8   4   2  212.52    7.95
  -8  -4  -2  205.52    8.99
   8  -4   2  212.43    8.94
  -8   4  -2  212.50    8.01
  -8  -4  -2  202.42    8.46
  -8   4  -2  199.27    8.13
  -8  -4  -2  193.13    9.52
   9   4   2  348.29    8.95
  -9  -4  -2  351.21    9.60
   9  -4   2  331.95   11.19
  -9   4  -2  343.66    9.10
  -9  -4  -2  363.19   10.03
  -9   4  -2  360.22    9.82
  -9  -4  -2  374.31   10.53
  10   4   2  103.36    5.33
  10  -4   2  102.20    4.75
 -10  -4  -2   98.24    4.79
 -10   4  -2  101.76    4.70
 -10  -4  -2   97.43    4.77
 -10   4  -2   95.27    4.93
 -10  -4  -2   92.06    4.61
  11   4   2  121.90    7.35
  11  -4   2  123.54    6.39
 -11  -4  -2  123.09    6.67
 -11   4  -2  123.98    6.39
 -11  -4  -2  141.63    6.85
  12   4   2  246.56    9.36
  12  -4   2  233.10    8.97
 -12   4  -2  240.84    9.06
 -12  -4  -2  204.98    8.45
  13   4   2   76.63    5.38
  13  -4   2   75.21    5.06
 -13   4  -2   71.17    5.09
 -13  -4  -2   95.37    6.25
  14   4   2  118.36    4.95
  14  -4   2  113.41    4.67
 -14   4  -2  123.92    4.82
 -14  -4  -2  105.03    5.02
  15   4   2  119.23    5.41
  15  -4   2  129.50    5.64
 -15   4  -2  116.92    5.27
 -15  -4  -2  132.59    6.03
  16   4   2   10.21    2.49
  16  -4   2   10.41    2.27
 -16  -4  -2    8.10    2.63
  17   4   2   10.31    2.77
  17  -4   2   12.00    2.76
 -17  -4  -2   13.04    2.84
  18   4   2   12.94    2.53
  18  -4   2   12.02    2.52
 -18  -4  -2   12.09    2.84
  19   4   2   42.50    3.55
 -19  -4  -2   49.89    3.89
  20   4   2    9.88    2.86
 -20  -4  -2    7.95    2.97
  21   4   2   76.07    4.62
  21  -4   2   79.23    4.71
 -21  -4  -2   87.01    4.87
  22   4   2    2.87    2.98
  22  -4   2    3.56    2.86
 -22  -4  -2    3.72    3.00
  23   4   2   23.91    3.36
  23  -4   2   27.78    4.04
 -23  -4  -2   30.45    3.99
  24  -5  -2   37.25    4.47
 -24  -5   2   36.55    4.22
  23   5  -2   51.79    3.67
  23  -5  -2   59.51    4.53
 -23  -5   2   61.90    4.83
  22   5  -2    1.34    2.80
  22  -5  -2    3.64    2.91
 -22  -5   2    3.58    3.04
  21   5  -2   35.22    3.18
  21  -5  -2   49.20    4.50
 -21  -5   2   53.84    4.43
  20   5  -2    4.61    2.32
  20  -5  -2    4.14    2.80
 -20  -5   2    6.89    3.31
  19   5  -2   26.74    3.00
  19  -5  -2   31.38    3.67
 -19  -5   2   37.14    4.12
  18   5  -2   25.79    2.82
  18  -5  -2   22.86    3.19
 -18  -5   2   21.83    3.38
  17   5  -2   25.51    3.02
  17  -5  -2   34.56    3.33
 -17  -5   2   33.14    3.27
  16   5  -2    4.54    2.58
  16  -5  -2    4.84    2.28
 -16  -5   2    3.17    2.44
  15   5  -2   23.79    2.68
 -15   5   2   26.36    3.92
  15  -5  -2   30.42    3.28
 -15  -5   2   34.10    3.48
  14   5  -2    0.19    1.96
 -14   5   2    0.78    2.38
  14  -5  -2    1.51    2.20
 -14  -5   2    1.92    2.56
  13   5  -2    1.12    1.69
  13  -5  -2    3.32    2.03
 -13  -5   2    2.67    2.15
  12   5  -2   -0.85    1.61
 -12  -5   2   -0.56    1.71
  12  -5  -2    1.44    1.91
 -12   5   2    0.74    1.92
 -12  -5   2    2.25    2.43
  11   5  -2   22.22    2.89
 -11  -5   2   27.65    3.16
 -11  -5   2   26.82    3.62
  11  -5  -2   35.95    3.10
 -11   5   2   33.38    3.02
 -11  -5   2   35.75    3.17
  10   5  -2   28.01    3.67
 -10  -5   2   24.46    2.54
 -10  -5   2   23.55    2.72
  10  -5  -2   20.93    2.56
 -10   5   2   22.52    2.56
 -10  -5   2   22.50    2.64
   9   5  -2    0.76    1.88
  -9  -5   2    0.29    1.61
  -9  -5   2    1.86    1.81
   9  -5  -2    2.72    1.46
  -9   5   2    2.23    1.82
  -9  -5   2    2.20    1.90
   8   5  -2   94.88    5.42
  -8  -5   2  106.28    6.09
   8  -5  -2  116.72    6.60
  -8   5   2  120.49    6.56
  -8  -5   2  128.24    7.01
   8   5  -2  121.47    6.80
   7   5  -2   30.33    2.62
  -7  -5   2   27.09    2.68
   7  -5  -2   26.80    2.91
  -7   5   2   28.42    2.85
  -7  -5   2   25.62    2.95
   7   5  -2   28.25    2.81
   6   5  -2  201.48    8.35
   6  -5  -2  193.93    8.45
   6  -5  -2  197.49    9.05
  -6   5   2  202.23    8.61
  -6  -5   2  187.57    8.17
   6   5  -2  192.08    8.65
  -5   5   2   25.21    5.23
   5  -5  -2   25.77    2.65
   5  -5  -2   26.88    2.76
  -5   5   2   28.64    2.81
  -5  -5   2   29.04    2.74
   5   5  -2   27.31    2.70
  -4   5   2   56.19    4.41
   4  -5  -2   57.01    4.48
   4  -5  -2   58.83    4.73
  -4   5   2   61.33    4.89
  -4  -5   2   57.60    4.65
   4   5  -2   64.09    5.21
   3  -5  -2    6.86    1.58
   3  -5  -2   19.78    2.75
  -3   5   2   15.49    2.43
  -3  -5   2   18.19    2.26
   3   5  -2   17.22    2.32
  -2   5   2  203.21   12.92
   2  -5  -2  202.80   12.21
   2  -5  -2  225.25    7.63
  -2  -5   2  246.11    7.91
  -2   5   2  251.54    7.72
   2   5  -2  228.05    7.55
   1   5  -2  624.02   14.53
  -1  -5   2  608.76   13.47
  -1   5   2  624.38   13.79
   1  -5  -2  630.34   13.88
  -1  -5   2  655.55   14.79
   1  -5  -2  629.34   14.65
   1   5  -2  638.19   14.76
  -1   5   2  629.77   14.07
   0  -5   2   36.88    3.10
   0   5   2   30.83    2.88
   0  -5  -2   31.18    2.89
   0  -5   2   29.05    2.79
   0  -5   2   30.03    3.05
   0   5  -2   27.22    3.01
   0  -5  -2   28.22    2.98
   0   5   2   28.19    2.90
   1  -5   2  245.74    7.41
   1   5   2  231.82    7.37
  -1  -5  -2  231.81    7.09
   1  -5   2  229.79    7.18
   1  -5   2  230.92    8.38
  -1   5  -2  225.58    7.39
  -1  -5  -2  228.57    7.49
   1   5   2  227.55    7.31
   2  -5   2    0.87    1.19
   2   5   2    1.01    1.13
  -2  -5  -2    1.32    1.03
   2  -5   2    4.27    1.36
   2  -5   2    4.07    1.45
  -2   5  -2    3.53    1.54
  -2  -5  -2    4.38    1.54
   2   5   2    2.83    1.57
  -3  -5  -2    0.30    1.19
   3  -5   2    0.77    1.30
  -3   5  -2    1.00    1.31
   3  -5   2    1.06    1.42
  -3   5  -2    0.58    1.38
  -3  -5  -2    1.75    1.43
   3   5   2    0.71    1.48
  -4  -5  -2  338.20    9.23
   4  -5   2  356.80    9.22
  -4   5  -2  363.45    8.84
   4  -5   2  320.12    8.68
  -4   5  -2  360.91    9.77
  -4  -5  -2  359.85    9.78
   4   5   2  350.80    8.92
  -5  -5  -2    1.18    1.42
   5  -5   2    0.73    1.37
  -5   5  -2    5.80    1.57
  -5  -5  -2    2.39    1.41
  -5   5  -2    5.67    1.87
  -5  -5  -2    3.80    1.64
   6  -5   2  385.18   12.43
  -6   5  -2  408.01   12.79
  -6  -5  -2  384.16   12.41
  -6   5  -2  396.78   13.37
  -6  -5  -2  399.67   12.89
   7   5   2  193.50    5.94
   7  -5   2  183.24    9.05
  -7   5  -2  212.09    8.00
  -7  -5  -2  190.92    9.34
  -7   5  -2  206.20    8.41
  -7  -5  -2  202.33    9.29
   8   5   2  147.02    5.41
  -8  -5  -2  144.33    7.10
   8  -5   2  144.82    5.51
  -8   5  -2  150.59    6.52
  -8  -5  -2  144.23    5.76
  -8   5  -2  149.43    6.36
  -8  -5  -2  146.04    5.74
   9   5   2    1.79    3.38
  -9  -5  -2    1.17    1.78
   9  -5   2    2.35    1.82
  -9   5  -2    1.15    1.77
  -9  -5  -2    1.87    1.51
  -9   5  -2    1.36    1.89
  -9  -5  -2    2.33    1.72
  10   5   2  495.06   12.35
 -10  -5  -2  488.39   12.89
  10  -5   2  490.59   12.57
 -10   5  -2  489.83   12.25
 -10  -5  -2  478.25   12.87
 -10   5  -2  463.12   13.49
 -10  -5  -2  487.59   13.62
  11   5   2   35.32    2.99
  11  -5   2   33.89    2.89
 -11   5  -2   35.42    3.02
 -11  -5  -2   41.68    3.42
  12   5   2  270.12    9.69
  12  -5   2  275.07    9.91
 -12   5  -2  273.40    9.77
 -12  -5  -2  271.58   10.03
  13   5   2   53.94    3.49
  13  -5   2   53.87    3.60
 -13   5  -2   52.47    3.48
 -13  -5  -2   61.40    4.07
  14   5   2   92.36    7.75
  14  -5   2   90.95    8.46
 -14   5  -2   92.51    7.75
 -14  -5  -2   85.28    7.40
  15   5   2   -0.89    1.95
 -15   5  -2   -0.78    2.15
 -15  -5  -2   -0.52    2.06
  16   5   2   23.73    2.86
  16  -5   2   26.26    2.73
 -16  -5  -2   20.52    2.89
  17   5   2   46.18    3.49
  17  -5   2   44.92    3.29
 -17  -5  -2   50.46    4.07
  18   5   2   49.01    4.25
 -18  -5  -2   46.12    4.52
  19   5   2   32.90    3.32
 -19  -5  -2   39.46    3.75
  20   5   2   30.82    3.33
  20  -5   2   22.18    3.27
 -20  -5  -2   20.97    3.36
  21   5   2   17.71    3.11
  21  -5   2   21.92    3.41
 -21  -5  -2   19.86    3.76
  22   5   2   28.32    3.30
  22  -5   2   23.72    3.63
 -22  -5  -2   19.97    3.57
  24   6  -2   41.87    3.58
  24  -6  -2   35.73    3.89
 -24  -6   2   36.38    4.21
  23   6  -2    6.32    3.04
  23  -6  -2    8.18    3.04
 -23  -6   2    7.78    3.55
  22   6  -2  117.69    5.07
  22  -6  -2  104.06    5.57
 -22  -6   2  104.38    5.07
  21   6  -2   -1.79    2.45
  21  -6  -2   -1.98    2.67
 -21  -6   2   -0.17    3.16
  20   6  -2  154.62    6.75
  20  -6  -2  135.31    6.57
 -20  -6   2  140.55    6.70
  19  -6  -2   -0.19    2.62
 -19  -6   2    0.44    2.87
  18   6  -2  278.90   10.27
  18  -6  -2  271.91   10.90
 -18  -6   2  271.76   10.45
  17  -6  -2    5.03    2.49
 -17  -6   2    7.15    2.84
  16   6  -2  307.83    7.32
  16  -6  -2  318.96    8.23
 -16  -6   2  318.24    8.19
  15   6  -2    0.09    2.06
  15  -6  -2    0.65    2.16
 -15  -6   2   -1.42    2.24
  14   6  -2  290.52   11.41
  14  -6  -2  289.07   11.79
 -14  -6   2  288.48   11.40
  13   6  -2   -1.01    1.78
  13  -6  -2   -0.36    2.02
 -13  -6   2   -0.94    2.21
  12   6  -2  228.26    8.87
  12  -6  -2  233.21    9.34
 -12   6   2  230.24    9.09
 -12  -6   2  236.94    9.26
 -11  -6   2    0.14    1.91
 -11  -6   2    1.09    2.15
  11  -6  -2    0.73    1.86
 -11   6   2    0.68    1.81
 -11  -6   2    2.55    2.06
  10   6  -2  502.52   12.40
 -10  -6   2  503.10   12.83
 -10  -6   2  498.37   13.81
  10  -6  -2  502.29   13.13
 -10   6   2  497.62   12.55
 -10  -6   2  512.23   13.21
   9   6  -2   30.18   13.16
  -9  -6   2   33.28    2.70
   9  -6  -2   34.00    2.96
  -9   6   2   37.10    3.03
  -9  -6   2   37.07    3.19
   9   6  -2   34.88    3.10
   8   6  -2  662.53   19.11
  -8  -6   2  661.80   20.20
   8  -6  -2  651.83   19.48
  -8   6   2  656.01   19.11
  -8  -6   2  675.22   19.65
   8   6  -2  643.99   20.05
   7   6  -2   62.70    4.12
   7  -6  -2   55.20    4.10
  -7   6   2   49.05    3.77
  -7  -6   2   50.60    3.92
   7   6  -2   50.79    4.11
   6  -6  -2 1537.76   25.19
   6  -6  -2 1517.71   24.23
  -6   6   2 1472.30   23.08
  -6  -6   2 1511.97   24.22
   6   6  -2 1466.72   24.65
  -5   6   2    0.64    1.22
   5  -6  -2    0.52    1.48
   5  -6  -2    0.35    1.40
  -5   6   2    0.30    1.54
  -5  -6   2    0.67    1.26
   5   6  -2    0.36    1.38
  -4  -6   2  442.48   10.18
  -4   6   2  434.42    9.88
   4  -6  -2  444.86   10.18
   4  -6  -2  444.05   10.66
  -4   6   2  451.66   10.49
  -4  -6   2  452.33   10.81
   4   6  -2  460.43   11.45
   3   6  -2    9.69    1.72
  -3  -6   2    8.80    1.69
  -3   6   2    9.98    1.74
   3  -6  -2    9.17    1.76
   3  -6  -2   11.42    1.98
  -3   6   2   11.50    2.05
  -3  -6   2   11.41    2.06
   3   6  -2   10.48    1.96
   2   6  -2  504.47   11.42
  -2  -6   2  500.45   10.63
  -2   6   2  488.73   10.65
   2  -6  -2  494.42   10.77
   2  -6  -2  471.93   11.23
  -2  -6   2  471.08   10.82
  -2   6   2  470.45   10.65
   2   6  -2  486.59   11.64
   1   6  -2    7.82    1.61
  -1  -6   2    6.80    1.70
  -1   6   2    4.00    2.89
   1  -6  -2    4.21    1.38
   1  -6  -2    3.11    1.67
  -1  -6   2    4.41    1.73
   1   6  -2    2.24    1.54
  -1   6   2    3.11    1.53
   0   6   2   46.61    3.36
   0  -6  -2   46.24    3.39
   0  -6   2   36.93    3.22
   0   6  -2   26.26    2.87
   0  -6  -2   27.25    2.80
   0   6   2   34.18    3.04
   1  -6   2    1.24    1.34
   1   6   2    0.20    1.62
  -1  -6  -2    0.03    1.25
   1  -6   2    0.00    1.28
   1  -6   2    1.60    1.24
  -1   6  -2   -0.39    1.57
  -1  -6  -2    3.55    2.30
   1   6   2    3.66    1.66
   2   6   2  901.74   16.32
  -2  -6  -2  902.38   16.13
   2  -6   2  875.83   16.01
   2  -6   2  826.81   15.65
  -2   6  -2  888.70   17.00
  -2  -6  -2  884.37   16.52
   2   6   2  852.74   15.58
   3  -6   2    4.90    1.46
  -3  -6  -2    5.76    1.57
   3  -6   2    9.48    1.89
  -3   6  -2    9.66    2.06
  -3  -6  -2    9.94    2.03
   3   6   2    8.52    1.97
   4  -6   2  995.91   16.94
   4   6   2  940.32   16.42
  -4  -6  -2  929.75   17.09
   4  -6   2  912.02   16.45
  -4   6  -2  902.31   17.00
  -4  -6  -2  898.97   16.50
   4   6   2  910.28   16.46
  -5  -6  -2   10.57    1.76
   5  -6   2    8.33    1.96
  -5   6  -2   18.99    2.41
  -5   6  -2   24.22    3.13
  -5  -6  -2   24.88    3.77
   5   6   2   19.55    2.52
  -6  -6  -2  668.42   20.33
   6  -6   2  744.48   21.22
  -6   6  -2  636.25   18.55
  -6  -6  -2  657.15   19.23
  -6   6  -2  644.47   19.70
  -6  -6  -2  633.45   18.81
   7  -6   2  367.87    9.43
  -7   6  -2  428.76   10.37
  -7  -6  -2  365.77    9.47
  -7   6  -2  414.30   11.36
  -7  -6  -2  409.03   10.73
   8   6   2  331.05    8.69
   8  -6   2  340.70    9.66
  -8   6  -2  302.18    8.21
  -8  -6  -2  323.11    9.12
  -8   6  -2  292.43    9.55
  -8  -6  -2  299.33    8.44
   9   6   2   60.49    3.63
  -9  -6  -2   62.87    3.88
   9  -6   2   59.71    3.61
  -9   6  -2   69.59    3.98
  -9  -6  -2   64.19    3.98
  -9   6  -2   69.08    4.90
  -9  -6  -2   68.48    4.12
  10   6   2  176.54    7.08
  10  -6   2  182.16    7.77
 -10   6  -2  165.58    6.77
 -10  -6  -2  150.84    6.83
  11   6   2   -0.62    1.71
  11  -6   2    0.74    1.80
 -11   6  -2    1.89    2.01
 -11  -6  -2    2.71    2.01
  12   6   2  115.14    6.85
  12  -6   2  111.64    6.56
 -12   6  -2   96.44    5.96
 -12  -6  -2   91.61    5.95
  13   6   2  100.71    4.46
  13  -6   2  104.81    4.68
 -13   6  -2  119.66    4.84
 -13  -6  -2  125.77    5.30
  14   6   2   68.49    6.21
  14  -6   2   67.75    6.93
 -14   6  -2   60.35    5.72
 -14  -6  -2   55.82    5.45
  15   6   2  131.60    5.07
  15  -6   2  134.98    5.08
 -15  -6  -2  137.58    5.44
  16   6   2   87.52    5.62
  16  -6   2   84.54    5.03
 -16  -6  -2   74.59    5.16
  17   6   2   78.37    6.80
 -17  -6  -2   88.36    7.65
  18   6   2   54.45    3.88
  18  -6   2   34.05    3.71
 -18  -6  -2   42.30    4.01
  19   6   2   38.58    3.40
  19  -6   2   48.03    4.06
 -19  -6  -2   51.37    4.20
  20   6   2   10.83    2.93
  20  -6   2    4.75    2.99
 -20  -6  -2    6.03    3.15
  21   6   2   26.75    3.44
  21  -6   2   31.74    4.00
 -21  -6  -2   32.63    3.85
  22  -6   2    4.07    3.17
 -22  -6  -2    3.15    3.45
  23   7  -2    0.62    2.66
  23  -7  -2   -0.25    3.24
 -23  -7   2   -0.66    3.14
  22   7  -2   31.98    3.22
  22  -7  -2   37.76    4.01
 -22  -7   2   34.63    3.71
  21   7  -2    5.95    2.90
  21  -7  -2    6.35    3.34
 -21  -7   2   10.35    3.19
  20   7  -2    2.64    2.32
  20  -7  -2    4.94    2.90
 -20  -7   2    5.26    2.77
  19   7  -2    5.43    2.67
  19  -7  -2    8.65    2.97
 -19  -7   2   11.83    3.17
  18   7  -2   11.38    2.51
  18  -7  -2    9.24    2.93
 -18  -7   2   11.26    3.17
  17   7  -2   14.58    2.57
  17  -7  -2   20.59    3.48
 -17  -7   2   18.45    3.15
  16   7  -2   19.92    2.70
  16  -7  -2   20.03    3.25
 -16  -7   2   19.73    3.06
  15   7  -2   12.12    2.89
  15  -7  -2   17.06    2.84
 -15  -7   2   14.67    2.73
  14   7  -2   46.34    4.85
  14  -7  -2   50.14    5.32
 -14  -7   2   47.39    4.89
  13   7  -2    8.33    2.07
  13  -7  -2   12.68    2.54
 -13  -7   2   15.43    2.78
  12   7  -2    1.64    1.51
  12  -7  -2    0.13    2.07
 -12  -7   2    0.33    2.51
  11   7  -2    3.23    1.70
  11  -7  -2    3.62    2.02
 -11   7   2    3.49    2.06
 -11  -7   2    2.74    2.13
  10   7  -2    2.78    1.54
 -10  -7   2    1.28    2.02
  10  -7  -2    1.87    1.86
 -10   7   2    1.26    1.98
 -10  -7   2    3.40    2.09
   9   7  -2   14.62    2.34
  -9  -7   2   17.65    2.82
   9  -7  -2   18.03    2.80
  -9   7   2   17.01    2.73
  -9  -7   2   19.99    3.00
   9   7  -2   17.66    2.88
   8   7  -2   12.15    1.89
   8  -7  -2   15.42    2.26
  -8   7   2   18.56    2.25
  -8  -7   2   18.10    2.79
   8   7  -2   17.48    2.72
   7  -7  -2   45.84    4.50
  -7   7   2   45.35    4.42
  -7  -7   2   48.71    4.64
   7   7  -2   45.36    4.53
   6  -7  -2    3.18    1.70
   6  -7  -2    2.42    1.98
  -6   7   2    2.14    1.75
  -6  -7   2    1.40    1.62
   6   7  -2    1.95    1.95
  -5  -7   2    0.69    1.13
  -5   7   2    0.68    1.41
   5  -7  -2    0.56    1.28
   5  -7  -2    0.53    1.85
  -5   7   2    0.48    1.57
  -5  -7   2   -0.24    1.36
   5   7  -2    1.83    1.89
   4   7  -2   51.47    3.57
  -4  -7   2   51.68    3.45
  -4   7   2   49.64    3.54
   4  -7  -2   52.11    3.64
   4  -7  -2   42.67    3.54
  -4   7   2   42.69    3.41
  -4  -7   2   42.57    3.48
   4   7  -2   41.06    3.44
   3   7  -2   49.10    3.58
  -3  -7   2   51.13    3.59
  -3   7   2   54.60    3.70
   3  -7  -2   53.33    3.70
   3  -7  -2   60.38    4.17
  -3   7   2   61.42    4.00
  -3  -7   2   64.96    4.32
   3   7  -2   58.55    3.92
   2   7  -2    4.15    1.74
  -2  -7   2    4.51    1.33
  -2   7   2    5.50    1.54
   2  -7  -2    4.67    1.63
   2  -7  -2    6.93    1.94
  -2  -7   2    6.02    1.88
  -2   7   2    4.78    1.89
   2   7  -2    6.81    1.79
   1   7  -2   29.78    2.74
  -1  -7   2   29.08    2.76
  -1   7   2   22.59    8.35
   1  -7  -2   22.22    2.51
   1  -7  -2   14.98    2.41
  -1  -7   2   14.80    2.10
   1   7  -2   15.96    2.38
  -1   7   2   16.83    2.49
   0   7  -2  563.29   11.64
   0   7   2  568.93   11.76
   0  -7  -2  565.46   11.49
   0  -7   2  573.44   12.50
   0  -7  -2  625.45   13.23
   0   7  -2  606.85   14.18
   0   7   2  601.07   12.29
   1  -7   2   17.51    2.36
   1   7   2   13.56    2.04
  -1  -7  -2   12.23    2.03
   1  -7   2    7.67    1.67
  -1   7  -2    8.16    2.10
  -1  -7  -2    7.10    1.88
   1   7   2    7.80    1.99
   2  -7   2   54.43    3.64
   2   7   2   52.46    3.58
  -2  -7  -2   54.99    3.69
   2  -7   2   55.12    3.74
  -2   7  -2   52.79    3.74
  -2  -7  -2   52.71    3.92
   2   7   2   57.04    3.97
   3  -7   2    5.43    1.62
   3   7   2    7.07    1.64
  -3  -7  -2    8.40    1.83
   3  -7   2   10.20    2.06
  -3   7  -2   11.28    2.17
  -3  -7  -2   10.91    2.10
   3   7   2    9.84    2.14
   4  -7   2  109.74    6.05
   4   7   2  122.90    9.07
  -4  -7  -2  121.57    6.57
   4  -7   2  130.83    6.99
  -4   7  -2  124.56    7.02
  -4  -7  -2  134.74    7.28
   4   7   2  129.95    7.02
   5  -7   2  135.65    7.40
   5   7   2  144.35   10.39
  -5  -7  -2  146.35    7.65
   5  -7   2  140.86    7.75
  -5   7  -2  153.01    8.04
  -5  -7  -2  163.89    8.68
   5   7   2  154.37    7.97
   6  -7   2   90.97    7.23
  -6  -7  -2   89.23    7.19
   6  -7   2   89.07    7.23
  -6   7  -2   93.15    7.88
  -6  -7  -2   94.87    7.90
   6   7   2   91.45    7.60
  -7  -7  -2   43.29    4.17
   7  -7   2   41.84    4.23
  -7   7  -2   44.39    4.29
  -7  -7  -2   41.70    4.17
  -7   7  -2   40.72    4.15
  -7  -7  -2   46.05    4.56
   8  -7   2   73.06    4.14
  -8   7  -2   80.66    4.21
  -8  -7  -2   72.86    4.07
  -8   7  -2   79.52    4.72
  -8  -7  -2   81.03    4.51
   9   7   2    8.95    1.92
   9  -7   2    8.04    2.05
  -9   7  -2   12.78    2.25
  -9  -7  -2    9.78    2.28
  -9  -7  -2   12.82    2.35
  10   7   2   68.36    4.10
  10  -7   2   62.44    4.97
 -10   7  -2   73.07    4.21
 -10  -7  -2   70.79    4.34
  11   7   2    8.65    2.00
  11  -7   2    7.35    2.11
 -11   7  -2   15.68    2.45
 -11  -7  -2   11.77    2.61
  12   7   2   17.57    2.56
  12  -7   2   18.13    2.43
 -12   7  -2   15.77    2.35
 -12  -7  -2   17.44    2.48
  13   7   2   30.40    2.86
  13  -7   2   30.77    2.82
 -13   7  -2   31.84    2.96
 -13  -7  -2   31.55    3.34
  14   7   2   31.12    3.42
  14  -7   2   31.50    3.57
 -14  -7  -2   27.48    3.73
  15   7   2   16.77    2.72
  15  -7   2   17.47    2.59
 -15  -7  -2   18.43    3.00
  16   7   2   33.51    3.09
  16  -7   2   26.73    3.20
 -16  -7  -2   30.39    3.44
  17   7   2   32.46    3.66
  17  -7   2   30.56    3.84
 -17  -7  -2   31.24    3.92
  18   7   2   24.29    3.21
  18  -7   2   24.12    3.51
 -18  -7  -2   23.27    3.70
  19   7   2   19.74    3.23
  19  -7   2   17.68    3.45
 -19  -7  -2   17.90    3.40
  20   7   2   23.70    3.25
  20  -7   2   20.24    3.19
 -20  -7  -2   20.85    3.45
  21   7   2    2.63    3.00
  21  -7   2    2.19    3.71
 -21  -7  -2    2.80    3.23
  22   7   2    3.42    2.79
  22  -7   2    1.04    3.41
 -22  -7  -2    3.52    3.51
  23   8  -2    6.82    2.89
  23  -8  -2    8.22    3.45
 -23  -8   2    7.24    3.97
  22   8  -2   14.05    2.87
  22  -8  -2   12.21    3.93
 -22  -8   2   14.07    3.34
  21   8  -2    2.06    2.73
  21  -8  -2    1.51    2.95
 -21  -8   2    0.09    2.79
  20   8  -2   -0.77    2.26
  20  -8  -2   -0.58    2.98
 -20  -8   2    1.19    3.33
  19   8  -2    3.28    2.28
  19  -8  -2    5.30    2.73
 -19  -8   2    4.81    3.05
  18   8  -2    1.87    2.22
  18  -8  -2    4.24    2.77
 -18  -8   2    4.41    2.81
  17   8  -2   19.29    2.88
  17  -8  -2   21.84    3.14
 -17  -8   2   19.33    3.20
  16   8  -2    4.95    2.80
  16  -8  -2    4.96    2.64
 -16  -8   2    6.39    2.57
  15   8  -2    6.82    2.22
  15  -8  -2    8.52    2.57
 -15  -8   2    6.59    2.78
  14   8  -2    6.59    2.13
  14  -8  -2    5.18    2.51
 -14  -8   2    8.58    2.33
  13   8  -2    4.75    1.90
  13  -8  -2    5.14    2.20
 -13  -8   2    6.27    2.48
  12   8  -2    2.66    2.22
  12  -8  -2    1.47    2.09
 -12  -8   2    1.08    2.17
  11   8  -2   14.63    2.08
  11  -8  -2   18.91    2.70
 -11  -8   2   21.56    2.92
  10   8  -2    3.52    1.59
  10  -8  -2    1.47    2.01
 -10   8   2    0.88    1.98
 -10  -8   2    0.24    2.13
   9   8  -2    5.71    1.79
   9  -8  -2    9.15    2.32
  -9   8   2   12.60    2.53
  -9  -8   2   11.89    2.13
   8  -8  -2    1.95    1.88
  -8   8   2    2.04    1.88
  -8  -8   2    2.18    1.96
   8   8  -2    1.92    2.13
  -7   8   2   22.20    4.21
   7  -8  -2   21.91    3.37
   7  -8  -2   22.83    2.65
  -7   8   2   21.98    2.77
  -7  -8   2   24.11    2.72
   7   8  -2   23.19    2.72
  -6  -8   2    3.35    1.87
   6  -8  -2    4.03    1.75
   6  -8  -2    2.63    1.64
  -6   8   2    3.10    1.92
  -6  -8   2    2.49    1.55
   6   8  -2    3.28    2.12
   5   8  -2   36.17    2.82
  -5   8   2   40.08    3.89
  -5  -8   2   40.07    3.92
   5  -8  -2   42.07    4.04
   5  -8  -2   52.60    4.96
  -5   8   2   51.73    4.85
  -5  -8   2   52.22    4.83
   5   8  -2   52.14    4.97
   4   8  -2   14.13    1.95
  -4  -8   2   13.19    1.91
  -4   8   2   14.88    2.04
   4  -8  -2   15.94    2.14
   4  -8  -2   14.10    2.44
  -4   8   2   16.77    2.44
  -4  -8   2   16.24    2.28
   4   8  -2   15.09    2.30
   3   8  -2   35.58    3.12
  -3  -8   2   35.94    3.07
  -3   8   2   37.66    3.13
   3  -8  -2   36.90    3.05
   3  -8  -2   38.48    3.64
  -3  -8   2   39.58    3.46
  -3   8   2   38.35    3.31
   3   8  -2   38.88    3.52
   2   8  -2    0.86    1.52
  -2  -8   2    1.28    1.55
  -2   8   2    1.55    1.36
   2  -8  -2    2.20    1.58
   2  -8  -2    5.08    1.81
  -2  -8   2    2.03    1.47
  -2   8   2    1.76    1.78
   2   8  -2    4.90    1.80
   1   8  -2   60.20    4.12
  -1  -8   2   58.29    4.04
  -1   8   2   60.04    4.07
   1  -8  -2   62.26    4.12
   1  -8  -2   67.02    4.68
   1   8  -2   66.38    4.62
  -1   8   2   66.16    4.46
   0   8  -2  257.61    9.20
   0  -8   2  252.89    8.83
   0   8   2  247.06    8.81
   0  -8  -2  249.67    8.80
   0  -8  -2  226.37    8.69
   0   8  -2  224.80    8.45
   0   8   2  234.24    8.57
   1  -8   2   98.84    5.58
   1   8   2  100.73    6.06
  -1  -8  -2  102.25    5.73
   1  -8   2  106.87    5.94
  -1   8  -2  112.33    6.59
  -1  -8  -2  110.23    6.52
   1   8   2  112.97    6.29
   2  -8   2   94.76    5.42
   2   8   2   88.54    5.64
  -2  -8  -2   90.18    5.19
   2  -8   2   85.87    5.14
  -2   8  -2   85.98    5.35
  -2  -8  -2   86.47    5.43
   2   8   2   83.53    5.13
   3  -8   2   16.28    2.16
   3   8   2   14.64    1.97
  -3  -8  -2   15.11    2.12
   3  -8   2   13.69    2.03
  -3   8  -2   13.23    2.29
  -3  -8  -2   16.45    2.57
   3   8   2   14.47    2.42
   4  -8   2    4.80    1.78
   4   8   2    6.32    1.83
  -4  -8  -2    7.41    1.88
   4  -8   2   10.57    1.99
  -4   8  -2   10.60    2.08
  -4  -8  -2   11.25    2.00
   4   8   2    9.40    2.13
   5  -8   2    0.00    1.52
   5   8   2   -0.04    1.26
  -5  -8  -2    0.30    1.69
   5  -8   2   -0.36    1.48
  -5   8  -2   -0.26    1.68
  -5  -8  -2   -0.91    2.03
   5   8   2   -0.51    1.66
   6  -8   2    0.31    1.55
   6   8   2    0.47    1.64
  -6  -8  -2    0.71    1.70
   6  -8   2   -0.33    1.47
  -6   8  -2    0.68    2.02
  -6  -8  -2    1.19    1.73
   6   8   2    1.53    1.88
   7  -8   2   17.73    2.52
  -7  -8  -2   18.49    2.72
   7  -8   2   17.21    2.97
  -7  -8  -2   18.24    2.83
   7   8   2   16.16    2.59
   8  -8   2   -0.66    1.73
   8  -8   2   -0.18    1.45
  -8  -8  -2    0.56    2.07
  -8  -8  -2    1.33    1.80
   9  -8   2    3.42    1.75
   9  -8   2    4.30    1.93
  -9  -8  -2    2.42    2.28
  10   8   2   11.57    2.16
  10  -8   2   11.55    2.34
 -10   8  -2   10.56    2.45
 -10  -8  -2   10.50    2.49
  11   8   2    8.84    2.15
  11  -8   2    6.88    2.08
 -11   8  -2    7.45    2.48
 -11  -8  -2    9.59    2.51
  12   8   2    1.09    2.08
  12  -8   2    1.54    2.01
 -12   8  -2    1.29    2.17
 -12  -8  -2    2.50    2.12
  13   8   2    2.31    2.21
  13  -8   2    3.85    2.04
 -13  -8  -2    4.15    2.45
  14   8   2    3.17    2.11
 -14  -8  -2    4.65    2.66
  15   8   2    6.16    2.44
  15  -8   2    5.12    2.65
 -15  -8  -2    6.39    2.51
  16   8   2   10.83    2.68
  16  -8   2   13.69    2.98
 -16  -8  -2   13.54    3.09
  17   8   2    0.11    2.80
  17  -8   2    1.23    2.84
 -17  -8  -2    3.90    2.67
  18   8   2    0.68    2.35
  18  -8   2   -0.18    2.72
 -18  -8  -2    0.27    2.87
  19   8   2    0.87    2.81
  19  -8   2   -0.30    2.84
 -19  -8  -2    0.45    3.03
  20   8   2    1.46    2.62
  20  -8   2    0.20    2.97
 -20  -8  -2    1.03    3.30
  21   8   2    0.51    2.88
  21  -8   2   -1.38    3.08
 -21  -8  -2   -0.11    3.33
  22   9  -2    1.65    2.77
  22  -9  -2    3.31    3.15
 -22  -9   2    0.73    3.37
  21   9  -2   13.18    2.81
  21  -9  -2   18.28    3.49
 -21  -9   2   17.91    3.57
  20   9  -2    0.95    2.71
  20  -9  -2    1.32    3.12
 -20  -9   2    0.30    2.95
  19   9  -2    8.48    3.28
  19  -9  -2   12.28    3.25
 -19  -9   2   13.49    3.59
  18   9  -2    2.77    2.36
  18  -9  -2    2.54    2.82
 -18  -9   2    2.99    3.19
  17   9  -2   26.36    2.65
  17  -9  -2   38.49    4.23
 -17  -9   2   34.83    3.96
  16   9  -2   44.16    3.66
  16  -9  -2   52.22    3.85
 -16  -9   2   49.08    3.98
  15   9  -2   22.13    2.69
  15  -9  -2   23.14    3.64
 -15  -9   2   22.31    2.88
  14   9  -2   20.91    2.80
  14  -9  -2   19.53    2.91
 -14  -9   2   22.35    3.11
  13   9  -2   15.62    2.53
  13  -9  -2   15.94    2.81
 -13  -9   2   17.30    2.84
  12   9  -2    3.79    1.66
  12  -9  -2    3.61    2.15
 -12  -9   2    4.72    2.67
  11   9  -2   22.94    2.59
  11  -9  -2   21.46    2.84
 -11  -9   2   22.79    2.93
  10   9  -2    5.61    2.06
  10  -9  -2    6.46    2.32
 -10  -9   2    4.85    2.37
   9  -9  -2    0.49    1.90
  -9   9   2   -0.61    2.04
  -9  -9   2   -1.09    2.09
   8  -9  -2    7.42    2.24
  -8   9   2    5.44    2.22
  -8  -9   2    7.32    2.21
  -7   9   2    3.40    1.71
  -7  -9   2    4.33    2.10
   7  -9  -2    3.51    1.90
   7  -9  -2    6.40    2.09
  -7   9   2    7.28    2.20
  -7  -9   2    8.09    2.41
   7   9  -2    6.27    2.44
  -6   9   2    1.99    1.78
   6   9  -2    2.86    1.53
  -6  -9   2    3.48    1.61
   6  -9  -2    3.86    1.57
   6  -9  -2    5.50    2.09
  -6   9   2    5.31    2.14
  -6  -9   2    3.32    2.03
   6   9  -2    5.63    2.03
   5   9  -2    8.55    2.08
  -5   9   2    8.68    2.00
  -5  -9   2    8.63    2.01
   5  -9  -2    8.43    2.04
   5  -9  -2    8.68    2.39
  -5   9   2    8.10    2.26
  -5  -9   2    8.49    2.29
   5   9  -2    8.13    2.33
   4   9  -2   13.88    2.06
  -4   9   2   12.97    2.02
  -4  -9   2   14.36    2.16
   4  -9  -2   12.31    2.04
   4  -9  -2   11.18    2.33
  -4   9   2   11.71    2.29
  -4  -9   2    9.94    2.25
   4   9  -2   11.41    2.32
   3   9  -2   -0.47    1.46
  -3  -9   2    1.07    1.47
  -3   9   2    0.71    1.49
   3  -9  -2    0.74    1.48
   3  -9  -2    1.27    1.72
  -3  -9   2    1.43    1.89
  -3   9   2    1.85    1.77
   3   9  -2    0.42    1.88
   2   9  -2   73.64    6.26
  -2  -9   2   67.72    5.72
  -2   9   2   69.30    5.86
   2  -9  -2   68.13    5.68
   2  -9  -2   64.20    5.86
  -2   9   2   63.12    5.52
   2   9  -2   63.75    5.68
   1   9  -2    4.20    1.69
  -1  -9   2    5.89    1.79
  -1   9   2    4.60    1.71
   1  -9  -2    5.83    1.84
   1  -9  -2    6.25    2.16
   1   9  -2    4.43    1.90
  -1   9   2    6.61    2.15
   0   9  -2   18.62    2.31
   0  -9   2   18.06    2.11
   0   9   2   19.70    2.53
   0  -9  -2   21.37    2.39
   0  -9  -2   22.44    2.73
   0   9  -2   24.13    2.77
   0   9   2   23.49    2.62
   1  -9   2   23.11    2.45
   1   9   2   22.54    2.48
  -1  -9  -2   23.64    2.57
  -1  -9  -2   21.91    2.68
  -1   9  -2   21.03    2.69
   1   9   2   23.52    2.67
   2  -9   2   -0.23    1.57
   2   9   2    1.12    1.62
  -2  -9  -2   -0.11    1.64
   2  -9   2    0.99    1.46
  -2   9  -2    0.65    1.68
  -2  -9  -2    1.06    1.75
   2   9   2    0.60    1.71
   3  -9   2    0.30    1.60
   3   9   2    0.74    1.62
  -3  -9  -2    0.00    1.62
   3  -9   2    0.85    1.74
  -3   9  -2    0.49    2.12
  -3  -9  -2    1.24    1.98
   3   9   2    0.04    1.93
   4  -9   2    2.24    1.60
   4   9   2    1.38    1.69
  -4  -9  -2    3.61    1.76
   4  -9   2    3.14    1.82
  -4   9  -2    2.54    2.19
  -4  -9  -2    2.83    1.94
   4   9   2    3.48    2.05
   5  -9   2    0.42    1.51
   5   9   2    0.82    2.51
  -5  -9  -2   -0.02    1.60
   5  -9   2    0.98    1.56
  -5  -9  -2   -0.07    1.89
   5   9   2   -0.21    1.95
   6  -9   2   14.09    2.12
   6   9   2   14.65    2.24
  -6  -9  -2   13.97    2.24
   6  -9   2   15.08    2.36
  -6  -9  -2   16.99    2.61
   6   9   2   14.29    2.38
   7  -9   2    1.06    1.47
   7  -9   2    1.20    1.94
  -7  -9  -2    2.30    2.00
   8  -9   2   86.85    4.58
   8  -9   2   82.64    4.68
  -8  -9  -2   78.17    4.74
   9  -9   2   24.81    2.55
   9  -9   2   21.41    2.82
  -9  -9  -2   21.60    2.73
  10  -9   2   91.79    4.29
  10  -9   2   95.49    4.52
 -10  -9  -2  106.64    4.94
  11  -9   2    0.03    2.08
  11   9   2    2.20    2.11
  11  -9   2    0.77    1.97
 -11  -9  -2    1.32    2.24
  12   9   2   20.96    2.66
 -12  -9  -2   21.17    2.88
  13   9   2    1.99    2.10
  13  -9   2    3.41    2.41
 -13  -9  -2    3.57    2.57
  14   9   2    8.57    2.35
  14  -9   2    6.78    2.54
 -14  -9  -2    6.99    2.64
  15   9   2    9.25    2.85
  15  -9   2    7.22    2.72
 -15  -9  -2    7.29    2.70
  16   9   2   16.09    2.84
  16  -9   2   13.26    2.68
 -16  -9  -2   15.41    3.13
  17   9   2    0.82    2.43
  17  -9   2    2.02    2.59
 -17  -9  -2    1.84    2.66
  18   9   2   43.27    3.65
  18  -9   2   39.08    3.83
 -18  -9  -2   41.30    3.96
  19   9   2    4.35    2.87
  19  -9   2    6.45    3.22
 -19  -9  -2    6.54    2.99
  20   9   2   42.08    4.05
  20  -9   2   37.39    4.09
 -20  -9  -2   36.72    4.10
  21   9   2   -1.12    2.77
  21  -9   2    0.18    2.89
 -21  -9  -2    0.08    3.26
  22  10  -2   48.49    3.83
  22 -10  -2   37.80    4.15
 -22 -10   2   34.85    4.36
  21  10  -2    2.28    2.48
  21 -10  -2    1.28    3.30
 -21 -10   2   -0.02    3.41
  20  10  -2  105.74    4.90
  20 -10  -2   99.74    5.51
 -20 -10   2   97.96    5.27
  19  10  -2    4.02    2.37
  19 -10  -2    5.04    2.89
 -19 -10   2    6.10    3.00
  18  10  -2  193.00    8.57
  18 -10  -2  174.27    8.41
 -18 -10   2  176.11    8.34
  17  10  -2   13.13    2.83
  17 -10  -2   16.47    3.01
 -17 -10   2   16.30    3.19
  16  10  -2  188.31    5.92
  16 -10  -2  177.32    6.35
 -16 -10   2  176.17    6.09
  15  10  -2    6.22    2.32
  15 -10  -2    6.21    2.69
 -15 -10   2    7.11    6.51
  14  10  -2  168.47    6.24
  14 -10  -2  176.34    6.85
 -14 -10   2  177.32    6.61
  13  10  -2   12.14    2.77
  13 -10  -2   13.18    2.77
 -13 -10   2   14.11    6.89
  12  10  -2  190.48    7.08
  12 -10  -2  184.27    7.45
 -12 -10   2  191.93    7.44
  11  10  -2   12.71    2.39
  11 -10  -2   14.83    2.52
 -11 -10   2   15.25    2.89
  10 -10  -2  614.36   21.68
 -10 -10   2  629.19   21.66
   9 -10  -2   20.17    2.92
  -9 -10   2   19.55    3.23
   8 -10  -2  228.66    9.48
   8 -10  -2  226.47   56.24
   8 -10  -2  228.75    9.06
  -8  10   2  229.35    9.25
  -8 -10   2  231.84    9.06
  -7  10   2    0.75    1.66
   7  10  -2    0.74    1.75
   7 -10  -2    1.32    1.68
   7 -10  -2    1.98    2.12
  -7  10   2    1.29    2.27
  -7 -10   2    2.05    2.21
   6  10  -2  417.61   13.15
  -6  10   2  416.67   13.11
   6 -10  -2  425.71   13.37
   6 -10  -2  411.22   13.58
  -6  10   2  415.28   13.79
  -6 -10   2  401.75   13.35
   5  10  -2   18.27    2.38
  -5  10   2   17.59    2.22
  -5 -10   2   17.44    2.36
   5 -10  -2   17.27    2.29
   5 -10  -2   20.96    2.84
  -5  10   2   19.26    2.63
  -5 -10   2   17.42    2.37
   4  10  -2  558.99   13.83
  -4  10   2  536.35   12.95
  -4 -10   2  537.89   12.82
   4 -10  -2  540.81   12.90
   4 -10  -2  511.43   13.43
  -4  10   2  522.50   13.42
   4  10  -2  530.48   13.85
   3  10  -2    7.63    2.18
  -3  10   2    7.51    1.83
  -3 -10   2    8.11    2.10
   3 -10  -2    7.75    2.11
   3 -10  -2    7.90    2.30
  -3  10   2    7.29    2.21
   3  10  -2    8.47    2.62
   2  10  -2  269.64    8.21
  -2 -10   2  266.34    8.03
  -2  10   2  267.92    8.03
   2 -10  -2  268.24    7.94
   2 -10  -2  272.62    8.99
  -2  10   2  276.06    8.43
   2  10  -2  270.48    8.40
   1  10  -2    0.01    1.68
  -1 -10   2   -0.39    1.87
  -1  10   2    0.00    1.73
   1 -10  -2   -0.59    1.71
   1 -10  -2   -1.14    2.15
   1  10  -2   -0.66    2.15
  -1  10   2    0.89    1.93
   0  10  -2  296.85    8.62
   0 -10   2  286.09    8.28
   0  10   2  282.34    8.36
   0 -10  -2  284.35    8.39
   0 -10  -2  273.39    8.81
   0  10  -2  267.29    9.00
   0  10   2  273.36    8.51
  -1  10  -2    2.47    1.73
   1 -10   2    1.73    1.72
   1  10   2    1.06    3.28
  -1 -10  -2    2.60    1.64
  -1 -10  -2    3.13    2.08
  -1  10  -2    5.76    2.15
   1  10   2    1.64    2.20
   2 -10   2  317.16    8.92
   2  10   2  313.60    9.31
  -2 -10  -2  324.49    9.08
   2 -10   2  329.17    9.32
  -2  10  -2  312.28    9.40
  -2 -10  -2  322.00    9.78
   2  10   2  330.31    9.86
   3 -10   2   33.70    2.97
   3  10   2   34.22    6.72
  -3 -10  -2   33.45    3.18
   3 -10   2   36.42    3.28
  -3 -10  -2   37.75    4.03
   3  10   2   35.66    3.27
   4 -10   2  657.00   19.10
   4  10   2  648.15   18.97
  -4 -10  -2  681.65   19.68
   4 -10   2  675.57   19.55
  -4 -10  -2  676.12   20.10
   4  10   2  663.38   19.45
   5 -10   2   37.09    3.24
   5  10   2   37.72    4.06
   5 -10   2   43.37    3.44
  -5 -10  -2   46.70    3.80
   5  10   2   43.09    3.54
   6 -10   2  262.34    9.43
   6  10   2  245.67    9.25
   6 -10   2  236.62    9.00
  -6 -10  -2  237.26    9.43
   7 -10   2   95.70    5.94
   7  10   2  107.97    6.43
   7 -10   2  105.24    6.44
  -7 -10  -2  116.04    6.96
   8 -10   2  135.67    6.04
   8  10   2  128.91    5.99
   8 -10   2  131.18    6.17
  -8 -10  -2  124.30    7.33
   9 -10   2   34.68    4.21
   9 -10   2   41.54    3.24
  -9 -10  -2   55.71    3.66
  10 -10   2  384.77    9.53
  10 -10   2  372.05   11.51
 -10 -10  -2  360.14   11.08
  11 -10   2    0.88    2.00
  11 -10   2    1.15    2.32
 -11 -10  -2    1.00    2.32
  12  10   2   42.03    4.14
  12 -10   2   39.13    4.15
 -12 -10  -2   32.46    4.08
  13  10   2   31.53    3.14
  13 -10   2   40.45    3.69
 -13 -10  -2   46.42    3.75
  14  10   2   33.29    3.24
  14 -10   2   29.07    3.58
 -14 -10  -2   28.96    3.52
  15  10   2   27.75    3.05
  15 -10   2   35.80    4.25
 -15 -10  -2   38.35    3.85
  16  10   2   23.93    2.88
  16 -10   2   16.29    3.06
 -16 -10  -2   16.71    3.17
  17  10   2   90.61    5.35
  17 -10   2  115.67    6.72
 -17 -10  -2  114.52    6.49
  18  10   2   32.84    3.52
  18 -10   2   24.43    3.50
 -18 -10  -2   21.48    3.37
  19  10   2   34.90    3.70
  19 -10   2   48.45    4.07
 -19 -10  -2   45.10    4.16
  20  10   2   25.37    3.70
  20 -10   2   15.94    3.73
 -20 -10  -2   16.71    3.77
  21  11  -2   23.56    3.26
  21 -11  -2   27.40    3.73
 -21 -11   2   27.60    3.76
  20  11  -2    1.32    2.81
  20 -11  -2   -0.29    3.33
 -20 -11   2    1.56    3.56
  19  11  -2   27.07    3.13
  19 -11  -2   34.62    3.92
 -19 -11   2   31.85    3.63
  18  11  -2    2.26    2.75
  18 -11  -2    2.71    3.31
 -18 -11   2    0.82    2.41
  17  11  -2   25.37    3.13
  17 -11  -2   33.80    3.77
 -17 -11   2   31.76    3.61
  16  11  -2    6.72    2.63
  16 -11  -2    5.14    2.67
 -16 -11   2    4.19    3.90
  15  11  -2   51.17    4.98
  15 -11  -2   63.58    6.09
 -15 -11   2   62.97    6.11
  14  11  -2    7.70    2.40
  14 -11  -2    8.45    2.77
  13  11  -2   17.94    2.61
  13 -11  -2   18.86    3.00
 -13 -11   2   21.20    3.06
  12  11  -2   13.33    2.55
  12 -11  -2   13.79    2.81
 -12 -11   2   12.79    3.07
  11 -11  -2    9.53    2.53
 -11 -11   2    9.10    2.33
  10 -11  -2   39.26    3.31
 -10 -11   2   38.74    3.52
   9 -11  -2  191.71    8.63
  -9 -11   2  196.07    8.67
   8  11  -2  262.61    9.46
   8 -11  -2  271.65   11.55
   8 -11  -2  279.96   25.90
   8 -11  -2  268.38   10.12
  -8 -11   2  272.67    9.97
  -7  11   2   32.14    2.78
   7  11  -2   28.98    9.71
   7 -11  -2   36.52    2.92
   7 -11  -2   39.89    3.41
  -7 -11   2   41.79    3.20
  -6  11   2   32.33    2.80
   6  11  -2   34.84    3.05
   6 -11  -2   29.19    2.62
   6 -11  -2   26.69    3.08
   5  11  -2    0.62    2.03
  -5  11   2    1.41    1.73
   5 -11  -2    0.24    1.75
   5 -11  -2    0.06    2.00
  -5  11   2   -1.79    2.16
   4  11  -2   -0.07    1.87
  -4  11   2    0.03    1.73
   4 -11  -2   -0.15    1.56
   4 -11  -2    0.72    2.18
  -4  11   2    0.96    2.02
   3  11  -2    6.84    2.15
  -3  11   2    7.57    1.87
  -3 -11   2    6.87    2.02
   3 -11  -2    7.34    1.94
   3 -11  -2    8.68    2.51
  -3  11   2    7.69    2.67
   2  11  -2    0.74    1.86
  -2  11   2    0.08    1.59
  -2 -11   2    0.46    1.78
   2 -11  -2    0.72    1.67
   2 -11  -2    1.32    2.06
  -2  11   2    0.38    2.17
   1  11  -2    6.97    1.92
  -1  11   2    6.53    1.80
  -1 -11   2    5.88    1.99
   1 -11  -2    5.60    1.73
   1 -11  -2    2.76    2.17
  -1  11   2    4.55    2.21
   0  11  -2   68.02    4.52
   0 -11   2   68.54    4.32
   0  11   2   67.32    4.29
   0 -11  -2   67.15    4.30
   0 -11  -2   79.74    5.14
   0  11   2   78.32    4.87
  -1  11  -2    4.44    1.71
   1 -11   2    4.25    1.75
  -1 -11  -2    6.09    1.98
  -1 -11  -2    9.16    2.44
   1  11   2   11.56    2.50
   2 -11   2  191.90    7.49
   2  11   2  190.36    9.62
  -2 -11  -2  200.98    7.79
   2 -11   2  193.87    7.70
  -2 -11  -2  193.61    8.12
   2  11   2  192.81    7.94
   3 -11   2   39.96    2.92
   3  11   2   41.23   13.62
  -3 -11  -2   43.89    3.18
   3 -11   2   48.69    3.39
  -3 -11  -2   51.38    3.78
   4 -11   2  226.63    8.52
   4  11   2  223.55    9.40
   4 -11   2  248.40    9.27
  -4 -11  -2  250.45    9.73
   5 -11   2   53.87    4.17
   5  11   2   55.94   11.33
   5 -11   2   68.56    4.91
  -5 -11  -2   71.39    5.19
   6 -11   2  193.40    7.45
   6  11   2  203.97    7.92
   6 -11   2  209.58    8.14
  -6 -11  -2  208.09    8.28
   7 -11   2   49.37    3.76
   7  11   2   56.68    3.50
   7 -11   2   57.17    3.79
  -7 -11  -2   63.27    4.02
   8 -11   2   13.27    2.28
   8  11   2   13.69    2.50
   8 -11   2   13.75    2.65
  -8 -11  -2   17.78    2.97
   9 -11   2    0.90    2.00
   9 -11   2    1.01    2.02
  -9 -11  -2    1.29    2.27
  10 -11   2   88.13    6.73
  10 -11   2   91.76    7.07
 -10 -11  -2  106.22    7.82
  11 -11   2   11.66    2.78
 -11 -11  -2   11.51    2.81
  12 -11   2  331.50    9.91
 -12 -11  -2  327.51    9.62
  13  11   2   17.32    2.44
  13 -11   2   18.27    3.00
 -13 -11  -2   22.46    5.83
  14  11   2  142.64    5.42
  14 -11   2  132.75    5.59
 -14 -11  -2  134.17    5.45
  15  11   2   58.97    3.77
  15 -11   2   63.85    4.31
 -15 -11  -2   62.44    3.92
  16  11   2   59.74    4.08
  16 -11   2   44.43    4.33
 -16 -11  -2   51.79    4.29
  17  11   2   39.16    3.57
  17 -11   2   40.27    3.94
 -17 -11  -2   38.29    4.04
  18  11   2   76.00    4.41
  18 -11   2   67.24    4.67
 -18 -11  -2   70.90    4.58
  19  11   2    7.07    3.11
  19 -11   2    9.98    3.41
 -19 -11  -2    7.85    3.34
  20  11   2   22.47    3.44
  20 -11   2   16.80    3.73
 -20 -11  -2   18.92    4.37
  20  12  -2   17.80    3.22
  20 -12  -2   14.32    3.51
 -20 -12   2   14.62    3.56
  19  12  -2   -0.26    2.64
  19 -12  -2    1.61    2.98
 -19 -12   2    1.44    3.22
  18  12  -2   47.65    3.84
  18 -12  -2   36.47    4.00
 -18 -12   2   41.94    3.92
  17  12  -2    5.76    2.66
  17 -12  -2    6.37    2.87
 -17 -12   2    4.57    4.59
  16  12  -2   60.07    4.23
  16 -12  -2   45.64    4.01
 -16 -12   2   52.96    4.25
  15  12  -2   -0.29    2.50
  15 -12  -2    0.07    2.97
  14  12  -2  144.56    5.24
  14 -12  -2  122.55    5.44
 -14 -12   2  135.91    5.54
  13  12  -2    2.67    2.23
  13 -12  -2    2.15    2.54
  12 -12  -2  133.14    5.98
 -12 -12   2  131.96    5.82
  11 -12  -2   20.95    3.14
 -11 -12   2   22.29    3.01
  10 -12  -2  113.73    5.28
 -10 -12   2  114.06    4.98
   9  12  -2   14.23    2.78
   9 -12  -2   18.97    3.10
  -9 -12   2   18.57    2.68
   8  12  -2  191.79    7.10
   8 -12  -2  171.04    6.69
   8 -12  -2  175.31    7.24
  -8 -12   2  147.24    6.15
  -7  12   2   15.51    2.29
   7  12  -2   14.58    7.21
   7 -12  -2   17.17    2.37
   7 -12  -2   19.36    3.01
   6  12  -2   79.70    5.31
  -6  12   2   76.94    3.84
   6 -12  -2   71.53    3.71
   6 -12  -2   65.04    4.21
   5  12  -2    5.31    4.03
  -5  12   2    5.63    2.07
   5 -12  -2    4.91    2.06
   5 -12  -2    4.62    2.51
   4  12  -2  491.85   15.35
  -4  12   2  484.81   15.13
   4 -12  -2  472.06   14.62
   4 -12  -2  448.83   14.88
   3  12  -2   14.55    2.35
  -3  12   2   16.14    2.41
   3 -12  -2   15.62    2.38
   3 -12  -2   18.97    2.87
   2  12  -2  482.12   17.70
  -2  12   2  474.05   14.96
   2 -12  -2  464.92   14.53
   2 -12  -2  468.10   15.39
   1  12  -2   22.84    2.72
  -1  12   2   21.06    2.64
  -1 -12   2   24.26    2.69
   1 -12  -2   23.79    2.68
   1 -12  -2   23.66    3.09
   0  12  -2  257.71    9.38
   0  12   2  245.53    9.01
   0 -12   2  245.38    8.85
   0 -12  -2  241.77    8.76
   0 -12  -2  240.98    9.40
  -1  12  -2    9.50    2.11
   1 -12   2    8.20    2.00
   1  12   2    8.02    2.38
  -1 -12  -2    8.94    2.21
  -1 -12  -2    9.27    2.52
   2  12   2  171.65    7.01
   2 -12   2  179.05    7.13
  -2 -12  -2  175.28    7.15
   2 -12   2  161.59    6.74
  -2 -12  -2  158.42    7.15
   3 -12   2    0.62    2.66
   3 -12   2   -0.13    1.91
  -3 -12  -2   -0.34    2.03
   4 -12   2  175.39    7.62
   4  12   2  170.97    7.63
   4 -12   2  148.99    6.93
  -4 -12  -2  155.86    7.47
   5 -12   2    8.73    3.41
   5  12   2    9.77    2.52
   5 -12   2    9.32    2.23
  -5 -12  -2   10.00    2.90
   6 -12   2   72.99    3.75
   6  12   2   70.50    3.96
   6 -12   2   61.38    3.85
  -6 -12  -2   61.19    3.87
   7 -12   2   69.68    7.38
   7  12   2   69.07    6.13
   7 -12   2   61.08    5.68
   7 -12   2   57.26    5.64
  -7 -12  -2   62.22    5.94
   8  12   2  108.19    7.77
   8 -12   2  101.02    7.44
   8 -12   2   87.00    6.79
  -8 -12  -2   88.43    6.83
   9  12   2   -0.04    2.25
   9 -12   2    0.94    2.21
   9 -12   2    2.57    1.97
  -9 -12  -2    3.82    2.18
  10  12   2   83.86    5.32
  10 -12   2   81.08    5.23
  10 -12   2   81.29    5.40
 -10 -12  -2   76.76    5.14
  11 -12   2   22.33    3.05
 -11 -12  -2   27.19   10.30
  12 -12   2   75.32    5.52
 -12 -12  -2   61.74    6.71
  13 -12   2   18.27    3.24
 -13 -12  -2   23.80    3.58
  14  12   2   13.52    2.99
  14 -12   2    8.53    3.19
 -14 -12  -2    3.91    2.70
  15  12   2   17.69    3.05
  15 -12   2   26.28    3.47
 -15 -12  -2   26.45    3.56
  16  12   2   13.80    2.97
  16 -12   2    6.12    3.55
 -16 -12  -2    5.87    2.89
  17  12   2    9.24    2.96
  17 -12   2   17.83    3.71
 -17 -12  -2   15.70    3.33
  18  12   2   12.81    3.14
  18 -12   2    6.86    2.90
 -18 -12  -2    3.65    3.13
  19  12   2   12.74    3.32
  19 -12   2   20.13    3.74
 -19 -12  -2   20.97    3.94
  19  13  -2   -2.05    2.69
  19 -13  -2   -2.42    3.26
 -19 -13   2   -1.83    3.52
  18  13  -2    8.27    2.94
  18 -13  -2    9.38    3.19
 -18 -13   2   10.02    2.98
  17  13  -2   13.81    3.05
  17 -13  -2   15.29    3.31
 -17 -13   2   12.60    3.87
  16  13  -2    0.48    2.87
  16 -13  -2    0.58    2.91
 -16 -13   2   -1.12    4.56
  15  13  -2    6.68    2.60
  15 -13  -2    6.83    2.81
 -15 -13   2    3.66    3.07
  14  13  -2    0.89    2.69
  14 -13  -2    0.29    2.62
 -14 -13   2    0.98    3.88
  13 -13  -2   -1.25    2.51
 -13 -13   2    0.59    2.70
  12 -13  -2   -0.62    2.67
 -12 -13   2   -1.47    2.76
  11 -13  -2   14.71    3.05
 -11 -13   2   14.42    3.10
  10  13  -2   25.06    2.93
  10 -13  -2   24.74    3.12
 -10 -13   2   25.41    3.22
   9  13  -2   -1.05    2.14
   9 -13  -2    0.69    2.39
   8  13  -2  164.12    5.56
   8 -13  -2  158.00    5.97
  -7  13   2  109.42    4.52
   7  13  -2  109.08    9.13
   7 -13  -2  103.97    7.81
  -6  13   2   48.44    4.71
   6  13  -2   45.78    5.37
   6 -13  -2   38.14    3.47
  -5  13   2   -0.50    1.91
   5 -13  -2    0.95    1.60
   5 -13  -2    1.04    2.35
   4  13  -2    0.00    1.77
  -4  13   2   -0.22    1.86
   4 -13  -2    0.36    2.09
   4 -13  -2   -1.61    2.35
   3  13  -2    8.45    2.42
  -3  13   2    6.06    2.33
   3 -13  -2    6.30    1.88
   3 -13  -2    3.04    2.50
   2  13  -2    2.71    2.26
  -2  13   2    2.55    1.90
   2 -13  -2    3.37    1.96
   2 -13  -2    2.03    2.42
   1  13  -2    0.49    2.00
  -1  13   2    0.22    1.83
   1 -13  -2    0.16    1.91
   1 -13  -2    0.17    2.44
   0  13  -2    5.44    2.02
   0  13   2    5.18    2.08
   0 -13  -2    4.89    2.15
   0 -13  -2    3.28    2.42
  -1  13  -2    8.47    2.06
   1  13   2    9.22    2.24
   1 -13   2    8.97    2.45
  -1 -13  -2   12.96    2.81
   2  13   2   -0.68    1.71
   2 -13   2    0.10    1.65
   2 -13   2    0.08    2.02
  -2 -13  -2    0.98    2.43
   3  13   2   -0.25    1.84
   3 -13   2    0.19    1.87
   3 -13   2    0.97    2.04
  -3 -13  -2    0.41    2.57
   4  13   2   10.09    3.74
   4 -13   2    8.99    2.01
   4 -13   2   15.28    2.34
  -4 -13  -2   14.48    2.84
   5 -13   2   13.87    2.18
   5  13   2   12.23    6.21
   5 -13   2    8.35    2.47
   5 -13   2    7.99    2.53
  -5 -13  -2    7.61    2.62
   6 -13   2   63.79    5.20
   6  13   2   65.70    5.44
   6 -13   2   74.95    5.83
   6 -13   2   70.37    5.88
  -6 -13  -2   85.07    6.70
   7  13   2    9.78    6.67
   7 -13   2   15.29    2.59
   7 -13   2   13.96    2.93
  -7 -13  -2   14.57    2.77
   8  13   2  104.26    5.66
   8 -13   2  101.94    5.10
   8 -13   2  103.20    5.31
  -8 -13  -2   99.58    4.94
   9  13   2   54.78    4.21
   9 -13   2   53.03    4.19
   9 -13   2   55.72    4.32
  10  13   2    8.69    2.57
  10 -13   2    6.08    2.94
 -10 -13  -2    4.15    2.42
  11  13   2   15.64    3.00
  11 -13   2   13.94    3.23
 -11 -13  -2   14.63    5.03
  12 -13   2   15.67    3.55
 -12 -13  -2   18.92    4.69
  13 -13   2   15.07    3.15
 -13 -13  -2   17.88    4.38
  14 -13   2   36.77    4.11
 -14 -13  -2   35.90    3.64
  15  13   2    2.86    2.32
  15 -13   2    4.03    3.13
 -15 -13  -2    6.49    3.37
  16  13   2   17.00    3.09
  16 -13   2   20.45    3.81
 -16 -13  -2   19.45    3.43
  17  13   2    1.32    2.94
  17 -13   2    4.29    3.72
 -17 -13  -2    4.75    3.31
  18  13   2    3.73    2.95
  18 -13   2    1.15    3.07
 -18 -13  -2    0.37    3.25
  18  14  -2   65.55    4.39
  18 -14  -2   57.42    4.75
 -18 -14   2   58.82    4.24
  17  14  -2    1.13    2.79
  17 -14  -2    0.12    2.98
  16  14  -2   21.39    3.33
  16 -14  -2   26.73    3.73
 -16 -14   2   23.27    3.82
  15  14  -2    4.67    2.60
  15 -14  -2    4.30    3.31
  14 -14  -2   38.79    4.13
 -14 -14   2   40.22    3.85
  13 -14  -2    1.35    2.89
  12 -14  -2   16.93    3.24
 -12 -14   2   13.46    3.21
  11  14  -2    0.29    2.50
  11 -14  -2    2.64    2.77
  10  14  -2   39.04    3.33
  10 -14  -2   44.69    3.80
   9  14  -2    1.00    3.90
   9 -14  -2    1.64    2.63
   8  14  -2    0.30    2.14
   8 -14  -2    2.59    2.67
  -7  14   2    5.57    2.28
   7  14  -2    6.49    2.40
   7 -14  -2    6.24    2.77
  -6  14   2    2.14    1.94
   6  14  -2    1.89    2.49
   6 -14  -2    0.97    2.72
   5  14  -2   50.38    4.69
  -5  14   2   51.69    4.58
   5 -14  -2   61.75    5.54
   4  14  -2   70.22    5.59
  -4  14   2   67.39    5.46
   4 -14  -2   62.43    5.48
   3  14  -2    5.10    2.27
  -3  14   2    2.33    2.19
   3 -14  -2    4.07    1.97
   3 -14  -2    3.96    2.43
   2  14  -2    2.19    2.20
  -2  14   2    1.72    2.01
   2 -14  -2    1.88    1.84
   2 -14  -2    1.56    2.75
   1  14  -2   48.87    4.98
  -1  14   2   43.74    4.48
   1 -14  -2   47.20    4.64
   1 -14  -2   50.69    5.38
   0  14  -2   13.94    2.35
   0  14   2   12.59    2.55
   0 -14  -2   17.97    3.01
   1  14   2   23.04    2.79
  -1 -14  -2   27.29    3.83
   2  14   2    6.09    5.55
   2 -14   2    5.93    2.27
  -2 -14  -2    7.09    2.63
   3  14   2   35.98    3.77
   3 -14   2   32.11    3.41
   3 -14   2   34.79    3.63
   3 -14   2   37.19    3.97
  -3 -14  -2   35.62    4.10
   4 -14   2    1.23    2.42
   4 -14   2    1.40    1.98
   4 -14   2    3.79    2.40
  -4 -14  -2    0.51    2.54
   5  14   2   72.10    4.70
   5 -14   2   78.39    4.93
   5 -14   2   80.13    5.30
  -5 -14  -2   88.53    5.60
   6  14   2    0.38    2.43
   6 -14   2    0.04    2.47
   6 -14   2    0.05    2.27
  -6 -14  -2   -0.89    2.45
   7  14   2   14.37    2.61
   7 -14   2   21.02    2.86
   7 -14   2   24.18    3.00
  -7 -14  -2   25.38    3.24
   8  14   2   13.70    2.73
   8 -14   2   11.76    2.73
   8 -14   2   12.59    3.04
  -8 -14  -2   12.38    2.93
   9  14   2   31.48    3.21
   9 -14   2   29.28    3.64
  -9 -14  -2   30.17    3.40
  10  14   2   41.63    3.91
  10 -14   2   42.69    4.33
 -10 -14  -2   44.37    4.51
  11  14   2    0.02    2.45
  11 -14   2   -0.92    2.78
 -11 -14  -2    1.24    2.82
  12  14   2    7.79    3.04
  12 -14   2   11.22    3.26
 -12 -14  -2   10.35    4.29
  13 -14   2   22.00    3.49
 -13 -14  -2   19.50    4.60
  14 -14   2   10.45    3.06
 -14 -14  -2   10.81    3.06
  15 -14   2    6.67    3.61
 -15 -14  -2    8.13    3.37
  16  14   2    0.66    2.91
  16 -14   2    3.77    3.05
 -16 -14  -2    3.13    3.36
  17  14   2    7.56    3.36
  17 -14   2    8.58    3.49
 -17 -14  -2    7.75    3.58
  17  15  -2   19.89    3.36
  17 -15  -2   28.71    3.92
 -17 -15   2   24.64    3.77
  16  15  -2    2.05    2.74
  16 -15  -2    1.80    3.02
 -16 -15   2    1.13    5.44
  15 -15  -2    2.93    3.42
 -15 -15   2    3.48    3.38
  14 -15  -2    1.54    2.84
 -14 -15   2    0.56    2.93
  13 -15  -2   -1.12    2.58
 -13 -15   2    5.66    4.10
  12  15  -2    2.92    2.61
  12 -15  -2    5.36    3.36
  11  15  -2   -0.49    2.56
  11 -15  -2    1.90    2.86
  10  15  -2   36.35    3.33
  10 -15  -2   34.33    3.63
   9 -15  -2   -0.66    2.60
   8  15  -2   17.35    2.94
   8 -15  -2   21.55    3.07
   7  15  -2   -1.35    2.45
   7 -15  -2   -0.46    2.61
  -6  15   2   29.43    2.93
   6  15  -2   29.23    2.93
   6 -15  -2   33.02    3.69
  -5  15   2   12.19    2.69
   5  15  -2   13.07    4.63
   5 -15  -2   10.68    2.80
   4  15  -2    4.51    2.34
  -4  15   2    4.51    2.16
   4 -15  -2    7.80    2.84
   3  15  -2   15.97    2.73
  -3  15   2   16.90    2.69
   3 -15  -2   11.53    2.77
   2  15  -2    8.81    2.61
  -2  15   2    8.89    2.09
   2 -15  -2    6.97    2.85
   1  15  -2   15.40    2.66
  -1  15   2   14.97    2.61
   1 -15  -2   13.23    2.96
   0  15  -2    4.52    2.03
   0  15   2    3.66    2.12
   0 -15  -2    5.52    2.83
   1  15   2   13.24    2.35
  -1 -15  -2   14.61    3.08
   2  15   2    7.11    3.37
   2 -15   2   10.05    2.64
   2 -15   2    9.16    2.49
  -2 -15  -2    8.84    2.69
   3 -15   2    5.13    2.26
   3 -15   2    7.28    2.69
  -3 -15  -2    5.85    2.97
   4  15   2   39.18    3.28
   4 -15   2   36.80    3.02
   4 -15   2   37.04    3.51
  -4 -15  -2   38.77    3.58
   5  15   2    3.21    3.56
   5 -15   2    6.15    2.42
   5 -15   2    4.37    2.86
   6  15   2   22.54    4.05
   6 -15   2   24.10    3.03
   6 -15   2   26.42    3.42
  -6 -15  -2   30.27    3.52
   7  15   2   17.09    2.68
   7 -15   2   19.69    3.09
  -7 -15  -2   19.11    3.16
   8  15   2    4.01    2.33
   8 -15   2    3.96    2.94
  -8 -15  -2    3.74    2.64
   9  15   2    0.78    2.57
   9 -15   2    0.41    3.08
  -9 -15  -2    0.25    2.96
  10  15   2    0.78    2.27
  10 -15   2   -1.21    3.11
 -10 -15  -2    0.25    3.07
  11  15   2   -0.71    2.58
  11 -15   2   -1.92    2.72
 -11 -15  -2    0.87    3.14
  12  15   2   20.81    3.13
  12 -15   2   17.69    3.50
 -12 -15  -2   16.79    3.18
  13  15   2   -1.46    2.56
  13 -15   2    4.40    2.88
 -13 -15  -2    1.56    4.77
  14 -15   2   19.14    3.82
 -14 -15  -2   20.75    3.58
  15 -15   2    0.98    3.48
 -15 -15  -2    3.32    3.47
  16 -15   2   12.51    3.91
 -16 -15  -2   13.84    3.45
  16 -16  -2  150.42    6.90
 -16 -16   2  145.83    5.98
  15 -16  -2    6.16    3.06
  14 -16  -2   76.19    4.99
  13  16  -2   -1.31    2.63
  13 -16  -2    2.78    3.33
  12  16  -2  145.82    5.70
  12 -16  -2  134.89    5.89
  11 -16  -2    1.70    2.93
  10  16  -2  132.66    6.69
  10 -16  -2  134.89    7.33
   9 -16  -2    4.23    3.10
   8  16  -2   93.53    5.15
   8 -16  -2   98.52    5.62
   7 -16  -2    4.75    2.92
   6  16  -2  105.10    4.75
   6 -16  -2   96.57    5.33
  -5  16   2   -0.11    2.05
   5 -16  -2    1.82    2.53
   4  16  -2  153.56    6.93
  -4  16   2  151.28    6.82
   4 -16  -2  133.52    6.89
   3  16  -2    3.29    2.49
  -3  16   2    3.67    2.17
   3 -16  -2    3.53    2.54
   2  16  -2  147.09    6.60
  -2  16   2  138.70    6.28
   2 -16  -2  150.20    7.22
   1  16  -2    5.47    2.17
  -1  16   2    5.78    2.40
   1 -16  -2    7.26    2.77
   0  16  -2   30.85    3.31
   0  16   2   31.04    2.92
   0 -16   2   31.11    3.35
   0 -16  -2   33.03    3.46
   1 -16   2   15.61    2.94
   1 -16   2   13.99    2.78
  -1 -16  -2   15.19    3.10
   2  16   2   64.20    5.73
   2 -16   2   56.34    4.27
   2 -16   2   55.55    4.69
  -2 -16  -2   60.69    4.78
   3 -16   2   20.85    2.85
   3 -16   2   18.63    3.47
  -3 -16  -2   20.35    3.04
   4  16   2  130.76    5.32
   4 -16   2  128.88    5.15
   4 -16   2  130.28    5.63
  -4 -16  -2  133.75    5.65
   5 -16   2    1.33    2.58
   5 -16   2    0.91    2.47
  -5 -16  -2   -1.02    2.62
   6  16   2   57.47    3.71
   6 -16   2   50.25    3.79
  -6 -16  -2   45.41    3.98
   7 -16   2    6.09    2.68
  -7 -16  -2    5.25    2.97
   8  16   2   50.87    3.71
   8 -16   2   42.35    4.17
  -8 -16  -2   39.35    3.80
   9  16   2    3.71    2.68
   9 -16   2    6.86    2.66
  -9 -16  -2    7.64    2.94
  10  16   2   24.44    3.19
  10 -16   2   24.57    3.60
 -10 -16  -2   20.41    5.18
  11  16   2   27.01    3.29
  11 -16   2   32.22    4.08
 -11 -16  -2   36.06    4.78
  12  16   2   31.33    3.47
  12 -16   2   26.60    3.95
 -12 -16  -2   29.60    5.92
  13  16   2   15.27    3.20
  13 -16   2   16.39    3.70
 -13 -16  -2   21.02    5.00
  14  16   2   12.79    3.27
  14 -16   2   13.79    3.27
 -14 -16  -2    7.17    5.35
  14  17  -2   12.79    3.27
  14 -17  -2   13.00    3.52
  13  17  -2    1.76    3.10
  13 -17  -2    1.89    3.08
  12  17  -2    0.00    2.79
  12 -17  -2    2.60    3.02
  11  17  -2    7.67    2.83
  11 -17  -2    8.94    3.28
  10  17  -2    4.28    2.34
  10 -17  -2    3.41    3.65
   9  17  -2    1.95    2.74
   9 -17  -2    4.68    3.23
   8  17  -2    1.20    2.60
   8 -17  -2   -0.56    2.82
   7  17  -2    3.11    2.62
   7 -17  -2    3.59    2.81
   6  17  -2    2.40    2.83
   6 -17  -2    3.08    3.26
   5  17  -2   24.31    3.02
   5 -17  -2   21.44    3.33
   4  17  -2    1.83    3.49
  -4  17   2    3.49    2.28
   4 -17  -2    4.42    3.25
   3  17  -2    1.19    2.30
  -3  17   2    3.54    2.24
   3 -17  -2    2.55    3.10
   2  17  -2   50.55    3.71
  -2  17   2   45.00    3.56
   2 -17  -2   52.54    4.22
  -2 -17   2   48.08    4.10
   1  17  -2   13.01    2.54
  -1  17   2   13.67    2.44
   1 -17  -2   17.47    3.39
  -1 -17   2   17.69    3.24
   0  17  -2   13.27    2.95
   0  17   2   12.92    2.56
   0 -17   2   15.66    3.08
   0 -17  -2   15.92    3.26
   1  17   2   16.23    2.90
   1 -17   2   18.40    2.95
   1 -17   2   22.86    3.14
  -1 -17  -2   18.24    3.57
   2  17   2    2.35    2.48
   2 -17   2    3.84    2.76
   2 -17   2    3.14    2.96
  -2 -17  -2    3.83    3.22
   3  17   2    8.75    3.00
   3 -17   2   11.60    2.56
   3 -17   2   12.52    3.26
  -3 -17  -2   10.13    3.09
   4  17   2    6.02    2.69
   4 -17   2   12.75    2.53
   4 -17   2   13.31    3.24
  -4 -17  -2   12.85    2.89
   5 -17   2    4.10    2.96
  -5 -17  -2    3.55    2.93
   6  17   2   34.73    4.57
   6 -17   2   46.29    4.29
  -6 -17  -2   49.69    4.29
   7  17   2   10.22    3.68
   7 -17   2   19.05    3.35
  -7 -17  -2   16.40    3.53
   8  17   2   16.72    6.51
   8 -17   2   18.26    3.23
  -8 -17  -2   16.86    3.38
   9  17   2   36.62    3.60
   9 -17   2   37.75    3.72
  -9 -17  -2   36.62    3.87
  10  17   2   43.20    3.79
  10 -17   2   38.08    3.78
 -10 -17  -2   39.57    4.20
  11  17   2   30.90    3.83
  11 -17   2   36.09    4.21
 -11 -17  -2   37.19    5.64
  12  17   2   11.36    3.14
  12 -17   2   11.62    3.79
 -12 -17  -2   14.33    3.81
  13  17   2   10.41    3.01
  13 -17   2   12.59    4.05
 -13 -17  -2   14.99    4.58
  13  18  -2   14.64    3.57
  13 -18  -2   16.08    3.58
  12  18  -2    5.34    3.30
  12 -18  -2    5.70    3.19
  11  18  -2    5.91    3.00
  11 -18  -2    6.96    3.20
  10  18  -2   13.10    3.05
  10 -18  -2    7.28    3.58
   9  18  -2    1.15    3.14
   9 -18  -2   -0.42    2.98
   8  18  -2   40.16    3.52
   8 -18  -2   36.71    4.14
   7  18  -2   11.49    7.34
   7 -18  -2   13.57    3.52
   6  18  -2   28.29    3.67
   6 -18  -2   21.87    3.41
   5  18  -2   19.17    5.51
   5 -18  -2   27.15    3.71
   4  18  -2   -0.23    2.40
   4 -18  -2    2.53    2.92
  -4 -18   2    2.31    2.97
   3  18  -2   11.57    2.67
   3 -18  -2   16.83    3.44
  -3 -18   2   14.16    3.19
   2  18  -2    1.88    2.38
  -2  18   2    7.16    2.52
   2 -18  -2    2.42    3.19
  -2 -18   2    3.76    3.20
   1  18  -2   14.58    2.93
  -1  18   2   14.78    2.75
  -1 -18   2   15.91    3.56
   1 -18  -2   19.10    3.56
   0  18   2   15.57    2.87
   0 -18   2   14.68    2.66
   0 -18   2    9.97    3.13
   0 -18  -2   11.32    3.45
   1  18   2   23.50    3.56
   1 -18   2   27.84    3.16
   1 -18   2   26.80    3.66
  -1 -18  -2   28.23    3.79
   2 -18   2    2.72    2.62
   2 -18   2    3.03    2.73
  -2 -18  -2    3.31    3.04
   3  18   2   19.21    4.08
   3 -18   2   24.02    3.12
   3 -18   2   23.37    3.48
  -3 -18  -2   25.67    3.72
   4  18   2    6.19    4.60
   4 -18   2    4.84    2.90
  -4 -18  -2    4.86    3.17
   5  18   2   15.72    3.18
   5 -18   2   19.38    3.23
  -5 -18  -2   18.68    3.56
   6  18   2    1.20    3.99
   6 -18   2   -0.59    2.19
  -6 -18  -2    1.27    3.01
   7  18   2   19.88    3.38
   7 -18   2   20.49    3.82
  -7 -18  -2   14.10    3.77
   8  18   2    0.67    2.82
   8 -18   2    0.89    3.05
  -8 -18  -2    5.48    3.62
   9  18   2    3.18    2.44
   9 -18   2    1.27    3.24
  -9 -18  -2    1.68    3.36
  10  18   2    2.25    2.57
  10 -18   2    0.92    3.11
 -10 -18  -2   -1.64    3.14
  11  18   2   -0.44    2.82
  11 -18   2    1.72    3.30
 -11 -18  -2   -1.18    3.57
  10  19  -2   -0.40    2.78
  10 -19  -2    1.37    3.34
   9  19  -2    1.39    2.97
   9 -19  -2    0.08    3.26
   8  19  -2    9.60    2.89
   8 -19  -2   12.90    3.62
   7  19  -2    1.03    3.09
   7 -19  -2    0.76    2.96
   6  19  -2    1.94    2.94
   6 -19  -2    1.09    2.99
  -6 -19   2    0.65    3.21
   5  19  -2    1.58    2.40
   5 -19  -2    1.41    3.47
  -5 -19   2    1.15    3.13
   4  19  -2    0.69    2.58
   4 -19  -2   -2.38    3.54
  -4 -19   2    1.54    3.11
   3  19  -2    0.76    2.56
   3 -19  -2    0.92    2.91
  -3 -19   2   -1.60    3.25
   2  19  -2    3.16    2.75
   2 -19  -2    5.36    3.18
  -2 -19   2    4.86    3.33
   1  19  -2    2.33    2.67
  -1  19   2    0.10    2.57
   1 -19  -2    1.86    2.96
  -1 -19   2    1.57    2.97
   0  19   2   -0.03    2.32
   0 -19   2   -0.07    2.46
   0 -19   2    1.46    2.89
   0 -19  -2   -0.89    3.05
   1  19   2    3.94    2.64
   1 -19   2    5.11    2.82
   1 -19   2    6.47    2.92
  -1 -19  -2    6.65    3.28
   2  19   2    0.01    2.43
   2 -19   2    1.11    2.93
  -2 -19  -2    0.11    2.94
   3  19   2    4.38    4.02
   3 -19   2    7.90    3.16
  -3 -19  -2    4.33    2.98
   4  19   2    3.47    2.68
   4 -19   2   -0.23    2.42
  -4 -19  -2    1.44    3.09
   5  19   2    1.13    2.36
   5 -19   2   -0.98    3.06
  -5 -19  -2    0.11    3.23
   6  19   2    0.52    2.71
   6 -19   2    0.82    3.10
  -6 -19  -2   -0.06    3.49
   7  19   2    0.56    2.94
   7 -19   2   -0.46    3.26
  -7 -19  -2    0.59    3.59
   8  19   2    8.13    3.17
   8 -19   2    2.94    3.67
  -8 -19  -2   13.54    4.03
   9  19   2   11.52    3.20
   9 -19   2   10.50    3.44
  -9 -19  -2   16.03    3.52
   7 -20  -2    4.11    3.22
  -7 -20   2    7.42    3.65
   6  20  -2   47.31    4.12
   6 -20  -2   41.05    4.14
  -6 -20   2   46.68    4.19
   5 -20  -2    1.37    3.37
  -5 -20   2    2.75    3.35
   4  20  -2   24.68    3.35
   4 -20  -2   23.21    4.12
  -4 -20   2   22.55    3.88
   3  20  -2    8.38    2.94
   3 -20  -2    7.63    3.44
  -3 -20   2    6.61    3.04
   2  20  -2   26.46    3.21
   2 -20  -2   26.83    3.93
  -2 -20   2   27.34    3.86
  -1 -20   2   13.57    3.01
   1 -20  -2   13.75    3.52
  -1 -20   2   15.77    3.47
   0 -20   2   53.22    3.89
   0 -20   2   55.89    4.40
   0 -20  -2   49.66    4.37
   1  20   2   23.47    7.08
   1 -20   2   32.47    4.03
  -1 -20  -2   29.53    3.84
   2  20   2   28.54    6.57
   2 -20   2   23.59    3.83
  -2 -20  -2   29.90    3.81
   3  20   2   30.07    8.50
   3 -20   2   41.50    4.21
  -3 -20  -2   41.49    3.89
   4  20   2   54.29    4.09
   4 -20   2   50.52    4.57
  -4 -20  -2   57.06    4.57
   5 -20   2    4.27    3.58
  -5 -20  -2    7.24    3.43
   6  20   2   31.52    6.56
   6 -20   2   29.26    4.02
  -6 -20  -2   27.61    3.85
 -25   0   3    2.79    3.53
 -24   0   3   -2.06    3.28
  22   0  -3   -1.77    2.52
  21   0  -3    0.10    2.66
  20   0  -3    0.10    2.23
  20   0  -3   -0.24    2.43
  19   0  -3   -0.70    2.35
  19   0  -3   -0.68    2.46
  18   0  -3   -0.34    2.25
  18   0  -3    0.40    2.07
  17   0  -3    0.18    1.73
 -17   0   3    0.23    1.86
  17   0  -3    0.50    2.19
  16   0  -3   -0.20    1.75
 -16   0   3   -0.19    1.84
  16   0  -3    0.23    2.21
  15   0  -3    0.67    1.87
 -15   0   3   -0.34    1.90
  15   0  -3   -0.24    2.21
  14   0  -3    1.31    1.81
 -14   0   3   -0.32    1.67
  14   0  -3   -0.19    2.13
 -14   0   3   -0.50    1.86
  13   0  -3   -0.31    1.40
 -13   0   3    0.51    1.88
  13   0  -3    0.14    1.87
 -13   0   3   -0.17    1.68
  12   0  -3    0.78    1.76
 -12   0   3    0.24    2.00
  12   0  -3   -0.10    1.64
 -12   0   3    0.58    1.94
  11   0  -3    0.31    1.45
 -11   0   3    0.16    1.28
  11   0  -3    0.18    1.56
 -11   0   3   -0.50    1.56
  10   0  -3    0.58    1.33
 -10   0   3   -0.14    1.50
  10   0  -3    0.30    1.65
 -10   0   3   -0.42    1.61
   9   0  -3    0.06    1.17
  -9   0   3    0.26    1.42
   9   0  -3    0.29    1.47
  -9   0   3   -0.08    1.57
   8   0  -3    0.44    1.23
  -8   0   3   -0.01    1.24
   8   0  -3   -0.10    1.19
  -8   0   3    1.38    1.67
  -7   0   3   -0.11    1.12
  -7   0   3    0.19    1.17
   7   0  -3    0.05    1.43
  -7   0   3    0.08    1.28
  -6   0   3   -0.48    1.16
  -6   0   3    0.15    1.14
   6   0  -3    0.35    1.06
  -6   0   3    0.17    1.23
  -5   0   3    0.12    1.42
  -5   0   3    0.09    1.09
  -5   0   3   -0.15    1.21
  -5   0   3    0.55    1.28
  -4   0   3   -0.07    1.04
   4   0  -3    0.07    1.14
  -4   0   3   -0.20    1.20
  -4   0   3   -0.40    1.20
  -3   0   3   -0.23    1.12
   3   0  -3    0.00    1.08
  -3   0   3   -0.26    1.23
  -3   0   3    0.27    1.34
  -2   0   3   -0.06    1.18
   2   0  -3    1.15    1.24
  -2   0   3    1.35    1.88
   2   0  -3    0.34    1.78
   1   0  -3    0.32    1.21
  -1   0   3   -0.01    1.61
   1   0  -3   -0.07    2.07
   0   0  -3   -0.22    1.21
   0   0   3    0.37    1.03
   0   0  -3    0.05    1.09
   1   0   3   -0.19    1.06
  -1   0  -3    0.14    1.00
   2   0   3   -0.20    1.10
   2   0   3    0.45    1.19
  -2   0  -3    0.08    1.12
   3   0   3   -0.30    0.93
  -3   0  -3    0.59    1.39
   3   0   3    0.26    1.08
  -3   0  -3    0.21    1.13
   4   0   3   -0.13    1.12
  -4   0  -3   -0.03    1.29
   4   0   3   -0.01    1.21
  -4   0  -3    0.20    1.24
   5   0   3    0.36    1.21
  -5   0  -3   -0.52    1.27
   5   0   3   -0.50    1.36
  -5   0  -3   -0.36    1.46
   6   0   3    0.33    1.26
  -6   0  -3    0.91    1.32
   6   0   3   -0.31    1.42
  -6   0  -3    0.83    1.52
   7   0   3   -0.41    1.38
  -7   0  -3   -0.40    1.51
   7   0   3    0.85    1.79
  -7   0  -3   -0.34    1.55
   8   0   3    0.16    1.36
  -8   0  -3    0.96    1.72
   8   0   3   -0.39    1.70
  -8   0  -3    0.57    1.90
   9   0   3   -0.35    1.45
  -9   0  -3    0.44    1.74
   9   0   3   -0.12    1.73
  -9   0  -3    0.67    1.95
  10   0   3    1.65    1.59
 -10   0  -3    0.29    1.74
  10   0   3   -0.17    1.48
 -10   0  -3    0.30    1.96
  11   0   3   -0.23    1.56
 -11   0  -3    0.54    1.86
  11   0   3    1.96    1.92
  12   0   3   -0.56    1.84
 -12   0  -3    1.06    2.01
  12   0   3    0.44    2.27
  13   0   3    0.00    2.17
 -13   0  -3   -0.12    2.00
  13   0   3   -0.77    2.04
  14   0   3   -0.36    1.77
  14   0   3    0.62    2.24
  15   0   3   -0.30    2.33
  15   0   3    0.39    2.02
  16   0   3    1.01    3.49
  16   0   3   -0.18    2.57
  17   0   3    0.49    2.09
  17   0   3   -3.43    2.51
  18   0   3   -0.04    2.22
  18   0   3    1.50    2.57
  19   0   3    1.05    2.38
  19   0   3   -1.23    2.27
  20   0   3   -1.13    2.22
  20   0   3   -1.33    3.21
  21   0   3   -0.75    2.52
  21   0   3    0.90    3.36
  22   0   3   -3.12    3.41
  23   0   3   -0.36    3.32
 -25  -1   3   -1.62    3.22
  24  -1  -3   19.09    3.57
 -24  -1   3   20.83    3.93
  23  -1  -3    1.49    3.05
 -23  -1   3    0.74    2.63
  22  -1  -3   71.28    5.02
 -22  -1   3   73.69    5.13
  21   1  -3   -1.11    1.92
  21  -1  -3    0.44    2.48
 -21  -1   3   -0.84    3.14
  20   1  -3   41.57    3.96
  20  -1  -3   40.03    3.88
 -20  -1   3   37.01    3.96
  19  -1  -3    7.64    2.96
  19   1  -3    6.76    4.08
  19  -1  -3    7.99    2.50
  18  -1  -3    0.20    2.99
  18   1  -3    1.28    1.79
 -18  -1   3    0.84    1.98
  18  -1  -3    0.67    2.25
  17  -1  -3    0.77    2.35
  17   1  -3    1.13    2.14
 -17  -1   3   -0.01    1.78
 -17   1   3   -0.06    2.00
  17   1  -3    1.87    2.02
  17  -1  -3   -0.30    2.01
  16  -1  -3   58.16    5.33
  16   1  -3   62.06    4.08
 -16  -1   3   62.43    3.61
 -16   1   3   65.16    3.64
  16   1  -3   61.78    3.95
  16  -1  -3   60.53    3.85
  15  -1  -3   78.56   14.32
  15   1  -3   79.23    9.53
 -15  -1   3   83.49    5.34
 -15   1   3   84.71    5.39
  15   1  -3   88.41    5.72
  15  -1  -3   84.39    5.71
  14  -1  -3  187.06   14.00
  14   1  -3  196.65   10.21
 -14  -1   3  202.64    7.87
 -14   1   3  199.32    7.79
  14   1  -3  198.35    8.09
  14  -1  -3  198.77    8.35
 -14  -1   3  191.30    8.25
 -14   1   3  188.66    8.01
 -13  -1   3   10.07    2.10
 -13   1   3   10.77    2.08
  13   1  -3   10.85    2.30
  13  -1  -3   10.63    2.57
 -13  -1   3    9.18    2.23
 -13   1   3    9.95    2.22
  12  -1  -3  291.82    9.32
  12   1  -3  308.10    9.59
 -12  -1   3  300.29    8.67
 -12   1   3  307.05    8.82
  12   1  -3  313.77    9.55
  12  -1  -3  301.42    9.13
 -12  -1   3  299.35    9.05
 -12   1   3  306.15    9.30
  11  -1  -3    0.83    1.63
 -11  -1   3    1.16    1.42
 -11   1   3    1.45    1.31
  11   1  -3    1.47    1.91
  11  -1  -3    0.14    1.70
 -11  -1   3    1.21    1.53
 -11   1   3    1.10    1.68
  10  -1  -3  481.73   14.80
  10   1  -3  471.13   15.15
 -10  -1   3  495.29   14.83
 -10   1   3  505.81   15.16
  10  -1  -3  496.21   15.90
 -10  -1   3  489.34   15.14
 -10   1   3  493.84   15.28
   9   1  -3   31.49    2.81
  -9  -1   3   30.46    2.78
  -9   1   3   30.54    2.73
  -9   1   3   26.33    2.57
   9  -1  -3   30.90    3.17
  -9  -1   3   26.61    2.82
  -9   1   3   26.94    2.79
  -9  -1   3   27.46    2.87
   8   1  -3  222.94    9.51
  -8   1   3  231.67    9.25
  -8  -1   3  232.02    9.23
  -8   1   3  221.29    8.98
   8  -1  -3  221.28   10.00
  -8  -1   3  218.09    9.14
  -8   1   3  220.95    9.27
  -8  -1   3  209.79    9.25
   7   1  -3   30.28    2.65
  -7   1   3   28.35    2.61
  -7  -1   3   31.87    2.74
  -7   1   3   35.72    3.00
  -7  -1   3   31.79    2.96
   7  -1  -3   33.16    3.01
  -7   1   3   35.65    3.07
  -7  -1   3   32.20    2.94
  -6   1   3  130.21    8.34
  -6  -1   3  133.36    8.52
  -6   1   3  117.33    7.70
  -6  -1   3  120.71    8.13
  -6  -1   3  123.14    8.15
   6  -1  -3  124.39    8.48
  -6   1   3  118.51    7.88
  -6  -1   3  120.16    7.97
  -5  -1   3    0.22    1.24
  -5   1   3    0.33    1.33
  -5  -1   3    0.50    1.05
   5  -1  -3    0.36    1.09
  -5  -1   3   -0.30    1.24
  -5   1   3    0.68    1.34
  -5  -1   3   -0.15    1.24
  -4  -1   3   69.34    5.09
  -4   1   3   71.72    5.27
   4  -1  -3   64.17    4.89
  -4  -1   3   68.00    5.05
  -4   1   3   66.53    5.08
  -4  -1   3   71.03    5.28
   4   1  -3   68.12    5.21
  -3   1   3  122.90    8.01
   3  -1  -3  124.80    8.12
  -3  -1   3  124.60    8.11
   3   1  -3  124.13    8.07
  -3   1   3  124.82    8.21
  -3  -1   3  129.78    8.44
   3   1  -3  133.15    8.71
  -2   1   3  297.59    8.58
   2  -1  -3  312.89    9.11
   2   1  -3  302.81    8.68
  -2  -1   3  303.97    8.78
   2   1  -3  298.78    8.82
   1  -1  -3  718.24   15.88
   1   1  -3  629.50   14.11
   1  -1  -3  646.52   14.74
  -1  -1   3  653.00   14.65
   1   1  -3  634.39   14.65
   1  -1  -3  678.14   16.26
   0  -1  -3 4698.96   74.93
   0   1   3 4842.44   30.34
   0  -1  -3 4701.76   75.20
   0  -1   3 4843.29   30.00
   0   1  -3 4690.35   75.05
  -1  -1  -3 2694.97   45.61
   1  -1   3 2619.59   44.08
   1   1   3 2854.83   47.91
  -1  -1  -3 2865.05   48.08
   1  -1   3 2821.63   47.31
  -1   1  -3 2620.03   44.29
   2  -1   3  161.68   10.17
  -2   1  -3  163.04   10.23
   2   1   3  182.88   11.33
  -2  -1  -3  210.20   12.96
   2  -1   3  191.35   11.76
  -2   1  -3  188.15   11.55
   3   1   3   30.85    2.92
   3  -1   3   33.19    3.07
  -3   1  -3   34.43    3.29
   3   1   3   38.48    3.39
  -3  -1  -3   44.62    4.45
   3  -1   3   43.00    3.01
  -3   1  -3   39.84    2.94
   4   1   3   61.88    4.72
  -4  -1  -3   61.10    5.14
   4  -1   3   62.36    4.81
  -4   1  -3   61.15    4.93
   4   1   3   57.50    4.73
   4  -1   3   52.25    4.33
  -4  -1  -3   48.22    4.12
  -4   1  -3   60.12    4.74
   5   1   3   80.82    4.54
   5  -1   3   87.25    4.85
  -5  -1  -3   88.47    4.96
  -5   1  -3   84.29    4.85
   5   1   3   70.70    5.65
   5  -1   3   57.28    3.92
  -5   1  -3   77.16    4.59
   6   1   3   42.07    3.31
   6  -1   3   47.48    3.48
  -6  -1  -3   48.43    3.42
  -6   1  -3   47.67    3.58
   6   1   3   39.80    3.32
   6  -1   3   31.03    2.97
  -6  -1  -3   29.96    2.72
  -6   1  -3   41.26    3.28
   7   1   3   86.55    5.21
   7  -1   3   85.41    5.24
  -7  -1  -3   80.58    5.17
  -7   1  -3   81.15    5.05
   7   1   3   91.32    5.88
   7  -1   3  107.78    6.28
  -7  -1  -3  104.94    6.05
  -7   1  -3   88.82    5.42
   8   1   3   76.23    4.76
   8  -1   3   76.38    4.88
  -8  -1  -3   84.58    5.18
  -8   1  -3   80.16    4.93
   8   1   3   76.30    5.10
   8  -1   3   71.88    5.04
  -8  -1  -3   71.29    4.93
  -8   1  -3   74.43    5.01
   9   1   3  135.69    5.24
   9  -1   3  135.70    5.18
  -9  -1  -3  127.06    9.72
  -9   1  -3  132.03    4.91
   9   1   3  144.31    5.80
   9  -1   3  157.77    6.03
  -9  -1  -3  169.56    6.90
  -9   1  -3  146.98    6.00
  10   1   3  263.91    8.16
  10  -1   3  258.95    8.05
 -10  -1  -3  271.48    8.48
 -10   1  -3  270.43    8.38
  10   1   3  248.13    8.40
  10  -1   3  232.52    7.79
 -10  -1  -3  220.04    7.96
 -10   1  -3  247.76    8.25
  11   1   3  176.83    7.14
  11  -1   3  173.38    7.09
 -11  -1  -3  161.15    6.75
 -11   1  -3  166.96    7.29
  11   1   3  183.98    7.65
  11  -1   3  186.54   11.16
  12   1   3   43.58    3.19
  12  -1   3   44.25    3.20
 -12  -1  -3   49.19    3.39
 -12   1  -3   46.41    3.23
  12   1   3   42.81    3.46
  12  -1   3   36.23    3.01
  13   1   3   47.77    3.94
  13  -1   3   51.66    4.15
 -13   1  -3   43.05    3.26
  13   1   3   49.25    4.08
  13  -1   3   55.34    4.30
  14   1   3   18.55    2.39
  14  -1   3   18.40    2.59
 -14   1  -3   18.67    2.75
  14   1   3   17.25    2.58
  14  -1   3   13.70    2.84
  15   1   3    1.22    2.04
  15  -1   3    1.00    2.17
  15   1   3    1.88    2.47
  15  -1   3    2.52    2.56
  16  -1   3   37.00    3.29
  16   1   3   39.09    3.66
  16   1   3   39.78    3.54
  16  -1   3   42.68    3.81
  17   1   3    1.93    2.27
  17  -1   3    3.09    2.32
  17   1   3    2.62    2.60
  17  -1   3    1.57    2.57
  18  -1   3    0.38    2.60
  18   1   3    0.33    2.34
  18   1   3   -0.48    2.59
  18  -1   3   -0.92    2.50
  19   1   3   41.66    3.51
  19  -1   3   41.13    3.66
  19   1   3   40.84    3.85
  19  -1   3   42.52    4.05
  20  -1   3    5.04    2.35
  20   1   3    6.54    2.60
  20   1   3    0.80    3.01
  20  -1   3    6.20    3.14
  21   1   3   67.20    4.46
  21   1   3   70.56    4.59
  21  -1   3   66.85    4.82
  22   1   3    5.13    3.08
  22  -1   3    4.02    3.34
  25  -2  -3   56.07    4.79
 -25  -2   3   62.65    4.67
  24  -2  -3    9.06    3.05
 -24  -2   3    9.09    3.02
  23  -2  -3   23.50    3.65
 -23  -2   3   30.84    3.83
  22  -2  -3    1.73    2.53
 -22  -2   3    0.37    2.64
  21   2  -3   29.69    2.85
  21  -2  -3   40.00    3.63
 -21  -2   3   44.32    3.96
  20   2  -3   -1.21    2.30
  20  -2  -3   -0.99    2.33
 -20  -2   3    0.52    3.10
  19   2  -3   18.24    2.80
  19  -2  -3   20.77    2.99
 -19  -2   3   26.91    3.50
  18   2  -3    0.08    3.04
  18  -2  -3    0.15    2.40
 -18  -2   3    0.74    2.29
  17  -2  -3   92.98    9.10
  17   2  -3   93.27    6.86
  17  -2  -3  109.60    4.88
 -17  -2   3  113.16    5.06
  16  -2  -3   96.82   10.70
  16   2  -3   98.83    4.34
 -16  -2   3   94.97    7.93
 -16   2   3  101.24    4.91
  16  -2  -3  101.79    5.35
 -16  -2   3  100.00    5.14
  15   2  -3    8.17    2.27
 -15  -2   3   11.09    2.13
 -15   2   3    9.83    2.33
  15  -2  -3   11.86    2.48
 -15  -2   3   10.29    2.58
  14  -2  -3   56.22    4.80
  14   2  -3   53.55    3.47
 -14  -2   3   62.60    3.85
 -14   2   3   63.93    3.87
  14  -2  -3   65.24    4.36
 -14   2   3   64.16    4.25
 -14  -2   3   67.57    4.51
 -13  -2   3    3.49    1.93
 -13   2   3    4.07    1.77
  13  -2  -3    4.12    1.79
 -13  -2   3    4.17    2.18
 -13   2   3    4.27    2.22
 -13  -2   3    5.07    2.17
  12   2  -3  101.82    4.95
 -12  -2   3  101.16    4.62
 -12   2   3  103.50    4.67
  12  -2  -3  102.04    5.07
 -12  -2   3   98.39    5.23
 -12   2   3   95.66    4.77
 -12  -2   3  101.26    5.15
  11   2  -3   15.98    9.55
 -11  -2   3   15.89    2.11
 -11   2   3   15.82    2.11
 -11   2   3   16.57    2.27
 -11  -2   3   16.28    2.59
  11  -2  -3   15.18    2.46
 -11   2   3   17.16    2.39
 -11  -2   3   18.05    2.70
  10   2  -3   10.62    1.88
 -10   2   3   11.63    1.96
 -10  -2   3   10.23    1.88
 -10   2   3   11.28    2.00
  10  -2  -3   11.53    2.11
 -10  -2   3   10.84    2.22
 -10   2   3   10.97    2.02
 -10  -2   3   12.64    2.36
   9   2  -3    0.50    1.32
  -9  -2   3   -0.22    1.47
  -9   2   3    0.40    1.30
  -9   2   3    0.58    1.64
  -9  -2   3    0.40    1.68
   9  -2  -3    0.91    1.48
  -9   2   3   -0.16    2.57
  -9  -2   3   -0.45    1.51
  -8   2   3  121.14    6.08
  -8  -2   3  128.58    6.10
  -8  -2   3  144.74    6.81
   8  -2  -3  169.13    9.86
  -8   2   3  159.85    7.24
  -8  -2   3  165.85    7.55
   7   2  -3   -0.68    1.03
  -7   2   3    0.36    1.35
  -7  -2   3   -0.23    1.35
  -7   2   3    0.58    1.32
  -7  -2   3    0.00    1.62
   7  -2  -3    0.97    1.32
  -7   2   3    0.00    1.44
  -7  -2   3    0.12    1.39
   6   2  -3   78.39    5.98
  -6   2   3   83.53    5.86
  -6  -2   3   84.75    5.96
  -6   2   3   78.90    5.75
  -6  -2   3   77.51    5.68
   6  -2  -3   76.77    6.25
  -6   2   3   78.81    5.79
  -6  -2   3   75.06    5.62
  -5  -2   3   18.91    2.19
  -5   2   3   18.27    2.30
   5  -2  -3   16.89    2.16
  -5  -2   3   17.75    2.45
   5  -2  -3   12.94    1.94
  -5   2   3   17.13    2.24
  -5  -2   3   16.76    2.32
   5   2  -3   16.54    2.35
  -4  -2   3  198.22   12.31
  -4   2   3  197.81   12.00
   4  -2  -3  205.10   12.43
  -4  -2   3  213.83    6.23
  -4   2   3  210.72   12.71
  -4  -2   3  208.79   12.68
   4   2  -3  211.06   12.85
  -3  -2   3    4.35    1.36
  -3   2   3    4.61    1.52
   3  -2  -3    6.31    1.56
   3  -2  -3    9.31    2.24
  -3   2   3    8.71    2.69
  -3  -2   3   11.13    2.02
   3   2  -3   13.31    2.07
   2   2  -3   15.92    2.05
   2  -2  -3   22.32    2.65
  -2  -2   3   16.84    2.38
   2   2  -3   21.48    2.70
  -2   2   3   18.53    2.61
  -1   2   3  494.65   11.92
   1  -2  -3  502.75   11.96
  -1  -2   3  588.74   13.63
   1   2  -3  574.35   13.75
   1  -2  -3  563.15   13.55
   0   2   3 2024.92   35.24
   0  -2  -3 2035.47   35.55
   0  -2   3 1972.06   34.42
   0  -2  -3 2131.00   37.26
   0   2  -3 2109.23   36.97
  -1  -2  -3   10.32    1.91
   1  -2   3   11.87    1.91
  -1   2  -3   10.28    1.91
  -1  -2  -3   11.52    2.03
   1  -2   3   10.94    1.89
  -1   2  -3   15.45    2.51
  -1  -2  -3    8.10    1.68
  -2  -2  -3 2164.81   37.57
   2  -2   3 2176.84   37.62
  -2   2  -3 2136.40   38.93
   2   2   3 2180.05   38.07
  -2  -2  -3 2155.08   37.50
   2  -2   3 2139.09   37.19
  -2   2  -3 2097.72   36.48
   3  -2   3  140.70    9.69
  -3   2  -3  153.57    9.70
   3   2   3  157.98   10.00
  -3  -2  -3  174.89   10.90
   3  -2   3  158.72   10.01
  -3   2  -3  170.02   10.61
   4   2   3  306.94    8.12
   4  -2   3  299.39    8.09
  -4   2  -3  317.27    8.32
   4   2   3  330.54    8.98
   4  -2   3  342.48    8.95
  -4   2  -3  347.69    8.86
   5   2   3   92.90    4.99
  -5  -2  -3   79.97    5.21
   5  -2   3   86.79    4.88
  -5   2  -3   86.11    4.75
   5   2   3   94.92    6.51
   5  -2   3  121.83    6.39
  -5   2  -3  104.82    5.53
   6   2   3  224.81    9.16
  -6  -2  -3  226.01    9.24
   6  -2   3  227.91    9.47
  -6   2  -3  223.65    9.43
   6   2   3  229.76    9.97
  -6  -2  -3  228.14    9.42
   6  -2   3  217.39    9.15
  -6   2  -3  223.13    9.35
   7   2   3    1.56    1.36
  -7  -2  -3    1.62    1.21
   7  -2   3    1.25    1.55
  -7   2  -3    1.39    1.49
   7   2   3    0.89    1.54
  -7  -2  -3    1.93    1.60
   7  -2   3    2.07    1.86
  -7   2  -3    1.62    1.56
   8   2   3  148.11    7.62
   8  -2   3  148.06    7.65
  -8  -2  -3  153.14    7.89
  -8   2  -3  152.23    7.72
   8   2   3  147.26    8.09
  -8  -2  -3  130.08    7.02
   8  -2   3  132.21    7.92
  -8   2  -3  141.37    7.44
   9   2   3   60.99    5.31
   9  -2   3   59.15    5.25
  -9  -2  -3   57.75    5.13
  -9   2  -3   57.45    5.09
   9   2   3   64.37    5.76
   9  -2   3   64.06    5.63
  -9  -2  -3   63.91    5.68
  -9   2  -3   63.36    5.94
  10   2   3  226.32    7.40
  10  -2   3  220.00    7.29
 -10  -2  -3  219.89    7.25
 -10   2  -3  218.88    7.38
  10   2   3  218.71    7.50
  10  -2   3  213.83    7.49
 -10  -2  -3  201.16    7.17
 -10   2  -3  208.14    7.18
  11   2   3  274.83    9.65
  11  -2   3  278.26    9.74
 -11  -2  -3  260.96    9.42
 -11   2  -3  272.11   10.14
  11   2   3  276.43   11.64
  11  -2   3  285.84   10.63
  12   2   3  210.85    8.26
  12  -2   3  210.42    8.30
 -12   2  -3  218.33    8.53
  12   2   3  209.70    8.39
  12  -2   3  199.62    8.20
  13   2   3  158.78    7.20
  13  -2   3  153.41    7.04
 -13   2  -3  154.71    7.11
  13   2   3  161.03    7.62
  13  -2   3  161.19    7.56
  14   2   3  199.09    7.34
  14  -2   3  193.18    7.34
 -14   2  -3  198.72    7.62
  14   2   3  197.33    7.59
  14  -2   3  183.68    7.26
  15   2   3   68.03    5.44
  15  -2   3   70.48    5.79
  15   2   3   71.07    5.90
  15  -2   3   69.92    5.86
  16   2   3   68.25    4.68
  16  -2   3   65.12    6.44
  16   2   3   66.34    4.88
  16  -2   3   59.47    4.63
  17   2   3    0.98    2.39
  17  -2   3    1.82    4.15
  17   2   3   -0.16    2.71
  17  -2   3    1.17    2.52
  18   2   3    2.68    2.26
  18  -2   3    1.85    2.50
  18   2   3    1.98    2.42
  18  -2   3    0.99    3.13
  19   2   3   11.97    2.43
  19  -2   3   12.67    8.77
  19   2   3   12.62    2.93
  19  -2   3   11.70    3.23
  20   2   3   23.53    2.97
  20   2   3   25.12    3.50
  20  -2   3   18.53    3.60
  21   2   3   14.50    3.04
  21   2   3   11.48    2.93
  21  -2   3   11.48    3.77
  22   2   3   17.55    3.08
  22  -2   3   17.29    3.72
  24  -3  -3   55.59    4.54
 -24  -3   3   60.27    4.67
  23  -3  -3    1.88    3.06
 -23  -3   3   -4.30    3.12
  22   3  -3  104.44    4.67
  22  -3  -3  107.93    5.18
 -22  -3   3  111.05    5.29
  21   3  -3    4.20    2.57
  21  -3  -3    9.43    3.04
 -21  -3   3    4.96    3.39
  20   3  -3  160.94    5.53
  20  -3  -3  164.98    6.18
 -20  -3   3  157.35    6.06
  19  -3  -3    2.03    2.38
 -19  -3   3    2.19    2.00
  18   3  -3  109.35    4.99
  18  -3  -3  110.70    5.36
 -18  -3   3  117.65    5.52
  17   3  -3   26.12    6.32
  17  -3  -3   29.60    3.74
 -17  -3   3   28.16    3.69
  16   3  -3  205.98    7.91
 -16   3   3  203.24    7.45
  16  -3  -3  205.32    7.73
 -16  -3   3  206.33    7.85
  15   3  -3    3.75    3.03
 -15  -3   3    4.75    2.05
 -15   3   3    4.72    2.03
  15  -3  -3    6.18    2.18
 -15  -3   3    7.51    2.33
  14   3  -3  626.07   10.37
 -14  -3   3  630.83   10.65
 -14   3   3  606.40   18.33
 -14   3   3  589.48   18.26
  14  -3  -3  592.98   18.72
 -14   3   3  614.64   18.82
 -14  -3   3  626.03   11.65
 -13  -3   3    2.57    1.73
 -13   3   3    3.34    1.56
 -13   3   3    2.69    2.90
 -13  -3   3    3.58    2.24
  13  -3  -3    2.85    1.88
 -13   3   3    2.06    1.96
 -13  -3   3    2.60    2.10
  12   3  -3  449.82   11.54
 -12  -3   3  436.97   11.56
 -12   3   3  429.27   11.03
 -12   3   3  410.38   10.92
 -12  -3   3  420.40   11.71
  12  -3  -3  398.68   11.10
 -12   3   3  426.09   11.51
 -12  -3   3  440.16   11.79
 -11  -3   3   34.81    2.80
 -11   3   3   34.82    2.80
 -11   3   3   37.74    3.77
 -11  -3   3   34.79    2.99
  11  -3  -3   35.95    3.04
 -11   3   3   36.62    3.07
 -11  -3   3   35.14    3.10
  10   3  -3  380.69   11.10
 -10  -3   3  390.13    9.99
 -10   3   3  393.42    9.55
 -10   3   3  417.31   10.00
 -10  -3   3  397.95   10.00
  10  -3  -3  406.91   12.69
 -10   3   3  403.91    9.93
 -10  -3   3  412.82   11.16
   9   3  -3  261.71    9.49
  -9   3   3  264.21    9.28
  -9  -3   3  266.42    9.76
  -9   3   3  283.67    9.98
  -9  -3   3  269.66    9.75
   9  -3  -3  287.62   10.90
  -9   3   3  269.14    9.51
  -9  -3   3  273.61    9.73
   8   3  -3 1076.59   18.15
  -8   3   3 1091.69   18.30
  -8  -3   3 1078.64   19.69
  -8   3   3 1079.73   18.35
  -8  -3   3 1076.74   19.22
   8  -3  -3  998.43   18.29
  -8   3   3 1058.46   18.15
  -8  -3   3 1066.17   19.17
  -7   3   3    2.21    1.32
   7   3  -3    2.19    1.08
  -7  -3   3    2.65    1.35
  -7   3   3    2.53    1.43
  -7  -3   3    4.20    1.61
   7  -3  -3    5.74    1.59
  -7   3   3    3.03    1.42
  -7  -3   3    5.13    1.76
   6   3  -3  602.22   12.44
  -6   3   3  605.34   12.66
   6  -3  -3  534.84   11.31
   6  -3  -3  528.51   12.16
  -6   3   3  557.42   11.81
  -6  -3   3  543.16   11.96
   6   3  -3  537.46   11.92
   5   3  -3    0.45    1.01
  -5  -3   3   -0.20    1.15
  -5   3   3    0.31    1.17
   5  -3  -3    0.53    1.44
   5  -3  -3    0.11    1.23
  -5   3   3   -0.07    1.13
  -5  -3   3    0.09    1.28
   5   3  -3    0.54    1.43
  -4  -3   3  849.95   17.72
  -4   3   3  936.58   18.86
   4  -3  -3  910.72   18.59
  -4   3   3  924.15   18.85
  -4  -3   3  949.00   19.21
   4   3  -3  957.09   19.52
  -3   3   3   16.18    2.16
   3  -3  -3   17.67    2.30
  -3   3   3   18.45    2.44
  -3  -3   3   16.73    2.28
   3   3  -3   18.15    2.47
  -2   3   3 1846.20   32.57
   2  -3  -3 1889.64   33.13
  -2  -3   3 1797.06   32.13
   2   3  -3 1726.55   31.34
  -2   3   3 1811.86   32.09
  -1   3   3  558.64   12.89
   1  -3  -3  550.54   12.75
  -1  -3   3  623.85   13.90
  -1  -3   3  612.61   14.05
   1   3  -3  616.71   14.85
  -1   3   3  627.73   14.79
   0  -3   3  947.53   19.08
   0  -3   3  902.29   18.65
   0   3  -3  913.03   18.90
   0   3   3  892.06   18.30
   1   3   3    2.28    1.31
  -1  -3  -3    4.55    1.54
   1  -3   3    2.01    1.23
  -1   3  -3    0.45    1.39
  -1  -3  -3    1.41    1.15
   1  -3   3    0.52    1.19
  -1   3  -3    0.21    1.28
  -1  -3  -3    1.69    1.39
  -2  -3  -3  558.03   13.60
   2  -3   3  541.44   13.43
  -2   3  -3  467.99   11.46
  -2  -3  -3  545.93   12.90
   2  -3   3  500.64   12.19
  -2  -3  -3  502.29   12.57
  -3  -3  -3    8.32    1.60
   3  -3   3    8.05    1.73
  -3   3  -3    3.92    1.51
  -3  -3  -3    6.00    1.72
   3  -3   3    6.18    1.66
  -3   3  -3    2.33    1.68
  -3  -3  -3    5.03    2.06
   4  -3   3  761.78   14.60
  -4   3  -3  737.23   14.04
  -4  -3  -3  749.63   14.52
   4  -3   3  741.24   14.43
  -4   3  -3  701.58   13.94
  -4  -3  -3  686.25   14.60
   5   3   3   73.21    4.33
   5  -3   3   65.25    4.12
  -5   3  -3   77.47    4.47
  -5  -3  -3   99.15    5.41
   5  -3   3   85.96    4.94
  -5   3  -3   96.86    5.30
   6   3   3  386.28    9.31
  -6  -3  -3  405.89    9.56
  -6   3  -3  399.78    9.40
   6   3   3  368.09   10.34
  -6  -3  -3  356.64    9.11
   6  -3   3  358.20    9.38
  -6   3  -3  359.80    9.49
   7   3   3  148.62    7.61
  -7  -3  -3  131.28    7.40
   7  -3   3  130.96    7.00
  -7   3  -3  139.68    7.26
   7   3   3  155.91    8.04
  -7  -3  -3  178.59    9.07
   7  -3   3  183.69    9.17
  -7   3  -3  159.35    8.64
   8   3   3  124.02    9.45
  -8  -3  -3  126.57    9.89
   8  -3   3  126.98    9.72
  -8   3  -3  133.04    5.02
   8   3   3  110.99    8.86
  -8  -3  -3   88.40    7.21
  -8   3  -3  108.65    8.73
   9   3   3  195.39    6.79
  -9  -3  -3  187.39    6.52
   9  -3   3  194.90    6.81
  -9   3  -3  187.40    6.82
   9   3   3  198.94    7.35
  -9  -3  -3  231.93    7.63
  -9   3  -3  206.38    7.22
  10   3   3   19.84    2.45
  10  -3   3   21.05    2.55
 -10  -3  -3   22.36    2.65
 -10   3  -3   27.85    2.83
  10   3   3   18.34    2.58
  10  -3   3    8.38    2.13
 -10   3  -3   16.61    2.48
  11   3   3   46.21    3.39
  11  -3   3   43.74    3.13
 -11   3  -3   38.26    3.01
  11   3   3   49.87    3.58
  12   3   3   82.13    5.35
  12  -3   3   78.87    5.20
 -12   3  -3   90.38    5.70
  12   3   3   73.21    5.07
  13   3   3   76.64    3.91
  13  -3   3   74.72    4.02
 -13   3  -3   66.18    3.79
  13   3   3   85.20    4.58
  13  -3   3   97.23    4.80
  14   3   3   31.81    3.02
  14  -3   3   31.54    3.01
 -14   3  -3   37.39    3.66
  14   3   3   33.96    3.36
  14  -3   3   20.31    3.18
  15   3   3  136.71    5.07
  15  -3   3  131.84    5.09
 -15   3  -3  128.40    5.78
  15   3   3  151.41    5.76
  15  -3   3  147.88    5.88
  16   3   3   26.88    2.82
  16  -3   3   24.60    4.67
  16   3   3   26.33    3.34
  16  -3   3   22.95    3.30
  17   3   3  103.97    6.24
  17  -3   3  111.43    8.89
  17   3   3  120.45    6.35
  17  -3   3  117.31    5.99
  18   3   3    1.57    2.29
  18  -3   3    0.27    2.34
  18   3   3    0.57    2.25
  18  -3   3   -1.36    2.90
  19   3   3  104.88    5.76
  19  -3   3  109.00    6.42
  20   3   3    2.45    2.69
  20  -3   3    3.54    3.19
 -20  -3  -3    1.78    3.30
  21   3   3   57.83    4.31
  21  -3   3   60.01    4.66
 -21  -3  -3   69.48    4.79
  22   3   3    0.59    2.95
 -22  -3  -3    1.44    3.63
  24  -4  -3    0.86    3.01
 -24  -4   3    0.83    3.29
  23   4  -3   40.66    3.51
  23  -4  -3   46.71    4.12
 -23  -4   3   49.28    4.12
  22   4  -3   13.09    3.18
  22  -4  -3   18.56    3.21
 -22  -4   3   15.25    3.45
  21   4  -3   10.19    2.58
  21  -4  -3   13.77    3.46
 -21  -4   3   13.58    2.98
  20   4  -3    1.65    2.11
  20  -4  -3    0.85    2.53
 -20  -4   3   -0.38    2.72
  19   4  -3   23.44    2.89
  19  -4  -3   27.55    3.30
 -19  -4   3   30.82    3.35
  18   4  -3    0.60    3.15
  18  -4  -3   -0.30    2.48
 -18  -4   3   -1.01    2.56
  17   4  -3    2.15    2.04
 -17   4   3    4.29    3.90
  17  -4  -3    5.11    2.53
 -17  -4   3    5.75    2.62
  16   4  -3   24.99    2.85
 -16   4   3   19.67    2.74
 -16   4   3   20.37    2.68
  16  -4  -3   20.12    2.74
 -16  -4   3   22.46    2.83
  15   4  -3    1.80    3.11
 -15   4   3    1.70    1.81
 -15   4   3    1.11    3.19
  15  -4  -3    1.52    2.24
 -15  -4   3    1.78    2.54
  14   4  -3    1.20    1.79
 -14   4   3    0.77    1.88
 -14   4   3    0.99    1.82
  14  -4  -3    1.12    1.81
 -14  -4   3   -0.04    2.53
  13   4  -3    1.23    2.19
 -13  -4   3    2.01    1.91
 -13   4   3    1.58    1.67
 -13   4   3    1.39    1.83
  13  -4  -3    1.92    1.86
 -13   4   3    1.07    2.12
 -13  -4   3    1.60    2.36
  12   4  -3   10.28    2.78
 -12  -4   3    9.67    1.92
 -12   4   3    8.99    2.02
 -12   4   3   10.14    2.15
 -12  -4   3    9.33    2.25
  12  -4  -3   10.00    2.23
 -12   4   3    9.33    2.28
 -12  -4   3    9.27    2.39
  11   4  -3   14.67    2.41
 -11  -4   3   13.82    2.39
 -11   4   3   13.30    2.24
 -11   4   3   13.74    2.40
 -11  -4   3   12.74    2.49
  11  -4  -3   13.26    2.50
 -11   4   3   13.81    2.61
 -11  -4   3   11.22    2.41
  10   4  -3    5.53    2.70
 -10  -4   3    5.49    1.94
 -10   4   3    6.48    1.84
 -10   4   3    6.63    1.88
 -10  -4   3    5.46    2.01
  10  -4  -3    5.51    1.70
 -10   4   3    6.59    2.03
 -10  -4   3    5.16    2.06
   9   4  -3    0.19    1.36
  -9   4   3    0.17    1.40
  -9  -4   3   -0.33    1.07
  -9   4   3    0.77    1.68
  -9  -4   3    0.73    1.40
   9  -4  -3    1.51    1.84
  -9   4   3    1.11    1.81
  -9  -4   3    0.42    1.86
   8   4  -3   49.11    3.67
  -8   4   3   51.08    3.74
  -8  -4   3   46.51    3.04
  -8   4   3   43.20    3.51
   8  -4  -3   33.00    3.18
  -8   4   3   38.96    3.27
  -8  -4   3   32.95    3.18
  -7   4   3  115.45    5.63
   7   4  -3  116.11    5.67
  -7  -4   3  115.83    5.67
  -7   4   3  113.69    5.65
   7  -4  -3  109.26    5.79
  -7   4   3  110.97    5.58
  -7  -4   3  112.66    5.79
   7   4  -3  112.70    5.88
   6   4  -3  782.77   14.77
  -6  -4   3  762.16   15.19
  -6   4   3  769.78   14.55
   6  -4  -3  817.36   15.13
   6  -4  -3  765.36   15.93
  -6   4   3  816.21   15.13
  -6  -4   3  815.08   15.45
   6   4  -3  794.57   15.35
   5   4  -3    2.66    1.30
  -5  -4   3    1.98    1.12
  -5   4   3    2.36    1.44
   5  -4  -3    3.24    1.38
   5  -4  -3    3.15    1.66
  -5   4   3    3.77    1.73
  -5  -4   3    4.64    1.65
   5   4  -3    3.89    1.68
   4   4  -3  587.45   13.13
  -4   4   3  635.50   14.10
   4  -4  -3  629.63   14.15
   4  -4  -3  630.12   14.47
  -4   4   3  646.92   14.51
  -4  -4   3  648.73   14.70
   4   4  -3  643.97   14.71
  -3   4   3    1.82    1.16
   3  -4  -3    2.30    1.34
   3  -4  -3    0.70    1.21
  -3   4   3   -0.15    1.36
  -3  -4   3    0.84    1.38
   3   4  -3    0.46    1.34
  -2  -4   3  159.84    9.93
  -2   4   3  175.66   10.83
   2  -4  -3  171.66   10.59
  -2  -4   3  194.68   11.78
   2  -4  -3  182.36   11.44
  -2  -4   3  201.51   12.30
   2   4  -3  201.79   12.41
  -2   4   3  188.16   11.60
  -1  -4   3   31.79    2.86
  -1   4   3   33.00    3.06
   1  -4  -3   32.19    2.96
  -1  -4   3   34.17    3.08
  -1  -4   3   34.06    3.22
   1  -4  -3   35.64    3.38
   1   4  -3   33.75    3.27
  -1   4   3   34.31    3.24
   0   4   3   69.82    5.18
   0  -4  -3   71.28    5.18
   0  -4   3   64.56    4.85
   0   4  -3   68.68    5.09
   0  -4   3   71.33    5.41
   0   4  -3   65.16    5.13
   0  -4  -3   69.05    5.33
   0   4   3   66.18    5.10
   1   4   3   35.40    3.63
  -1  -4  -3   33.27    3.07
   1  -4   3   34.28    3.10
  -1   4  -3   37.40    3.26
   1  -4   3   39.85    3.03
  -1   4  -3   36.65    3.34
  -1  -4  -3   38.74    3.53
   1   4   3   37.93    3.36
   2   4   3   87.63    4.80
  -2  -4  -3   84.26    4.57
   2  -4   3   90.37    4.96
  -2   4  -3   96.04    5.11
  -2  -4  -3   87.38    4.88
   2  -4   3   88.62    5.39
  -2   4  -3   92.83    5.03
  -2  -4  -3   97.53    5.54
  -3  -4  -3   55.59    3.74
   3  -4   3   52.61    3.74
  -3   4  -3   75.96    4.42
  -3  -4  -3   60.31    3.99
   3  -4   3   67.95    4.31
  -3   4  -3   79.93    4.91
  -3  -4  -3   73.84    4.55
  -4  -4  -3    2.35    1.25
   4  -4   3    2.43    1.48
  -4   4  -3    0.82    1.61
  -4  -4  -3    2.43    1.42
   4  -4   3    2.97    1.63
  -4   4  -3    0.83    1.49
  -4  -4  -3    1.63    1.41
   5  -4   3  296.64    8.38
  -5   4  -3  294.76    7.86
  -5  -4  -3  293.58    8.10
   5  -4   3  302.36    8.53
  -5   4  -3  298.44    8.46
  -5  -4  -3  294.23    8.60
   6   4   3  230.26    8.43
   6  -4   3  229.79    8.55
  -6   4  -3  233.23    8.60
  -6  -4  -3  239.35    8.89
   6  -4   3  234.27    8.85
  -6   4  -3  232.35    9.40
  -6  -4  -3  231.40    8.70
   7   4   3   93.12    5.45
  -7  -4  -3   88.41    5.57
   7  -4   3   92.18    5.55
  -7   4  -3   96.00    5.58
  -7  -4  -3   96.87    5.79
   7  -4   3   97.12    5.81
  -7   4  -3   96.86    5.69
  -7  -4  -3   94.36    5.64
   8   4   3  407.72    9.93
  -8  -4  -3  412.59   10.98
   8  -4   3  400.68    9.95
  -8   4  -3  411.31   10.07
  -8  -4  -3  381.68    9.67
   8  -4   3  390.40    9.99
  -8   4  -3  390.79   10.11
  -8  -4  -3  377.01   10.43
   9   4   3   33.75    2.97
   9  -4   3   29.56    3.41
  -9  -4  -3   31.16    2.75
  -9   4  -3   33.30    2.86
  -9  -4  -3   32.60    3.24
   9  -4   3   37.37    3.21
  -9   4  -3   33.59    3.08
  -9  -4  -3   31.90    2.96
  10   4   3  114.56    6.20
  10  -4   3  112.08    6.03
 -10  -4  -3  112.87    6.20
 -10   4  -3  113.84    6.29
 -10  -4  -3  103.12    5.90
  10  -4   3  106.56    6.60
 -10  -4  -3  107.99    7.94
  11   4   3   54.23    3.55
  11  -4   3   55.50    3.57
 -11   4  -3   57.55    3.54
  11  -4   3   64.54    4.38
 -11  -4  -3   61.03    4.28
  12   4   3   24.28    2.72
  12  -4   3   27.04    2.74
 -12   4  -3   26.19    2.89
  12  -4   3   22.94    2.85
 -12  -4  -3   23.43    2.63
  13   4   3   17.55    2.54
  13  -4   3   19.37    2.46
 -13   4  -3   18.63    2.78
  13  -4   3   14.59    2.69
 -13  -4  -3   15.48    2.47
  14   4   3   12.60    2.78
  14  -4   3   10.49    2.50
 -14   4  -3   13.44    2.54
  14  -4   3    8.67    2.61
 -14  -4  -3   10.40    2.71
  15   4   3    3.41    2.09
 -15   4  -3    1.80    2.36
  15  -4   3    3.26    2.30
 -15  -4  -3    4.21    2.64
  16   4   3   27.00    3.00
  16  -4   3   29.43    3.75
  16  -4   3   25.79    3.10
 -16  -4  -3   28.36    3.38
  17   4   3  100.26    4.68
  17  -4   3   97.89    4.54
  17  -4   3   95.44    5.18
 -17  -4  -3  102.18    5.14
  18   4   3   47.57    3.81
  18  -4   3   46.68    3.56
  18  -4   3   42.67    3.84
 -18  -4  -3   44.39    4.18
  19   4   3   20.56    2.94
  19  -4   3   18.42    3.44
 -19  -4  -3   14.64    3.14
  20   4   3   13.66    3.36
 -20  -4  -3   12.11    3.20
  21   4   3    2.48    2.62
 -21  -4  -3    2.69    3.33
  22   4   3   13.65    3.26
 -22  -4  -3   10.70    3.71
  24  -5  -3    5.92    3.20
 -24  -5   3    6.67    3.14
  23   5  -3    7.22    2.60
  23  -5  -3    6.73    3.21
 -23  -5   3    5.80    3.45
  22   5  -3    1.49    2.47
  22  -5  -3    1.41    2.83
 -22  -5   3    0.65    3.08
  21   5  -3   15.61    2.69
  21  -5  -3   14.34    3.08
 -21  -5   3   20.33    3.68
  20   5  -3   16.14    2.56
  20  -5  -3   16.76    3.20
 -20  -5   3   16.11    3.25
  19   5  -3   27.67    3.23
  19  -5  -3   30.31    3.29
 -19  -5   3   31.44    3.68
  18   5  -3   26.11    3.16
  18  -5  -3   22.61    3.15
 -18  -5   3   25.25    3.49
  17   5  -3    6.39    3.03
  17  -5  -3    5.95    2.32
 -17  -5   3    7.34    2.56
  16   5  -3    2.37    2.04
  16  -5  -3    1.44    2.19
 -16  -5   3    2.62    2.38
  15   5  -3   21.85    2.61
 -15   5   3   21.87    2.78
  15  -5  -3   21.94    2.92
 -15  -5   3   22.53    3.25
  14   5  -3   -0.50    2.61
  14  -5  -3    0.30    1.91
 -14  -5   3    0.30    2.29
  13   5  -3   15.54    2.32
  13  -5  -3   20.21    2.67
 -13   5   3   19.32    2.81
 -13  -5   3   18.92    2.84
  12   5  -3   11.63    3.25
 -12  -5   3   11.21    2.07
 -12  -5   3   11.69    2.36
  12  -5  -3   13.18    2.56
 -12   5   3   13.74    2.20
 -12  -5   3   13.84    2.60
  11   5  -3   31.10    3.01
 -11  -5   3   32.30    2.99
 -11  -5   3   32.17    3.12
  11  -5  -3   39.32    3.50
 -11   5   3   35.26    3.18
 -11  -5   3   39.53    3.63
  10   5  -3    2.55    1.78
 -10  -5   3    1.73    1.66
 -10  -5   3    2.37    1.86
  10  -5  -3    2.75    1.78
 -10   5   3    3.33    1.87
 -10  -5   3    3.32    2.10
   9   5  -3    9.11    1.87
  -9  -5   3   10.52    2.01
   9  -5  -3   12.44    2.34
  -9   5   3   11.99    2.11
  -9  -5   3   13.11    2.28
   8   5  -3   30.79    2.88
  -8   5   3   30.82    5.00
  -8  -5   3   29.65    2.78
  -8   5   3   30.98    6.43
   8  -5  -3   28.92    3.08
  -8   5   3   29.15    3.03
  -8  -5   3   30.39    3.06
   8   5  -3   28.67    3.05
   7   5  -3    3.38    1.45
  -7  -5   3    3.33    1.42
   7  -5  -3    2.67    1.45
   7  -5  -3    2.86    1.53
  -7   5   3    2.46    1.71
  -7  -5   3    2.71    1.75
   7   5  -3    1.80    1.71
   6   5  -3  336.16    8.68
  -6  -5   3  313.46    8.43
  -6   5   3  319.11   10.34
   6  -5  -3  322.34    8.67
   6  -5  -3  319.68    9.09
  -6   5   3  309.36    8.34
  -6  -5   3  300.76    8.17
   6   5  -3  313.27    8.80
   5   5  -3   35.17    2.92
  -5   5   3   42.58    8.86
   5  -5  -3   41.00    3.22
   5  -5  -3   45.66    3.52
  -5   5   3   44.45    3.44
  -5  -5   3   46.26    3.55
   5   5  -3   48.83    3.74
   4  -5  -3   23.83    2.54
   4  -5  -3   30.67    2.88
  -4   5   3   29.62    2.84
  -4  -5   3   30.58    2.94
   4   5  -3   33.27    3.09
  -3  -5   3  130.89    6.19
  -3   5   3  152.35    9.92
   3  -5  -3  142.32    6.56
   3  -5  -3  161.02    7.49
  -3  -5   3  153.32    7.06
  -3   5   3  165.81    7.39
   3   5  -3  155.49    7.23
  -2  -5   3   35.02    2.90
  -2   5   3   41.76    3.20
   2  -5  -3   40.22    3.25
  -2  -5   3   47.20    3.40
   2  -5  -3   44.08    3.71
  -2  -5   3   47.15    4.59
  -2   5   3   44.81    3.47
   2   5  -3   47.92    3.79
  -1  -5   3    1.22    1.40
   1  -5  -3    0.59    1.21
  -1  -5   3    0.84    1.19
  -1  -5   3    0.30    1.44
   1  -5  -3    0.88    1.33
   1   5  -3    0.37    1.68
  -1   5   3    0.13    1.51
   0  -5   3  175.20    7.58
   0   5   3  167.37    7.50
   0  -5  -3  172.26    7.46
   0  -5   3  145.27    6.70
   0  -5   3  161.12    7.33
   0   5  -3  141.66    6.81
   0  -5  -3  145.81    6.95
   0   5   3  145.13    6.82
   1   5   3   33.30    2.84
  -1  -5  -3   33.93    2.79
   1  -5   3   23.00    2.36
   1  -5   3   21.20    2.43
  -1   5  -3   23.36    2.67
  -1  -5  -3   25.32    2.70
   1   5   3   26.37    2.64
   2   5   3    8.02    1.76
  -2  -5  -3    9.36    1.73
   2  -5   3    6.85    1.63
  -2   5  -3    5.66    1.74
   2  -5   3    5.46    1.66
  -2   5  -3    6.48    1.98
  -2  -5  -3    5.19    1.72
   2   5   3    6.59    1.85
   3   5   3    7.14    1.80
  -3  -5  -3    6.46    1.50
   3  -5   3    6.90    1.63
  -3   5  -3    8.10    1.87
   3  -5   3    8.08    1.86
  -3   5  -3    7.24    1.93
  -3  -5  -3   10.80    1.99
  -4  -5  -3   35.71    3.05
   4  -5   3   38.91    3.20
  -4   5  -3   24.42    2.60
  -4  -5  -3   33.54    3.00
   4  -5   3   32.59    2.92
  -4   5  -3   25.33    2.58
  -4  -5  -3   28.27    2.88
  -5  -5  -3    5.68    1.70
   5  -5   3    8.55    2.19
  -5   5  -3    6.77    1.86
  -5  -5  -3    5.80    1.79
   5  -5   3    6.19    1.82
  -5   5  -3    6.74    1.92
  -5  -5  -3    6.23    1.73
   6  -5   3   90.10    5.47
  -6   5  -3   89.10    5.26
  -6  -5  -3   91.81    5.47
   6  -5   3   93.63    5.72
  -6   5  -3   84.50    5.73
  -6  -5  -3   86.07    6.31
   7   5   3   50.45    4.64
   7  -5   3   57.99    5.24
  -7   5  -3   50.48    4.64
  -7  -5  -3   52.97    4.79
   7  -5   3   54.09    4.92
  -7   5  -3   47.37    4.48
  -7  -5  -3   48.18    4.64
   8   5   3    7.40    1.68
  -8  -5  -3    5.61    2.00
   8  -5   3    5.66    1.77
  -8   5  -3    9.38    2.19
  -8  -5  -3    7.60    2.37
   8  -5   3    7.79    2.17
  -8   5  -3    8.96    2.19
  -8  -5  -3    8.20    2.10
   9   5   3   42.91    3.42
  -9  -5  -3   46.42    3.58
   9  -5   3   43.90    3.53
  -9   5  -3   43.35    3.48
  -9  -5  -3   42.30    3.83
   9  -5   3   49.17    3.89
  -9   5  -3   44.27    3.42
  -9  -5  -3   40.34    3.45
  10   5   3   19.24    2.57
  10  -5   3   17.82    2.48
 -10   5  -3   18.55    2.43
  10  -5   3   21.08    2.59
 -10  -5  -3   19.98    3.16
  11   5   3   30.44    2.85
  11  -5   3   31.44    2.85
 -11   5  -3   30.25    2.96
  11  -5   3   28.80    3.24
 -11  -5  -3   29.34    3.04
  12   5   3    2.41    1.75
  12  -5   3    1.21    1.89
 -12   5  -3    0.77    1.84
  12  -5   3   -0.71    2.23
 -12  -5  -3    1.14    2.29
  13   5   3    8.40    2.33
  13  -5   3    7.89    2.26
 -13   5  -3    6.96    2.17
  13  -5   3    6.02    2.77
 -13  -5  -3    6.14    2.42
  14   5   3    0.18    1.91
  14  -5   3   -0.22    2.05
 -14   5  -3    0.60    2.24
  14  -5   3    3.00    2.31
 -14  -5  -3    0.28    2.05
  15   5   3    6.59    2.30
  15  -5   3    7.88    2.19
  15  -5   3    7.79    2.61
 -15  -5  -3    7.82    2.43
  16   5   3    0.19    2.36
  16  -5   3    0.76    2.26
  16  -5   3    1.03    2.06
 -16  -5  -3    0.89    2.57
  17   5   3    3.70    2.27
  17  -5   3    3.63    2.71
  17  -5   3    2.35    2.59
 -17  -5  -3    2.60    2.71
  18   5   3    4.48    2.69
 -18  -5  -3    2.22    2.98
  19   5   3    3.60    2.42
 -19  -5  -3    0.94    3.68
  20   5   3    2.28    3.02
 -20  -5  -3    3.80    3.06
  21   5   3    2.01    2.71
 -21  -5  -3    2.80    3.08
  22   5   3    2.14    2.86
 -22  -5  -3    1.27    3.58
  24   6  -3    1.58    3.00
  24  -6  -3    2.41    3.10
 -24  -6   3    0.14    3.66
  23   6  -3   31.01    3.31
  23  -6  -3   40.91    4.05
 -23  -6   3   42.77    4.22
  22   6  -3    4.22    2.60
  22  -6  -3    3.08    3.15
 -22  -6   3    5.11    2.95
  21   6  -3   15.44    2.75
  21  -6  -3   19.39    3.18
 -21  -6   3   21.03    3.69
  20   6  -3    2.00    2.49
  20  -6  -3    0.33    2.62
 -20  -6   3   -0.73    3.10
  19   6  -3   10.23    2.59
  19  -6  -3   12.14    2.84
 -19  -6   3   13.01    3.20
  18   6  -3    0.15    2.46
  18  -6  -3    2.52    2.59
 -18  -6   3    0.44    2.30
  17   6  -3   15.89    2.77
  17  -6  -3   24.93    3.09
 -17  -6   3   23.89    3.20
  16   6  -3    0.18    2.14
  16  -6  -3    1.04    2.38
 -16  -6   3    1.37    2.79
  15   6  -3   24.96    2.81
  15  -6  -3   30.38    3.19
 -15  -6   3   31.63    3.32
  14   6  -3    2.80    1.99
  14  -6  -3    2.78    2.18
 -14  -6   3    1.27    2.50
  13   6  -3    3.43    1.99
  13  -6  -3    3.46    2.23
 -13   6   3    1.52    2.05
 -13  -6   3    2.25    2.32
  12   6  -3    0.73    1.60
  12  -6  -3    0.83    1.97
 -12   6   3    1.29    1.87
 -12  -6   3   -0.20    2.12
  11   6  -3   20.33    2.19
 -11  -6   3   20.82    2.63
 -11  -6   3   22.77    2.78
  11  -6  -3   26.66    2.83
 -11   6   3   24.68    2.78
 -11  -6   3   24.29    2.85
  10   6  -3   17.52    2.82
 -10  -6   3   16.18    2.87
 -10  -6   3   12.50    2.47
  10  -6  -3   10.80    2.23
 -10   6   3   10.38    2.21
 -10  -6   3   11.52    2.56
   9   6  -3   29.59    3.53
  -9  -6   3   27.53    3.33
   9  -6  -3   26.87    3.48
  -9   6   3   25.76    3.22
  -9  -6   3   29.37    3.51
   9   6  -3   26.46    3.41
  -8   6   3    8.17    6.68
   8   6  -3    8.76    1.74
  -8  -6   3    7.24    2.14
  -8   6   3    6.45    2.05
   8  -6  -3    7.30    1.97
  -8   6   3    5.10    1.98
  -8  -6   3    5.75    2.04
   8   6  -3    5.93    2.20
   7   6  -3   15.43    2.10
  -7  -6   3   17.09    2.16
   7  -6  -3   16.47    2.38
   7  -6  -3   15.76    2.45
  -7   6   3   16.66    2.37
  -7  -6   3   17.01    2.45
   7   6  -3   18.10    2.57
   6   6  -3   65.23    4.27
  -6   6   3   72.94    5.31
   6  -6  -3   69.49    4.60
   6  -6  -3   74.69    4.98
  -6   6   3   72.13    4.71
  -6  -6   3   70.89    4.62
   6   6  -3   74.75    4.96
  -5   6   3   43.01    3.87
   5  -6  -3   48.15    3.68
   5  -6  -3   41.91    3.55
  -5   6   3   39.69    3.35
  -5  -6   3   41.59    3.48
   5   6  -3   38.97    3.56
  -4   6   3   46.13    3.32
   4  -6  -3   42.14    3.29
   4  -6  -3   65.16    4.35
  -4   6   3   63.41    4.04
  -4  -6   3   69.56    4.89
   4   6  -3   61.07    4.13
   3   6  -3  147.62    6.72
  -3  -6   3  161.56    7.12
  -3   6   3  162.45    7.20
   3  -6  -3  161.35    7.14
   3  -6  -3  158.76    7.46
  -3  -6   3  167.39    7.48
  -3   6   3  158.38    7.14
   3   6  -3  161.62    7.53
  -2  -6   3  323.94    8.24
  -2   6   3  312.39    8.24
   2  -6  -3  315.00    8.16
  -2  -6   3  297.24    8.28
   2  -6  -3  292.19    8.53
  -2  -6   3  305.64    8.49
  -2   6   3  295.84    8.00
   2   6  -3  299.76    8.51
  -1  -6   3    5.74    1.53
   1  -6  -3    2.77    1.42
  -1  -6   3   -0.13    1.30
  -1  -6   3    0.76    1.65
   1  -6  -3    0.50    1.59
   1   6  -3   -0.05    1.57
  -1   6   3    0.30    1.37
   0   6   3  320.18    8.46
   0  -6   3  369.74    9.40
   0   6  -3  366.41    9.30
   0  -6  -3  383.69    9.99
   0   6   3  384.72    9.50
   1  -6   3   37.35    2.98
   1   6   3   39.67    3.13
  -1  -6  -3   40.13    3.13
   1  -6   3   48.11    3.53
   1  -6   3   51.73    3.86
  -1   6  -3   46.10    3.61
  -1  -6  -3   47.40    3.65
   1   6   3   45.63    3.48
   2  -6   3  139.01    6.37
   2   6   3  144.79    6.66
  -2  -6  -3  142.12    6.50
   2  -6   3  150.98    6.94
   2  -6   3  156.44    7.32
  -2   6  -3  146.41    7.00
  -2  -6  -3  153.40    7.17
   2   6   3  146.56    6.84
   3   6   3    3.08    2.54
  -3  -6  -3    4.02    1.62
   3  -6   3    4.57    1.70
  -3   6  -3    3.05    1.73
   3  -6   3    4.46    1.78
  -3   6  -3    4.77    1.78
  -3  -6  -3    5.25    1.78
   3   6   3    4.15    1.71
   4   6   3   11.86    2.03
  -4  -6  -3   11.17    1.85
   4  -6   3   13.80    2.10
  -4   6  -3   12.99    2.07
   4  -6   3   11.80    2.27
  -4   6  -3   12.69    2.31
  -4  -6  -3   13.57    2.38
  -5  -6  -3    0.16    1.80
   5  -6   3    0.49    1.40
  -5   6  -3    0.68    1.57
  -5  -6  -3    0.11    1.58
   5  -6   3   -0.21    1.54
  -5   6  -3    0.68    1.48
  -5  -6  -3    0.94    1.57
  -6  -6  -3  165.95    5.71
   6  -6   3  167.37    6.07
  -6   6  -3  184.52    6.14
  -6  -6  -3  166.00    5.94
   6  -6   3  175.28    6.39
  -6   6  -3  180.87    6.74
  -6  -6  -3  174.51    6.31
   7  -6   3   55.94    3.67
  -7   6  -3   58.43    3.60
  -7  -6  -3   55.66    3.68
   7  -6   3   55.47    3.75
  -7   6  -3   59.25    4.06
  -7  -6  -3   57.20    4.29
   8   6   3  259.38    8.13
   8  -6   3  267.11    8.28
  -8   6  -3  251.80    8.02
  -8  -6  -3  261.69    8.46
   8  -6   3  269.25    8.51
  -8   6  -3  246.36    9.23
  -8  -6  -3  255.08    8.42
   9   6   3   11.35    2.26
   9  -6   3   14.40    2.24
  -9   6  -3   11.02    2.42
  -9  -6  -3   11.29    2.10
   9  -6   3   11.29    2.48
  -9  -6  -3    9.81    2.28
  10   6   3   88.10    4.70
  10  -6   3   84.33    4.57
 -10   6  -3   75.18    4.36
  10  -6   3   75.23    4.52
 -10  -6  -3   73.66    4.93
  11   6   3   22.35    2.75
  11  -6   3   23.17    2.78
 -11   6  -3   24.22    2.68
  11  -6   3   24.49    3.01
 -11  -6  -3   26.36    3.08
  12   6   3   76.15    4.02
  12  -6   3   74.86    4.00
 -12   6  -3   71.87    4.08
  12  -6   3   71.38    4.17
 -12  -6  -3   72.18    4.16
  13   6   3   19.77    2.56
  13  -6   3   19.33    2.71
 -13   6  -3   20.60    2.56
  13  -6   3   18.25    3.03
 -13  -6  -3   20.18    2.93
  14   6   3   48.95    4.46
  14  -6   3   47.36    4.41
  14  -6   3   36.68    4.05
 -14  -6  -3   44.79    4.55
  15   6   3    1.41    2.33
  15  -6   3   -0.49    1.97
 -15  -6  -3    1.45    2.64
  16  -6   3    5.88    4.79
 -16  -6  -3    3.89    2.77
  17   6   3    9.62    2.82
 -17  -6  -3    6.70    3.01
  18   6   3   -1.02    2.34
 -18  -6  -3    1.59    3.18
  19   6   3    0.63    2.22
 -19  -6  -3   -1.67    3.12
  20   6   3    0.04    2.76
 -20  -6  -3    0.42    3.03
  21   6   3   12.82    3.17
 -21  -6  -3    9.16    3.85
  23   7  -3   13.93    2.95
  23  -7  -3   19.33    3.67
 -23  -7   3   21.18    3.49
  22   7  -3  111.35    5.15
  22  -7  -3  114.77    5.66
 -22  -7   3  108.70    5.32
  21   7  -3   -0.24    2.40
  21  -7  -3    0.86    2.84
 -21  -7   3    0.55    2.93
  20   7  -3  133.86    6.68
  20  -7  -3  133.44    7.18
 -20  -7   3  128.50    6.95
  19   7  -3    9.54    3.45
  19  -7  -3   13.37    2.87
 -19  -7   3   14.90    3.02
  18   7  -3  174.02    5.95
  18  -7  -3  167.74    6.17
 -18  -7   3  167.26    6.90
  17   7  -3   30.40    3.20
  17  -7  -3   34.18    3.64
 -17  -7   3   32.68    3.51
  16   7  -3  100.05    4.78
  16  -7  -3  105.91    5.44
 -16  -7   3  100.72    5.16
  15   7  -3    0.60    2.05
  15  -7  -3    0.99    1.96
 -15  -7   3    3.04    2.98
  14   7  -3  280.13    9.04
  14  -7  -3  289.13    9.88
 -14  -7   3  295.25   10.00
  13   7  -3    6.23    5.91
  13  -7  -3    5.72    2.48
 -13  -7   3    6.76    3.53
  12   7  -3  278.71    9.98
  12  -7  -3  263.68    9.86
 -12   7   3  254.95    9.87
 -12  -7   3  262.31    9.77
  11   7  -3   10.44    2.72
  11  -7  -3    6.92    2.20
 -11   7   3    6.80    2.08
 -11  -7   3    6.54    2.05
  10   7  -3  501.41   15.80
  10  -7  -3  530.76   16.41
 -10   7   3  492.06   15.13
 -10  -7   3  546.45   17.57
  10   7  -3  525.59   16.48
   9   7  -3   16.66    2.63
  -9  -7   3   17.13    2.62
   9  -7  -3   15.99    2.74
  -9   7   3   17.99    2.89
  -9  -7   3   17.41    2.88
   9   7  -3   15.70    3.05
   8   7  -3  823.02   18.09
  -8  -7   3  816.65   18.63
   8  -7  -3  828.18   18.63
  -8   7   3  811.30   17.86
  -8  -7   3  840.76   18.59
   8   7  -3  817.39   18.87
   7   7  -3   17.36    2.17
  -7   7   3   15.17    2.18
   7  -7  -3   14.93    2.26
   7  -7  -3   14.82    2.34
  -7   7   3   13.76    2.35
  -7  -7   3   13.06    2.31
   7   7  -3   13.22    2.47
  -6   7   3 1015.09   18.23
   6  -7  -3 1030.14   18.50
   6  -7  -3 1025.87   19.18
  -6   7   3 1012.88   18.45
  -6  -7   3 1028.15   19.14
   6   7  -3  996.84   19.18
  -5  -7   3   18.41    2.34
  -5   7   3   20.06    2.57
   5  -7  -3   19.50    2.30
   5  -7  -3   22.36    2.76
  -5   7   3   21.05    2.86
  -5  -7   3   19.60    2.60
   5   7  -3   22.28    3.02
   4   7  -3  674.96   19.45
  -4  -7   3  740.25   20.90
  -4   7   3  727.64   20.64
   4  -7  -3  748.04   21.74
   4  -7  -3  712.80   20.84
  -4   7   3  726.82   20.77
  -4  -7   3  719.62   20.78
   4   7  -3  723.77   21.21
   3   7  -3   -0.26    1.39
  -3  -7   3    0.74    1.72
   3  -7  -3    0.35    1.34
   3  -7  -3    0.41    1.53
  -3  -7   3    0.43    1.80
  -3   7   3   -0.26    1.67
   3   7  -3    1.36    1.62
   2   7  -3  564.62   16.70
  -2  -7   3  579.44   16.94
  -2   7   3  557.08   16.46
   2  -7  -3  558.43   16.45
   2  -7  -3  514.37   17.12
  -2  -7   3  547.20   16.50
   2   7  -3  536.43   16.76
  -2   7   3  532.63   15.91
  -1  -7   3   13.44    2.20
  -1   7   3   14.41    2.57
   1  -7  -3   13.35    2.02
  -1  -7   3   16.26    2.19
  -1  -7   3   15.55    2.44
   1  -7  -3   16.70    2.52
   1   7  -3   17.61    2.51
  -1   7   3   15.71    2.28
   0  -7   3  783.10   21.80
   0   7   3  750.14   21.17
   0  -7  -3  769.59   21.52
   0  -7   3  734.77   20.89
   0  -7   3  739.67   21.30
   0   7  -3  684.11   20.06
   0  -7  -3  730.90   21.17
   0   7   3  726.84   20.80
  -1  -7  -3    1.56    1.50
   1  -7   3   10.06    2.02
   1  -7   3   18.01    2.90
  -1   7  -3    9.24    2.08
  -1  -7  -3   10.64    3.71
   2  -7   3  851.29   23.44
   2   7   3  822.37   23.73
  -2  -7  -3  810.56   22.45
   2  -7   3  772.03   21.88
   2  -7   3  800.41   22.71
  -2   7  -3  775.36   22.23
  -2  -7  -3  791.57   22.71
   2   7   3  791.40   22.28
   3  -7   3   42.00    3.37
   3   7   3   44.53    5.79
  -3  -7  -3   45.43    3.09
   3  -7   3   50.54    3.92
   3  -7   3   55.97    4.16
  -3   7  -3   51.61    3.97
  -3  -7  -3   51.99    3.98
   3   7   3   51.06    3.92
   4  -7   3  459.93   10.32
   4   7   3  441.74   10.40
  -4  -7  -3  440.66   10.63
   4  -7   3  421.07   10.37
   4  -7   3  424.42   10.52
  -4   7  -3  428.12   10.44
  -4  -7  -3  426.38   11.02
   4   7   3  422.04   10.17
   5   7   3   68.84    6.26
  -5  -7  -3   67.73    5.76
   5  -7   3   64.59    5.60
  -5   7  -3   85.25    6.90
   5  -7   3   83.79    7.03
  -5   7  -3   84.91    7.12
  -5  -7  -3  105.66    8.53
  -6  -7  -3  377.31   10.52
  -6   7  -3  315.60    8.91
  -6  -7  -3  353.04    9.83
   6  -7   3  362.74   10.38
  -6   7  -3  304.16    9.30
  -6  -7  -3  305.73    9.49
  -7  -7  -3  162.26    6.33
  -7  -7  -3  172.78    5.68
   7  -7   3  187.78    7.01
   8  -7   3  204.00    8.04
  -8   7  -3  160.66    6.82
  -8  -7  -3  193.62    7.59
   8  -7   3  196.02    7.96
  -8  -7  -3  163.38    7.23
   9   7   3   53.61    3.55
   9  -7   3   48.23    3.34
   9  -7   3   63.03    4.25
  -9  -7  -3   74.17    4.60
  10   7   3   24.38    2.62
  10  -7   3   32.01    3.01
 -10   7  -3   12.84    2.34
  10  -7   3   18.30    2.96
 -10  -7  -3   16.50    2.85
  11   7   3  101.25    4.62
  11  -7   3   94.67    4.58
 -11   7  -3  134.34    6.46
  11  -7   3  125.21    5.28
 -11  -7  -3  125.32    5.79
  12   7   3   47.06    4.81
  12  -7   3   44.77    4.49
 -12   7  -3   30.01    3.02
  12  -7   3   28.82    3.22
 -12  -7  -3   35.73    3.33
  13   7   3  141.01    5.28
  13  -7   3  143.79    5.33
 -13   7  -3  166.86    6.20
  13  -7   3  168.38    6.20
 -13  -7  -3  159.23    6.13
  14   7   3   22.34    2.83
  14  -7   3   22.49    2.82
 -14  -7  -3   18.67    3.49
  15   7   3  160.48    7.04
  15  -7   3  169.14    7.38
 -15  -7  -3  180.98    8.20
  16   7   3   10.91    2.63
 -16  -7  -3    8.52    2.79
  17   7   3  116.66    5.49
 -17  -7  -3  138.26    6.72
  18   7   3   29.43    3.35
 -18  -7  -3   24.47    3.30
  19   7   3  100.51    4.77
 -19  -7  -3  110.68    5.20
  20   7   3    1.76    3.23
 -20  -7  -3    2.06    3.15
  21   7   3   51.80    3.98
 -21  -7  -3   58.13    5.30
  23   8  -3   36.45    3.42
  23  -8  -3   42.33    4.35
 -23  -8   3   42.86    4.08
  22   8  -3   11.83    2.92
  22  -8  -3   12.38    3.21
 -22  -8   3    7.74    3.44
  21   8  -3   37.68    3.39
  21  -8  -3   47.44    4.40
 -21  -8   3   53.27    4.40
  20   8  -3   -0.39    2.23
  20  -8  -3   -0.48    2.86
 -20  -8   3   -0.12    2.94
  19   8  -3   31.64    3.19
  19  -8  -3   41.18    3.99
 -19  -8   3   39.23    3.90
  18   8  -3    3.22    2.50
  18  -8  -3    2.63    2.69
 -18  -8   3    2.23    2.83
  17   8  -3   69.40    4.75
  17  -8  -3   92.23    6.11
 -17  -8   3   92.95    5.98
  16   8  -3    3.80    2.33
  16  -8  -3    5.45    2.34
 -16  -8   3    3.53    2.55
  15   8  -3   53.32    4.75
  15  -8  -3   62.61    5.53
 -15  -8   3   62.24    5.44
  14   8  -3    0.09    2.08
  14  -8  -3   -1.50    2.11
 -14  -8   3    0.00    3.36
  13   8  -3   39.58    3.07
  13  -8  -3   38.68    3.41
 -13  -8   3   35.63    3.26
  12   8  -3    7.65    1.81
  12  -8  -3    7.53    2.33
 -12  -8   3    7.06    2.83
  11   8  -3   51.23    3.96
  11  -8  -3   53.79    4.37
 -11   8   3   57.53    4.47
 -11  -8   3   59.64    4.56
  10   8  -3    0.98    1.64
  10  -8  -3    1.63    2.08
 -10   8   3    4.36    1.96
 -10  -8   3    3.90    2.28
   9   8  -3   10.10    1.95
   9  -8  -3    9.43    2.23
  -9   8   3    7.61    2.11
  -9  -8   3    8.12    2.28
   8   8  -3   84.51    4.99
   8  -8  -3  116.32    6.81
   8  -8  -3  102.74    5.91
  -8   8   3  106.12    5.82
  -8  -8   3  107.94    6.06
   8   8  -3  105.10    6.19
  -7   8   3   26.16    3.09
   7  -8  -3   26.98    3.29
   7  -8  -3   21.30    3.10
  -7   8   3   18.81    2.81
  -7  -8   3   21.03    3.22
   7   8  -3   16.84    3.05
  -6  -8   3  173.04    6.21
  -6   8   3  173.33    5.89
   6  -8  -3  176.20    6.17
   6  -8  -3  191.37    6.85
  -6   8   3  189.70    6.53
  -6  -8   3  201.08    7.53
   6   8  -3  207.37    7.16
   5   8  -3    3.09    1.40
  -5  -8   3    3.27    1.44
  -5   8   3    2.43    1.57
   5  -8  -3    3.65    1.56
   5  -8  -3    0.40    1.92
  -5   8   3    0.71    1.89
  -5  -8   3    0.49    1.79
   5   8  -3    0.21    1.59
   4   8  -3  176.80    5.95
  -4  -8   3  178.43    5.98
  -4   8   3  188.58    6.15
   4  -8  -3  180.64    6.10
   4  -8  -3  214.81    7.69
  -4   8   3  224.41    7.23
  -4  -8   3  214.23    6.94
   4   8  -3  204.43    7.53
   3   8  -3   21.40    2.33
  -3  -8   3   19.87    2.39
  -3   8   3   22.43    4.58
   3  -8  -3   21.70    2.48
   3  -8  -3   25.97    2.97
  -3  -8   3   29.00    2.71
  -3   8   3   28.53    2.74
   3   8  -3   27.52    2.88
   2   8  -3  445.91   13.84
  -2  -8   3  432.56   13.36
  -2   8   3  450.16   13.82
   2  -8  -3  451.38   13.79
   2  -8  -3  468.38   14.91
  -2  -8   3  487.50   15.06
   2   8  -3  468.46   14.83
  -2   8   3  472.12   14.43
  -1   8   3    5.67    4.48
   1  -8  -3    5.96    1.62
  -1  -8   3   11.99    1.99
  -1  -8   3   12.92    2.28
   1  -8  -3   15.02    2.43
   1   8  -3   13.37    2.71
  -1   8   3   13.06    2.39
   0   8   3  444.28   13.73
   0  -8  -3  452.15   13.78
   0  -8   3  502.87   15.16
   0  -8   3  494.66   15.26
   0  -8  -3  504.71   15.81
   0   8  -3  506.28   15.53
   0   8   3  500.18   15.15
   1  -8   3    2.01    1.61
   1   8   3    4.30    1.86
  -1  -8  -3    4.82    1.79
   1  -8   3   12.06    2.00
   1  -8   3   10.72    2.04
  -1   8  -3   12.99    2.59
  -1  -8  -3   10.82    2.50
   1   8   3   10.22    2.02
   2  -8   3  296.03    7.86
   2   8   3  312.69    8.48
  -2  -8  -3  310.71    8.36
   2  -8   3  337.08    8.84
  -2   8  -3  332.65    9.10
  -2  -8  -3  340.05    9.51
   2   8   3  332.84    8.84
   3  -8   3    0.01    1.90
  -3  -8  -3    0.15    1.57
   3  -8   3    0.77    1.73
   3  -8   3    1.77    1.82
  -3   8  -3    0.80    1.73
  -3  -8  -3    2.17    2.05
   3   8   3    1.03    1.82
   4  -8   3  689.23   15.48
   4   8   3  677.22   15.52
  -4  -8  -3  678.15   15.55
   4  -8   3  629.26   14.88
   4  -8   3  689.01   16.17
  -4   8  -3  671.00   15.84
  -4  -8  -3  698.51   16.55
   4   8   3  681.60   15.68
   5  -8   3   46.77    3.23
   5   8   3   53.54    5.36
  -5  -8  -3   52.33    3.38
   5  -8   3   54.47    3.63
   5  -8   3   63.65    4.03
  -5   8  -3   63.23    4.26
  -5  -8  -3   64.56    4.01
   5   8   3   65.84    3.99
   6  -8   3  793.86   22.25
   6   8   3  782.79   22.58
  -6  -8  -3  758.11   21.72
   6  -8   3  768.46   22.03
  -6  -8  -3  776.75   22.23
   6  -8   3  791.00   22.73
  -6   8  -3  772.02   22.19
  -6  -8  -3  810.65   23.56
   7  -8   3   63.57    4.50
  -7  -8  -3   60.55    4.24
   7  -8   3   66.63    4.80
  -7  -8  -3   70.54    4.75
   8  -8   3  379.13   13.12
  -8   8  -3  367.44   12.38
   8  -8   3  381.65   13.16
  -8  -8  -3  322.34   13.40
   9  -8   3  270.82   10.12
  -9   8  -3  290.36   10.27
   9  -8   3  268.56    9.96
  -9  -8  -3  272.84   10.11
  10   8   3  295.61   11.44
  10  -8   3  302.70   11.82
 -10   8  -3  303.48   12.03
  10  -8   3  294.76   11.74
 -10  -8  -3  286.13   11.42
  11   8   3   39.75    3.27
  11  -8   3   36.20    3.24
 -11   8  -3   40.38    4.22
  11  -8   3   37.55    3.47
 -11  -8  -3   41.36    4.58
  12   8   3   67.57    5.52
  12  -8   3   66.94    5.60
 -12   8  -3   53.95    4.82
 -12  -8  -3   50.57    4.88
  13   8   3   36.47    3.32
  13  -8   3   35.63    3.17
 -13  -8  -3   32.27    3.38
  14   8   3   42.92    3.46
  14  -8   3   41.29    3.40
 -14  -8  -3   29.23    3.27
  15   8   3   43.60    3.46
 -15  -8  -3   42.87    3.63
  16   8   3   47.12    3.83
 -16  -8  -3   36.15    3.61
  17   8   3   64.74    4.40
 -17  -8  -3   62.57    4.62
  18   8   3   67.21    4.12
 -18  -8  -3   54.29    4.55
  19   8   3   27.48    3.25
 -19  -8  -3   25.57    3.98
  20   8   3   38.48    3.54
 -20  -8  -3   28.64    3.72
  21   8   3    3.48    2.97
 -21  -8  -3    3.80    3.30
  22   9  -3   25.41    3.26
  22  -9  -3   23.06    3.60
 -22  -9   3   21.72    3.65
  21   9  -3    0.98    2.73
  21  -9  -3   -0.78    3.08
 -21  -9   3   -0.25    3.51
  20   9  -3   95.31    4.46
  20  -9  -3   89.08    5.03
 -20  -9   3   85.72    5.03
  19   9  -3   -0.10    2.38
  19  -9  -3    0.51    3.04
 -19  -9   3    0.31    3.20
  18   9  -3  163.50    6.99
  18  -9  -3  150.88    7.15
 -18  -9   3  150.77    6.78
  17   9  -3   -0.71    2.55
  17  -9  -3    1.39    2.95
 -17  -9   3    3.84    2.61
  16   9  -3  364.69   12.67
  16  -9  -3  346.05   12.80
 -16  -9   3  344.63   12.69
  15   9  -3   -1.72    1.99
  15  -9  -3   -0.09    2.39
 -15  -9   3   -1.33    2.64
  14   9  -3  131.31    4.97
  14  -9  -3  126.10    5.52
 -14  -9   3  130.33    5.23
  13   9  -3    8.92    2.70
  13  -9  -3    9.07    2.42
 -13  -9   3    6.90    2.76
  12   9  -3  226.17    8.00
  12  -9  -3  212.30    7.92
 -12  -9   3  218.27    7.88
  11   9  -3    8.04    2.02
  11  -9  -3    9.84    2.36
 -11  -9   3   10.24    2.40
  10   9  -3  253.63    9.29
  10  -9  -3  247.50    9.47
 -10   9   3  235.31    9.64
 -10  -9   3  253.34    9.61
   9   9  -3    0.04    1.72
   9  -9  -3    0.99    2.14
  -9   9   3    0.31    1.96
  -9  -9   3    1.48    2.13
   8  -9  -3  585.85   19.86
   8  -9  -3  582.04   18.58
  -8   9   3  574.73   18.36
  -8  -9   3  587.78   18.45
  -7   9   3    1.57    1.73
   7  -9  -3    1.96    1.81
   7  -9  -3    2.65    1.93
  -7   9   3    1.93    2.64
  -7  -9   3    4.37    2.12
   6   9  -3  864.84   24.31
  -6  -9   3  953.54   13.45
  -6   9   3  950.40   12.77
   6  -9  -3  987.62   14.10
   6  -9  -3  916.69   26.01
  -6   9   3  917.35   25.49
  -6  -9   3  910.61   25.53
   6   9  -3  898.19   25.56
   5   9  -3   -2.10    1.73
  -5  -9   3    0.12    1.72
  -5   9   3   -0.32    1.56
   5  -9  -3   -0.03    1.78
   5  -9  -3    0.96    1.76
  -5   9   3    0.25    1.80
  -5  -9   3    0.38    1.99
   5   9  -3    0.55    2.13
   4   9  -3  591.88   13.97
  -4  -9   3  565.99   13.73
  -4   9   3  562.30   14.10
   4  -9  -3  570.55   13.50
   4  -9  -3  518.49   13.44
  -4  -9   3  534.41   13.24
  -4   9   3  530.43   13.08
   4   9  -3  535.96   13.64
   3   9  -3   12.78    2.27
  -3  -9   3   11.66    2.18
  -3   9   3   11.89    2.20
   3  -9  -3   11.57    2.26
   3  -9  -3    8.56    2.34
  -3  -9   3    7.47    2.45
  -3   9   3    8.14    2.41
   3   9  -3    9.51    2.61
   2   9  -3  383.64    9.58
  -2  -9   3  386.05    9.34
  -2   9   3  365.36    9.20
   2  -9  -3  371.29    9.20
   2  -9  -3  332.57    9.41
  -2  -9   3  344.25    9.29
   2   9  -3  332.45    9.27
  -2   9   3  345.03    8.95
  -1  -9   3   27.23    2.70
  -1   9   3   22.97    2.45
   1  -9  -3   22.11    2.34
  -1  -9   3   17.75    2.31
  -1  -9   3   17.03    2.43
   1  -9  -3   18.29    2.65
   1   9  -3   18.64    2.74
  -1   9   3   18.40    2.42
   0   9   3  156.90    5.78
   0  -9  -3  156.95    5.55
   0  -9   3  125.57    9.56
   0  -9   3  134.78    5.27
   0  -9  -3  122.04    9.55
   0   9  -3  111.90    9.16
   0   9   3  122.79    9.40
   1  -9   3    0.50    1.57
   1   9   3   -0.11    3.00
  -1  -9  -3    0.37    1.69
   1  -9   3   -0.68    1.52
   1  -9   3   -0.25    1.69
  -1  -9  -3    0.46    1.92
  -1   9  -3   -1.15    2.26
   1   9   3    0.81    1.75
   2   9   3  417.49   11.10
  -2  -9  -3  422.37   10.80
   2  -9   3  361.00   10.00
   2  -9   3  381.06   10.66
  -2   9  -3  366.03   10.56
  -2  -9  -3  368.75   10.47
   2   9   3  362.56   10.09
   3   9   3   20.19    2.98
  -3  -9  -3   20.69    2.85
   3  -9   3   33.84    2.82
   3  -9   3   37.62    3.36
  -3   9  -3   33.56    3.20
  -3  -9  -3   33.89    3.94
   3   9   3   32.07    3.11
   4   9   3  409.31   15.12
  -4  -9  -3  410.46   13.22
   4  -9   3  368.20   12.14
   4  -9   3  370.35   12.44
  -4   9  -3  352.25   11.79
  -4  -9  -3  380.66   12.87
   4   9   3  365.26   12.04
   5   9   3  154.75    9.13
   5  -9   3  162.74    6.84
   5  -9   3  190.37    7.75
  -5  -9  -3  187.64    7.88
   5   9   3  182.27    7.48
   6   9   3  270.79   10.67
   6  -9   3  269.92    9.95
   6  -9   3  242.25    9.43
  -6  -9  -3  218.90    8.76
   7  -9   3   55.24    3.46
   7   9   3   62.53    4.85
   7  -9   3   55.10    3.51
   7  -9   3   68.86    4.31
   8  -9   3   46.44    3.74
   8   9   3   37.34    3.17
   8  -9   3   42.79    3.45
   8  -9   3   32.71    3.21
   9  -9   3   17.62    2.40
   9  -9   3   19.73    2.61
   9  -9   3   20.02    2.86
  -9  -9  -3   31.72    3.39
  10  -9   3  140.25    5.77
  10  -9   3  140.76    5.97
 -10  -9  -3  109.10    5.35
  11   9   3   90.06    6.73
  11  -9   3   89.86    6.76
 -11   9  -3  110.57    4.77
 -11  -9  -3  117.67    5.08
  12   9   3   21.26    3.05
  12  -9   3   22.61    2.77
 -12  -9  -3    8.23    2.95
  13   9   3   99.49    4.57
  13  -9   3   96.27    5.66
  14   9   3    6.05    2.45
 -14  -9  -3    1.65    2.76
  15   9   3   62.22    5.83
 -15  -9  -3   80.30    7.26
  16   9   3   15.62    2.97
 -16  -9  -3    8.17    2.95
  17   9   3   88.43    5.12
 -17  -9  -3  100.93    6.01
  18   9   3    1.52    3.11
 -18  -9  -3    2.34    3.11
  19   9   3   44.19    3.76
 -19  -9  -3   52.05    4.51
  20   9   3   -0.85    3.21
 -20  -9  -3    2.27    3.40
  22  10  -3    0.92    2.95
  22 -10  -3   -0.39    3.22
 -22 -10   3    0.09    3.37
  21  10  -3    1.83    2.81
  21 -10  -3    3.87    3.15
 -21 -10   3    1.65    3.00
  20  10  -3    1.22    2.91
  20 -10  -3    1.97    3.18
 -20 -10   3    1.86    3.22
  19  10  -3    9.15    2.74
  19 -10  -3    8.52    3.06
 -19 -10   3    8.26    3.32
  18  10  -3    0.39    2.40
  18 -10  -3    0.24    2.74
 -18 -10   3    0.24    2.63
  17  10  -3    3.65    2.58
  17 -10  -3    4.06    2.90
 -17 -10   3    3.54    2.82
  16  10  -3    8.74    2.58
  16 -10  -3    8.13    3.05
 -16 -10   3    6.13    3.55
  15  10  -3    9.60    2.46
  15 -10  -3    9.16    2.59
 -15 -10   3   10.83    2.98
  14  10  -3    1.58    2.40
  14 -10  -3    0.36    2.45
 -14 -10   3    1.11    2.34
  13  10  -3    0.11    1.98
  13 -10  -3    2.09    2.36
 -13 -10   3    2.18    2.32
  12  10  -3    8.71    2.31
  12 -10  -3    6.79    2.56
 -12 -10   3    5.89    2.64
  11  10  -3    1.96    2.09
  11 -10  -3    1.21    2.34
 -11 -10   3    3.10    2.30
  10  10  -3   52.38    3.40
  10 -10  -3   49.42    3.67
 -10 -10   3   47.91    4.00
   9 -10  -3   94.10    6.15
  -9  10   3   90.34    5.85
  -9 -10   3   96.61    6.23
   8 -10  -3   26.49    3.08
   8 -10  -3   25.55    3.05
  -8  10   3   28.46    2.90
  -8 -10   3   27.98    3.17
   7  10  -3   94.40    4.70
  -7  10   3  105.37    5.05
   7 -10  -3  109.38    5.20
   7 -10  -3  125.74    6.01
  -7  10   3  131.55    6.48
  -7 -10   3  132.77    6.09
   6  10  -3   29.79    2.69
  -6  10   3   30.01    2.78
   6 -10  -3   31.51    2.91
   6 -10  -3   35.11    3.19
  -6  10   3   35.02    3.12
  -6 -10   3   35.14    3.20
   5  10  -3    0.65    1.97
  -5  10   3    0.43    1.75
   5 -10  -3   -0.09    1.75
   5 -10  -3    1.76    1.89
  -5  10   3    1.29    1.95
  -5 -10   3    1.12    1.72
   4  10  -3   24.07    2.59
  -4 -10   3   23.96    2.67
  -4  10   3   22.80    2.41
   4 -10  -3   25.07    2.60
   4 -10  -3   31.79    3.54
  -4 -10   3   33.17    3.31
  -4  10   3   31.12    3.18
   3  10  -3   13.55    2.36
  -3 -10   3   13.91    2.31
  -3  10   3   11.28    1.89
   3 -10  -3   11.43    2.11
   3 -10  -3   11.95    2.39
  -3 -10   3   10.09    2.24
  -3  10   3   10.47    2.30
   3  10  -3    7.74    2.56
   2  10  -3   98.84    5.55
  -2 -10   3   91.16    5.10
  -2  10   3   92.44    5.20
   2 -10  -3   93.97    5.22
   2 -10  -3   96.12    5.73
  -2 -10   3  104.33    5.93
   2  10  -3   97.17    5.72
  -2  10   3   94.93    5.50
  -1 -10   3    5.65    1.88
  -1  10   3    7.24    2.09
   1 -10  -3    6.62    1.81
  -1 -10   3    8.26    2.42
   1 -10  -3    7.36    2.38
   1  10  -3    7.77    2.38
  -1  10   3    7.76    2.27
   0 -10   3   95.15    5.28
   0  10   3   93.81    5.29
   0 -10  -3   92.94    5.18
   0 -10   3   92.50    5.41
   0 -10   3   96.64    5.64
   0 -10  -3   92.63    5.68
   0  10  -3   90.28    5.44
   0  10   3   90.83    5.42
   1 -10   3    5.29    1.83
   1  10   3    5.41    5.78
  -1 -10  -3    6.26    1.90
   1 -10   3    8.03    1.96
   1 -10   3    7.72    2.19
  -1 -10  -3    5.53    2.17
   1  10   3    8.23    2.29
   2 -10   3   78.85    4.69
   2  10   3   73.96    4.71
  -2 -10  -3   74.38    4.55
   2 -10   3   75.72    4.64
   2 -10   3   73.82    4.97
  -2 -10  -3   74.18    4.94
   2  10   3   70.12    4.63
   3 -10   3   56.09    3.86
   3  10   3   63.02    5.37
  -3 -10  -3   65.74    4.32
   3 -10   3   72.52    4.61
   3 -10   3   76.26    4.98
  -3 -10  -3   70.33    4.70
   3  10   3   68.43    4.52
   4 -10   3  103.98    4.93
   4  10   3   95.78    6.07
   4 -10   3   91.50    4.83
   4 -10   3   97.10    5.06
  -4 -10  -3   98.00    5.25
   4  10   3   99.94    5.14
   5 -10   3  102.78    5.11
   5  10   3  100.59    6.36
   5 -10   3  104.24    5.30
   5 -10   3  103.43    5.39
  -5 -10  -3  101.47    5.36
   5  10   3   97.31    4.99
   6 -10   3   35.19    3.04
   6  10   3   37.81    3.11
   6 -10   3   35.33    3.11
   6 -10   3   33.81    3.26
  -6 -10  -3   37.54    3.28
   7 -10   3   79.38    5.23
   7  10   3   81.50    5.40
   7 -10   3   76.92    5.37
   7 -10   3   76.34    5.33
  -7 -10  -3   81.29    5.52
   8 -10   3   59.14    3.51
   8  10   3   55.61    3.72
   8 -10   3   53.37    3.75
  -8 -10  -3   59.51    3.90
   9 -10   3    6.65    2.28
   9  10   3    6.45    2.33
   9 -10   3    5.66    2.21
  -9 -10  -3    4.50    2.54
  10 -10   3   10.18    2.51
 -10 -10  -3   16.28    2.71
  11 -10   3   17.25    2.81
 -11 -10  -3   13.61    3.15
  12  10   3   77.37    4.95
  12 -10   3   75.65    4.98
 -12 -10  -3   62.64    4.64
  13  10   3   27.68    3.20
 -13 -10  -3   24.10    3.16
  14  10   3   29.28    3.44
 -14 -10  -3   19.78    3.15
  15  10   3   31.44    3.36
 -15 -10  -3   30.77    3.50
  16  10   3    6.48    2.71
 -16 -10  -3    4.94    3.38
  17  10   3    8.81    2.96
 -17 -10  -3    9.29    3.31
  18  10   3   10.89    2.82
 -18 -10  -3    5.30    3.45
  19  10   3    6.41    2.94
 -19 -10  -3    4.48    3.43
  21  11  -3    2.09    2.93
  21 -11  -3    0.38    3.39
 -21 -11   3    0.19    3.19
  20  11  -3    1.52    2.66
  20 -11  -3    1.60    2.79
 -20 -11   3    3.14    3.45
  19  11  -3   -0.61    2.53
  19 -11  -3   -0.47    2.77
 -19 -11   3    1.03    2.95
  18  11  -3    2.72    2.70
  18 -11  -3    4.47    2.95
 -18 -11   3    2.68    3.09
  17  11  -3    1.49    2.58
  17 -11  -3    0.08    2.96
 -17 -11   3   -0.13    2.82
  16  11  -3    1.59    2.74
  16 -11  -3    4.12    2.67
 -16 -11   3    2.51    2.69
  15  11  -3    1.56    2.37
  15 -11  -3    1.97    2.38
 -15 -11   3   -0.25    3.21
  14  11  -3   11.38    2.81
  14 -11  -3    6.60    2.87
 -14 -11   3    7.51    2.98
  13  11  -3    0.51    2.44
  13 -11  -3    0.03    2.15
 -13 -11   3   -1.05    3.13
  12  11  -3    2.35    2.00
  12 -11  -3    3.31    2.06
 -12 -11   3    1.43    2.02
  11  11  -3    3.87    1.68
  11 -11  -3    3.43    2.43
 -11 -11   3    2.86    1.99
  10 -11  -3    2.33    2.53
 -10 -11   3    1.47    2.27
   9 -11  -3   40.32    3.58
  -9 -11   3   40.22    3.61
  -8  11   3   46.24    3.24
   8  11  -3   45.75    3.41
   8 -11  -3   52.62    3.58
   8 -11  -3   60.30    3.95
  -8 -11   3   60.37    3.96
   7  11  -3   11.15    2.49
  -7  11   3   11.80    2.13
   7 -11  -3   12.55    2.28
   7 -11  -3   16.00    2.72
  -7  11   3   15.60    2.78
  -7 -11   3   17.70    2.79
   6  11  -3  144.84    6.39
  -6  11   3  142.64    6.22
   6 -11  -3  150.23    6.43
   6 -11  -3  156.60    7.10
  -6 -11   3  166.24    7.16
  -6  11   3  164.07    7.00
   5  11  -3    4.01    2.17
  -5  11   3    4.56    1.70
   5 -11  -3    5.48    1.97
   5 -11  -3    6.73    2.52
  -5 -11   3    6.41    2.52
  -5  11   3    7.44    2.22
   4  11  -3    3.47    1.88
  -4  11   3    4.32    1.63
   4 -11  -3    3.87    1.98
   4 -11  -3    2.55    2.11
  -4 -11   3    4.30    2.25
  -4  11   3    3.57    2.35
   3  11  -3   14.16    2.49
  -3  11   3   10.91    2.28
   3 -11  -3   11.72    2.29
   3 -11  -3   12.07    2.54
  -3 -11   3   13.35    2.85
  -3  11   3   13.24    2.57
   2  11  -3    6.94    1.90
  -2  11   3    6.36    1.97
   2 -11  -3    5.42    1.93
   2 -11  -3    4.52    2.46
  -2 -11   3    5.08    2.50
  -2  11   3    3.93    2.47
  -1 -11   3    8.31    2.07
  -1  11   3    7.54    2.25
   1 -11  -3    8.03    2.05
  -1 -11   3    8.03    2.51
   1 -11  -3    8.60    2.36
  -1  11   3    7.59    2.76
   0 -11   3    6.07    1.78
   0  11   3    4.10    1.99
   0 -11  -3    3.90    2.00
   0 -11   3    2.72    1.75
   0 -11   3    1.74    2.02
   0 -11  -3    2.62    2.40
   0  11   3    1.25    2.48
   1 -11   3    5.21    1.99
   1  11   3    4.11    2.84
  -1 -11  -3    5.28    1.99
   1 -11   3    6.05    1.92
   1 -11   3    4.72    1.99
  -1 -11  -3    5.97    2.23
   1  11   3    5.24    2.08
   2 -11   3   44.50    3.29
   2  11   3   42.09    3.21
  -2 -11  -3   47.36    3.11
   2 -11   3   46.69    3.20
   2 -11   3   50.95    3.81
  -2 -11  -3   49.73    3.77
   2  11   3   48.97    3.42
   3 -11   3    5.60    2.23
   3  11   3    6.52    2.15
   3 -11   3    6.20    2.07
   3 -11   3    7.58    2.44
  -3 -11  -3    7.12    2.49
   4 -11   3   43.61    3.68
   4  11   3   45.98    3.81
   4 -11   3   49.18    4.05
   4 -11   3   52.09    4.47
  -4 -11  -3   50.69    4.21
   5 -11   3    2.53    1.83
   5  11   3    2.09    2.05
   5 -11   3    3.35    1.80
   5 -11   3    4.70    2.43
  -5 -11  -3    2.42    2.27
   6 -11   3   24.78    2.62
   6  11   3   25.12    2.74
   6 -11   3   26.12    2.97
   6 -11   3   23.34    2.89
  -6 -11  -3   26.37    3.22
   7 -11   3   16.46    2.36
   7  11   3   20.33    2.63
   7 -11   3   20.19    2.65
  -7 -11  -3   26.75    3.19
   8 -11   3    3.39    2.01
   8  11   3    3.99    2.08
   8 -11   3    2.88    2.55
  -8 -11  -3    1.69    2.77
   9  11   3    0.54    2.14
   9 -11   3    0.32    2.18
  -9 -11  -3   -0.26    2.16
  10  11   3    8.92    2.41
  10 -11   3    6.18    2.33
 -10 -11  -3    7.27    2.77
  11 -11   3    1.45    2.25
 -11 -11  -3    1.60    2.78
 -12 -11  -3    1.05    2.59
  13  11   3    0.29    2.43
 -13 -11  -3    4.32    2.60
  14  11   3    5.95    2.63
 -14 -11  -3    8.88    2.93
  15  11   3    1.44    2.42
 -15 -11  -3    4.61    3.06
  16  11   3    2.17    2.38
 -16 -11  -3    3.30    3.21
  17  11   3   13.24    3.23
 -17 -11  -3   18.05    3.66
  18  11   3    0.74    3.01
 -18 -11  -3   -0.01    3.12
  19  11   3   -0.37    2.90
 -19 -11  -3    2.82    3.46
  20  12  -3    3.08    3.09
  20 -12  -3    0.65    2.98
 -20 -12   3    2.07    3.54
  19  12  -3   12.14    3.38
  19 -12  -3   17.24    3.53
 -19 -12   3   16.96    3.69
  18  12  -3    3.44    2.94
  18 -12  -3    0.64    3.04
 -18 -12   3    1.55    3.02
  17  12  -3    0.84    2.12
  17 -12  -3    2.67    2.70
 -17 -12   3    0.20    3.12
  16  12  -3    0.34    2.44
  16 -12  -3   -0.68    2.56
 -16 -12   3   -0.40    2.72
  15  12  -3    5.50    2.41
  15 -12  -3    5.21    2.76
 -15 -12   3    5.10    2.81
  14  12  -3    3.93    2.48
  14 -12  -3    2.79    2.58
 -14 -12   3    1.17    3.44
  13  12  -3    2.55    2.50
  13 -12  -3    1.96    2.28
 -13 -12   3    0.04    2.74
  12  12  -3    1.53    2.28
  12 -12  -3   -0.29    2.23
 -12 -12   3    0.97    2.01
  11 -12  -3    0.25    2.24
 -11 -12   3    0.41    2.55
  10 -12  -3   18.90    2.79
 -10 -12   3   14.35    3.00
   9  12  -3   61.56    5.14
   9 -12  -3   69.30    5.78
  -9 -12   3   67.80    5.51
  -8  12   3    1.54    1.91
   8 -12  -3    1.37    2.24
  -8 -12   3    0.56    2.25
   7  12  -3   55.78    5.27
  -7  12   3   52.35    4.95
   7 -12  -3   58.33    5.50
   7 -12  -3   71.77    6.65
  -7 -12   3   78.52    6.93
  -6  12   3    2.21    1.87
   6 -12  -3    2.96    2.20
   6 -12  -3    4.98    2.65
  -6 -12   3    7.11    2.69
   5  12  -3    0.53    2.01
  -5  12   3   -0.23    2.18
   5 -12  -3    0.20    1.70
   5 -12  -3   -1.86    2.23
  -5 -12   3    0.67    2.34
   4  12  -3   39.84    3.25
  -4  12   3   37.83    3.01
   4 -12  -3   37.66    2.81
   4 -12  -3   36.87    3.43
  -4 -12   3   40.35    3.22
   3  12  -3    3.81    2.05
  -3  12   3    2.41    2.03
   3 -12  -3    2.73    2.17
   3 -12  -3    2.76    2.27
  -3 -12   3    2.27    2.10
   2  12  -3   63.96    4.55
  -2  12   3   60.74    4.46
   2 -12  -3   65.77    4.56
   2 -12  -3   74.35    5.35
  -2 -12   3   74.77    5.37
  -1  12   3   21.54    2.58
   1 -12  -3   19.40    2.44
  -1 -12   3   17.49    2.47
   1 -12  -3   18.07    2.90
   0  12   3   23.24    2.82
   0 -12  -3   22.39    2.60
   0 -12   3   24.72    2.60
   0 -12   3   27.34    3.28
   0 -12  -3   25.27    3.08
   1 -12   3   10.71    2.29
   1  12   3   10.09    3.72
  -1 -12  -3    8.75    2.00
   1 -12   3    6.55    2.09
   1 -12   3    5.99    2.56
  -1 -12  -3    6.24    2.41
   2 -12   3   49.26    3.48
   2  12   3   53.42    3.58
   2 -12   3   64.00    3.69
   2 -12   3   62.07    4.08
  -2 -12  -3   66.91    4.21
   3 -12   3    0.98    1.87
   3 -12   3    4.32    2.10
   3 -12   3    4.35    2.42
  -3 -12  -3    3.73    2.43
   4 -12   3  122.09    4.72
   4  12   3  125.67    5.02
   4 -12   3  126.39    4.90
   4 -12   3  118.65    5.28
  -4 -12  -3  127.11    5.35
   5 -12   3   31.81    2.97
   5  12   3   35.79    2.98
   5 -12   3   36.21    3.17
  -5 -12  -3   40.57    4.70
   6 -12   3   41.62    4.22
   6  12   3   41.11    4.29
   6 -12   3   45.06    4.67
  -6 -12  -3   48.18    4.91
   7 -12   3    0.67    2.47
  -7 -12  -3    2.10    2.49
   8  12   3  274.25    7.12
   8 -12   3  271.07    7.41
  -8 -12  -3  286.61    8.29
   9  12   3    0.57    2.26
   9 -12   3    1.84    2.26
  -9 -12  -3    1.19    2.69
  10  12   3    1.57    2.34
  10 -12   3    2.66    2.36
 -10 -12  -3    2.65    2.44
  11  12   3    1.33    2.40
 -11 -12  -3   -0.72    2.47
 -12 -12  -3   27.43    3.45
 -13 -12  -3    1.74    3.08
  14  12   3   19.34    3.05
 -14 -12  -3   17.34    3.23
  15  12   3   24.19    2.91
 -15 -12  -3   25.85    3.40
  16  12   3   18.64    3.06
 -16 -12  -3   13.00    3.26
  17  12   3   11.84    3.38
 -17 -12  -3    9.36    3.40
  18  12   3   48.93    4.19
 -18 -12  -3   42.88    4.18
  19  13  -3    0.02    3.12
  19 -13  -3    1.54    3.65
 -19 -13   3    0.83    3.70
  18  13  -3   86.88    4.75
  18 -13  -3   76.55    5.03
 -18 -13   3   80.86    4.82
  17  13  -3   -1.63    2.48
  17 -13  -3    1.50    3.01
  16  13  -3  148.19    5.94
  16 -13  -3  150.20    6.81
 -16 -13   3  145.34    5.66
  15  13  -3   -1.17    2.23
  15 -13  -3    1.35    3.09
  14  13  -3  129.71    5.99
  14 -13  -3  128.75    6.29
 -14 -13   3  134.76    6.37
  13  13  -3    3.56    2.34
  13 -13  -3    7.32    2.93
  12 -13  -3  137.67    5.70
 -12 -13   3  132.92    5.46
  11 -13  -3    5.90    2.90
 -11 -13   3    8.57    3.01
  10  13  -3   67.82    4.58
  10 -13  -3   76.66    5.23
 -10 -13   3   78.18    5.16
   9  13  -3   36.78    3.21
   9 -13  -3   43.46    3.73
  -9 -13   3   50.56    3.80
  -8  13   3  123.43    4.74
   8  13  -3  126.27    5.42
   8 -13  -3  137.22    5.61
  -8 -13   3  154.62    5.80
   7  13  -3    9.53    4.97
  -7  13   3   11.14    2.24
   7 -13  -3   17.06    2.83
  -7 -13   3   18.23    2.91
   6  13  -3  116.91    4.83
  -6  13   3  113.79    4.67
   6 -13  -3  112.49    5.37
  -6 -13   3  112.90    5.13
   5  13  -3    2.51    2.27
  -5  13   3    5.20    2.30
   5 -13  -3    6.56    2.10
   5 -13  -3   10.38    2.52
  -5 -13   3    8.61    2.78
   4  13  -3  400.01    8.63
  -4  13   3  391.63    8.49
   4 -13  -3  382.88   11.14
   4 -13  -3  358.79   11.39
  -4 -13   3  386.76    8.92
   3  13  -3   -0.43    2.35
  -3  13   3    0.68    1.91
   3 -13  -3    0.21    2.18
   3 -13  -3    0.82    2.46
  -3 -13   3    0.41    2.65
   2  13  -3  325.99   10.00
  -2  13   3  327.04    9.98
   2 -13  -3  314.59    9.59
   2 -13  -3  317.40   10.39
  -2 -13   3  317.74   10.18
  -1  13   3   -0.12    2.81
   1 -13  -3    0.40    2.01
   1 -13  -3   -0.41    2.42
  -1 -13   3    1.04    1.94
   0  13   3  113.78    5.19
   0 -13   3  117.98    5.30
   0 -13   3  118.38    5.71
   0 -13  -3  120.47    5.97
   1 -13   3    8.09    2.11
   1 -13   3    7.50    2.96
  -1 -13  -3    7.57    2.76
   2  13   3  197.86    7.56
   2 -13   3  180.93    6.79
   2 -13   3  162.27    6.82
  -2 -13  -3  184.57    7.27
   3  13   3   34.09    5.22
   3 -13   3   47.20    4.67
  -3 -13  -3   46.51    4.98
   4 -13   3  101.80    7.38
   4  13   3   93.31    7.03
   4 -13   3   77.87    6.22
  -4 -13  -3   74.51    6.08
   5 -13   3   46.80    4.40
   5  13   3   51.94    7.43
   5 -13   3   59.96    5.05
  -5 -13  -3   67.60    5.64
   6  13   3  150.23    5.42
   6 -13   3  136.55    5.24
  -6 -13  -3  133.56    5.65
   7 -13   3    2.95    2.48
  -7 -13  -3    7.77    2.72
   8  13   3   53.89    4.06
   8 -13   3   54.16    4.27
  -8 -13  -3   41.71    3.59
   9  13   3   20.49    2.87
   9 -13   3   17.43    3.39
  -9 -13  -3   25.90    3.48
  10  13   3   41.32    4.00
 -10 -13  -3   33.87    4.79
  11  13   3   46.87    4.25
 -11 -13  -3   59.42    6.36
  12  13   3   62.54    4.08
 -12 -13  -3   47.60    7.08
 -13 -13  -3   79.11    5.36
 -14 -13  -3    7.91    4.22
  15  13   3   55.63    4.38
 -15 -13  -3   78.19    4.59
  16  13   3   27.80    3.37
 -16 -13  -3   19.52    3.55
  17  13   3   56.17    4.25
  17 -13   3   73.81    4.87
 -17 -13  -3   71.03    4.58
  18  14  -3   -0.77    2.67
  18 -14  -3    1.27    3.18
 -18 -14   3    0.07    3.01
  17  14  -3   28.37    3.39
  17 -14  -3   36.46    4.05
 -17 -14   3   36.13    4.32
  16  14  -3   -1.43    2.48
  16 -14  -3   -0.71    2.92
  15  14  -3    4.99    2.58
  15 -14  -3    5.23    3.07
 -15 -14   3    2.34    3.18
  14  14  -3    1.83    2.67
  14 -14  -3   -1.11    2.89
 -14 -14   3   -1.24    3.05
  13 -14  -3   -0.69    2.93
 -13 -14   3    0.08    2.83
  12 -14  -3   -0.35    2.63
 -12 -14   3   -0.04    2.55
  11  14  -3   -1.28    2.40
  11 -14  -3    1.49    2.58
 -11 -14   3    0.51    2.78
  10  14  -3   17.15    2.93
  10 -14  -3   17.31    3.13
 -10 -14   3   17.03    3.19
   9  14  -3    9.70    2.68
   9 -14  -3   10.38    2.91
  -9 -14   3    9.58    2.98
   8  14  -3   61.31    4.44
   8 -14  -3   62.84    5.15
  -8 -14   3   68.82    5.03
   7  14  -3   14.79    2.74
  -7  14   3   14.22    2.61
   7 -14  -3    8.64    2.78
  -7 -14   3    6.68    2.21
   6  14  -3   18.37    3.98
  -6  14   3   17.89    2.64
   6 -14  -3   27.09    3.19
  -6 -14   3   26.17    3.19
   5  14  -3    5.75    2.28
  -5  14   3    5.89    2.16
   5 -14  -3   15.62    3.02
  -5 -14   3    8.34    3.29
   4  14  -3   11.74    2.35
  -4  14   3   10.43    2.30
   4 -14  -3   20.42    3.11
  -4 -14   3   20.59    3.22
   3  14  -3   -0.62    2.23
  -3  14   3   -0.04    2.03
   3 -14  -3   -0.12    1.86
   3 -14  -3    1.10    2.36
  -3 -14   3    0.47    2.31
   2  14  -3   97.79    7.23
  -2  14   3   94.07    6.89
   2 -14  -3   95.81    6.88
   2 -14  -3  108.06    8.11
  -2 -14   3  106.73    7.88
  -1  14   3    2.57    1.99
  -1 -14   3    7.89    2.33
   1 -14  -3    6.74    2.39
   0  14   3  100.14    7.27
   0 -14   3  113.69    4.73
   0 -14   3  110.08    5.03
   0 -14  -3  111.38    5.23
   1  14   3   21.05    7.98
   1 -14   3   29.33    3.37
  -1 -14  -3   28.53    3.60
   2  14   3   83.63    6.46
   2 -14   3   90.33    6.72
  -2 -14  -3   89.65    6.96
   3 -14   3   17.02    2.57
  -3 -14  -3   17.45    2.98
   4  14   3  167.84    6.24
   4 -14   3  177.91    6.65
  -4 -14  -3  187.74    7.01
   5  14   3   -0.03    2.07
   5 -14   3    0.22    2.18
  -5 -14  -3    1.38    2.35
   6  14   3  158.94    6.99
   6 -14   3  171.00    7.39
  -6 -14  -3  176.98    7.84
   7  14   3   23.49    2.93
   7 -14   3   24.67    3.10
  -7 -14  -3   31.88    3.40
   8  14   3    1.16    1.83
   8 -14   3    2.41    2.20
  -8 -14  -3    2.73    2.66
   9  14   3   49.15    4.99
  -9 -14  -3   55.54    5.54
  10  14   3   50.88    3.71
 -10 -14  -3   50.10    3.93
  11  14   3   14.16    5.24
  12  14   3  116.01    6.22
 -12 -14  -3  113.01    6.53
  13  14   3    2.26    2.86
 -14 -14  -3   60.82    4.60
  15 -14   3   13.40    3.60
 -15 -14  -3   14.25    3.50
  16  14   3   26.03    3.77
  16 -14   3   18.86    3.82
 -16 -14  -3   18.60    3.60
  17  15  -3    2.55    3.02
  17 -15  -3    3.63    3.27
 -17 -15   3    4.76    3.56
  16  15  -3    4.92    2.55
 -16 -15   3    6.27    4.09
  15  15  -3   38.91    3.45
  15 -15  -3   45.59    4.14
 -15 -15   3   49.57    4.45
  14 -15  -3   30.07    3.72
 -14 -15   3   27.49   10.70
  13 -15  -3    5.46    3.03
  12  15  -3   40.14    3.64
  12 -15  -3   40.71    4.11
 -12 -15   3   38.67    5.12
  11  15  -3    0.62    2.56
  11 -15  -3    1.10    3.03
 -11 -15   3    2.24    2.73
  10  15  -3  101.24    5.31
  10 -15  -3   99.71    5.54
 -10 -15   3  102.00    5.41
   9  15  -3    6.72    3.45
   9 -15  -3    8.96    3.15
  -9 -15   3   10.48    2.94
   8  15  -3   17.36    2.84
   8 -15  -3   13.04    3.40
  -8 -15   3   14.51    3.33
   7  15  -3   33.75    4.69
   7 -15  -3   39.62    3.86
  -7 -15   3   41.36    3.69
  -6  15   3    0.67    1.80
   6 -15  -3    0.79    2.89
  -6 -15   3    0.56    2.85
   5  15  -3   18.36    2.59
  -5  15   3   17.57    2.90
   5 -15  -3   20.16    3.12
  -5 -15   3   17.88    3.56
   4  15  -3   16.37    3.01
  -4  15   3   16.45    2.50
   4 -15  -3   14.41    2.95
  -4 -15   3   14.45    2.84
   3  15  -3    2.08    2.16
  -3  15   3    2.05    2.10
   3 -15  -3    4.50    2.46
  -3 -15   3    0.27    2.40
   2  15  -3   43.04    3.39
  -2  15   3   43.52    3.24
   2 -15  -3   36.42    3.67
  -2 -15   3   36.30    3.26
  -1  15   3   21.73    2.67
  -1 -15   3   21.30    2.80
  -1 -15   3   17.98    3.07
   1 -15  -3   21.13    3.05
   0  15   3   31.37    3.09
   0 -15   3   24.04    2.82
   0 -15  -3   25.47    3.33
   1  15   3    1.25    2.04
   1 -15   3    2.88    2.19
  -1 -15  -3   -0.30    2.47
   2  15   3    0.56    2.05
   2 -15   3   -0.26    2.29
  -2 -15  -3   -0.47    2.61
   3 -15   3    2.04    2.18
  -3 -15  -3    2.38    2.65
   4  15   3   55.87    4.84
   4 -15   3   44.39    3.49
  -4 -15  -3   41.25    3.63
   5  15   3   15.33    2.54
   5 -15   3   14.96    2.84
  -5 -15  -3   13.74    3.11
   6  15   3    0.78    2.16
   6 -15   3    1.18    2.59
  -6 -15  -3    2.64    3.01
   7  15   3    5.05    2.41
   7 -15   3    4.94    2.74
  -7 -15  -3    6.28    3.20
   8  15   3   26.58    3.10
  -8 -15  -3   21.85    3.52
   9  15   3   18.68    4.24
  -9 -15  -3   25.80    3.41
  10  15   3   31.48    3.48
 -10 -15  -3   25.13    3.72
  11  15   3   17.81    3.04
 -11 -15  -3   23.60    3.78
  12  15   3   11.38    3.26
 -12 -15  -3    4.43    4.27
  13  15   3    6.52    2.79
  13 -15   3    8.05    3.16
 -13 -15  -3    8.31    3.22
  14  15   3   -1.24    2.83
  14 -15   3   -0.83    3.27
 -14 -15  -3   -0.19    3.35
  15 -15   3    1.08    3.50
 -15 -15  -3    2.76    3.14
  16  16  -3    3.40    2.64
  16 -16  -3   -1.61    3.38
 -16 -16   3    3.73    3.57
 -15 -16   3    0.97    3.20
  14 -16  -3    6.88    3.18
 -14 -16   3   10.03    3.35
  13  16  -3    4.76    2.99
  13 -16  -3    8.07    3.29
 -13 -16   3    9.38    5.07
  12  16  -3    1.43    2.68
  12 -16  -3    2.70    3.21
 -12 -16   3    3.63    4.39
  11  16  -3   -0.56    2.31
  11 -16  -3    1.03    2.68
 -11 -16   3   -1.18    2.99
  10  16  -3   -1.40    2.82
  10 -16  -3   -0.66    2.65
 -10 -16   3   -1.61    2.90
   9  16  -3   -0.74    2.15
   9 -16  -3    0.75    2.54
  -9 -16   3    0.80    2.97
   8  16  -3    2.51    2.28
   8 -16  -3    2.80    3.09
  -8 -16   3    2.43    3.23
   7  16  -3   14.06    2.64
   7 -16  -3   14.94    3.53
  -7 -16   3   15.20    3.17
   6  16  -3    0.94    3.59
   6 -16  -3    1.19    2.61
  -6 -16   3    1.37    2.87
   5  16  -3    8.67    2.87
  -5  16   3    7.48    2.37
   5 -16  -3   14.33    3.13
  -5 -16   3   12.52    3.12
   4  16  -3    0.53    2.46
  -4  16   3    0.84    2.36
   4 -16  -3    1.78    3.14
  -4 -16   3    2.25    2.94
   3  16  -3   -1.17    2.03
  -3  16   3    0.13    2.19
   3 -16  -3   -2.32    3.36
  -3 -16   3    1.61    3.28
   2  16  -3   16.05    2.62
  -2  16   3   15.05    2.57
   2 -16  -3   19.16    3.34
  -1  16   3   24.21    2.86
  -1 -16   3   25.84    3.21
   1 -16  -3   26.12    3.43
   0  16   3    0.84    2.81
   0 -16   3   -0.09    2.23
   0 -16  -3    1.50    3.05
   1  16   3    7.83    2.32
   1 -16   3    9.15    2.58
  -1 -16  -3    9.57    2.83
   2  16   3    0.12    2.32
   2 -16   3    0.28    2.45
  -2 -16  -3    0.29    2.70
   3  16   3   -1.08    2.17
   3 -16   3    0.11    2.19
  -3 -16  -3   -1.76    2.56
   4  16   3    3.54    2.35
   4 -16   3    1.92    2.35
  -4 -16  -3    3.23    2.68
   5  16   3    1.42    2.24
   5 -16   3    1.35    2.34
  -5 -16  -3    0.95    2.82
   6  16   3    0.42    2.33
  -6 -16  -3   -0.07    2.81
   7  16   3    3.52    2.45
  -7 -16  -3   -1.33    2.50
   8  16   3    1.86    2.66
  -8 -16  -3   -1.04    2.96
   9  16   3   -0.13    2.73
  -9 -16  -3   -2.66    2.89
  10  16   3    3.11    2.57
 -10 -16  -3    3.40    2.98
  11  16   3    1.56    2.75
 -11 -16  -3    3.24    3.12
  12  16   3    1.28    2.94
  12 -16   3    2.26    3.00
 -12 -16  -3   -2.96    2.93
  13  16   3    6.33    3.40
  13 -16   3    4.50    3.16
 -13 -16  -3    5.88    3.45
  14  16   3    3.71    3.45
  14 -16   3    1.13    3.27
 -14 -16  -3   -0.04    3.48
  14  17  -3   26.95    3.58
  14 -17  -3   34.60    3.86
 -14 -17   3   32.41    4.06
  13  17  -3   11.18    3.18
 -13 -17   3   20.85   10.36
  12  17  -3   55.28    4.12
  12 -17  -3   49.88    4.33
 -12 -17   3   45.21    6.86
  11  17  -3   12.29    3.07
  11 -17  -3   12.00    3.55
 -11 -17   3    9.81    3.65
  10  17  -3   22.38    3.40
  10 -17  -3   21.49    3.76
 -10 -17   3   23.66    3.61
   9  17  -3    0.80    3.79
   9 -17  -3    3.00    3.03
  -9 -17   3    0.94    3.00
   8  17  -3   23.14    3.08
   8 -17  -3   28.21    3.67
  -8 -17   3   29.02    3.68
   7  17  -3    9.29    4.73
   7 -17  -3   10.68    3.05
  -7 -17   3   13.48    3.35
   6  17  -3   48.13    4.90
   6 -17  -3   47.05    4.68
  -6 -17   3   44.44    4.19
   5  17  -3    6.09    4.10
   5 -17  -3   14.23    3.35
  -5 -17   3   10.03    3.23
   4  17  -3   65.40    4.15
   4 -17  -3   71.73    4.58
   3  17  -3   12.91    2.54
  -3  17   3    9.79    2.49
   3 -17  -3    9.72    3.07
  -2  17   3   94.31    5.02
   2 -17  -3  112.92    6.08
  -1  17   3    6.27    2.36
  -1 -17   3    9.61    2.70
   1 -17  -3    9.44    3.12
   0  17   3  101.01    6.14
   0 -17   3  109.73    5.43
   0 -17  -3  111.31    6.10
   1  17   3   20.69    4.09
   1 -17   3   29.37    3.14
  -1 -17  -3   27.32    3.59
   2  17   3   18.93    4.88
   2 -17   3   16.39    2.93
  -2 -17  -3   14.92    3.39
   3  17   3   11.81    5.51
   3 -17   3   13.18    2.66
  -3 -17  -3   12.00    3.24
   4  17   3   29.15    3.15
   4 -17   3   26.22    3.06
  -4 -17  -3   30.24    3.66
  -5 -17  -3    5.09    3.02
   6  17   3   38.01    3.79
  -6 -17  -3   43.93    4.18
   7  17   3    4.12    3.00
  -7 -17  -3    7.48    2.99
   8  17   3   40.01    3.66
  -8 -17  -3   38.62    3.92
   9  17   3    6.28    2.84
  -9 -17  -3    7.74    3.35
  10  17   3    1.26    2.65
  10 -17   3   -0.23    3.38
 -10 -17  -3    3.16    2.96
  11  17   3   23.10    3.18
  11 -17   3   21.80    3.81
 -11 -17  -3   28.35    4.00
  12  17   3   17.75    3.27
  12 -17   3   18.82    3.87
 -12 -17  -3   16.49    5.53
  12  18  -3    1.48    2.88
  12 -18  -3   -0.12    2.78
 -12 -18   3    1.84    3.42
  11  18  -3   19.79    3.41
 -11 -18   3   24.80    3.90
  10  18  -3    7.42    4.42
  10 -18  -3    6.45    3.18
 -10 -18   3    4.92    3.29
   9  18  -3    1.40    2.91
   9 -18  -3    0.69    3.58
  -9 -18   3    1.98    3.40
   8  18  -3    2.32    2.77
   8 -18  -3    0.07    2.85
  -8 -18   3   -1.14    3.11
   7  18  -3    0.89    2.76
   7 -18  -3   -0.18    3.12
  -7 -18   3    4.45    2.99
   6  18  -3   20.55    3.12
   6 -18  -3   27.67    3.66
  -6 -18   3   31.18    3.98
   5  18  -3    0.25    4.14
   5 -18  -3    3.09    2.91
   4  18  -3    7.73    2.78
   4 -18  -3   10.48    3.48
   3  18  -3    4.44    2.55
   3 -18  -3    4.56    3.38
  -2  18   3   18.47    2.91
  -2 -18   3   22.54    3.26
   2 -18  -3   21.29    3.36
  -1  18   3    2.15    2.45
  -1 -18   3    5.72    2.83
   1 -18  -3    4.85    3.15
   0  18   3   23.02    3.18
   0 -18   3   31.22    3.87
   0 -18  -3   28.41    3.94
   1 -18   3    0.22    2.57
  -1 -18  -3   -0.76    3.23
   2  18   3   60.48    3.86
   2 -18   3   59.18    3.92
  -2 -18  -3   60.88    4.47
   3 -18   3   -0.58    2.36
  -3 -18  -3   -0.25    3.17
   4  18   3   33.11    3.33
  -4 -18  -3   35.48    3.77
  -5 -18  -3   -0.50    3.06
   6  18   3   33.12    3.40
  -6 -18  -3   38.50    4.38
   7  18   3   12.32    2.79
  -7 -18  -3   14.58    3.64
   8  18   3   39.20    3.67
   8 -18   3   43.02    4.10
  -8 -18  -3   50.82    4.21
   9  18   3    1.22    2.86
   9 -18   3   -1.72    3.51
  -9 -18  -3    0.93    2.87
  10  18   3   28.17    3.33
  10 -18   3   29.21    3.98
 -10 -18  -3   21.43    6.30
  10  19  -3   86.38    4.58
  10 -19  -3   74.16    4.88
 -10 -19   3   70.65    4.88
   9 -19  -3    0.16    3.39
   8  19  -3   58.52    3.94
  -8 -19   3   56.70    4.54
   6  19  -3   50.89    3.78
   6 -19  -3   47.56    4.37
   5  19  -3    0.31    2.40
   5 -19  -3   -0.82    3.57
   4  19  -3   47.80    3.70
   4 -19  -3   49.85    4.12
   3 -19  -3   -0.44    3.67
  -2 -19   3   49.45    3.76
   2 -19  -3   48.60    4.20
  -1 -19   3    4.05    2.56
   1 -19  -3    2.55    2.94
   0  19   3   49.11    3.59
   0 -19   3   47.07    3.80
   0 -19  -3   52.14    4.07
   1 -19   3    1.60    2.55
  -1 -19  -3    0.40    2.90
   2  19   3   58.76    4.42
  -2 -19  -3   50.78    4.70
  -3 -19  -3    1.95    3.77
   4  19   3   73.73    4.59
  -4 -19  -3   63.57    4.89
  -5 -19  -3    1.56    3.57
   6  19   3   20.88    3.48
   6 -19   3   17.46    3.72
  -6 -19  -3   17.03    3.93
   7  19   3   12.33    5.72
   7 -19   3   13.64    3.46
  -7 -19  -3   15.85    3.56
   8  19   3   28.17    4.49
   8 -19   3   20.53    3.71
  -8 -19  -3   22.19    3.97
   6  20  -3    1.42    3.07
   6 -20  -3    2.45    3.31
   5  20  -3   -2.37    2.52
   5 -20  -3    0.08    2.86
   4 -20  -3   14.87    3.83
  -3 -20   3   -0.36    2.73
   3 -20  -3    3.79    3.09
  -2 -20   3   19.83    3.99
   2 -20  -3   17.10    3.89
  -1 -20   3    8.02    3.27
   1 -20  -3    9.16    3.84
   0 -20   3   26.41    3.29
   0 -20  -3   24.03    3.66
   1  20   3   11.95    3.28
  -1 -20  -3   13.44    3.39
   2  20   3    4.26    3.89
  -2 -20  -3    4.98    3.14
   3  20   3    8.98    2.85
  -3 -20  -3   13.68    3.51
   4  20   3    2.83    2.71
   4 -20   3    4.30    3.02
  -4 -20  -3    3.63    3.15
 -25   0   4    3.65    3.42
 -24   0   4   60.77    4.38
 -23   0   4    0.16    3.05
 -22   0   4  166.92    6.50
 -21   0   4    7.84    3.02
  20   0  -4  138.49    5.09
  19   0  -4    5.87    2.48
  18   0  -4   47.75    3.66
  18   0  -4   52.35    3.93
  17   0  -4   66.30    8.12
 -17   0   4   70.94    5.50
  17   0  -4   77.56    6.18
  16   0  -4  300.24   12.38
 -16   0   4  299.76    9.68
  16   0  -4  303.19    9.95
  15   0  -4  256.23   21.50
 -15   0   4  281.95   10.82
  15   0  -4  278.75   11.31
  14   0  -4  428.26   21.99
 -14   0   4  429.88   13.85
  14   0  -4  422.86   13.91
 -14   0   4  430.13   14.23
 -13   0   4    2.93    1.76
  13   0  -4    3.31    2.15
 -13   0   4    3.70    2.03
 -12   0   4  460.11   14.18
  12   0  -4  465.61   14.90
 -12   0   4  444.81   14.18
 -11   0   4    3.34    1.60
 -11   0   4    3.67    1.78
  11   0  -4    3.14    1.78
 -11   0   4    4.12    2.48
 -10   0   4  456.48   10.30
 -10   0   4  469.81   10.83
  10   0  -4  478.61   12.19
 -10   0   4  475.48   11.20
  -9   0   4   17.06    2.35
  -9   0   4   13.96    2.09
  -9   0   4   12.88    2.66
  -9   0   4   13.47    2.33
  -8   0   4  525.76   15.65
  -8   0   4  466.00   14.29
  -8   0   4  462.78   14.39
  -8   0   4  471.00   15.04
  -7   0   4    9.80    1.84
  -7   0   4    3.03    1.45
  -7   0   4    2.55    1.46
  -7   0   4    2.62    1.75
  -6   0   4  336.45    8.41
  -6   0   4  335.39    8.53
  -6   0   4  329.84    8.65
  -6   0   4  328.68    9.18
  -5   0   4  108.15    5.64
   5   0  -4  101.14    5.29
  -5   0   4  107.63    5.58
  -5   0   4   98.13    5.29
  -4   0   4  436.94   11.07
   4   0  -4  437.93   10.80
  -4   0   4  417.67   10.80
  -4   0   4  427.52   10.78
  -3   0   4  257.16    8.02
   3   0  -4  284.07    8.42
  -3   0   4  281.89    8.60
  -2   0   4  624.59   13.94
   2   0  -4  574.09   13.21
   2   0  -4  556.64   13.42
   1   0  -4   38.23    3.26
  -1   0   4   45.70    4.01
   1   0  -4   45.21    4.03
   0   0  -4 1132.14   21.99
   0   0   4 1084.63   21.54
   0   0  -4 1057.01   20.97
   1   0   4  196.73   12.14
  -1   0  -4  208.14   12.63
   2   0   4  175.14    7.88
  -2   0  -4  223.10    9.23
  -3   0  -4  233.80    9.59
   4   0   4    1.27    1.16
  -4   0  -4    1.43    1.31
   4   0   4    5.28    1.71
  -4   0  -4    1.85    1.52
   5   0   4   12.94    2.13
  -5   0  -4   14.07    2.19
  -5   0  -4   26.67    2.92
   6   0   4  146.01    7.51
  -6   0  -4  146.50    7.69
   6   0   4  113.48    6.50
  -6   0  -4  128.25    6.92
   7   0   4  391.46    9.71
  -7   0  -4  384.19    9.54
   7   0   4  440.41   11.08
  -7   0  -4  415.03   10.08
   8   0   4   89.56    7.23
  -8   0  -4   94.51    8.04
   8   0   4   69.80    6.15
  -8   0  -4   74.76    6.34
   9   0   4   77.00    4.34
  -9   0  -4   72.73    4.29
   9   0   4   83.91    4.61
  -9   0  -4   82.45    4.42
  10   0   4   62.27    4.24
 -10   0  -4   66.31    4.32
  10   0   4   55.79    4.32
 -10   0  -4   53.64    4.18
  11   0   4  144.45    6.25
 -11   0  -4  130.07    6.29
  11   0   4  171.15    7.51
  12   0   4  135.31    6.12
  12   0   4  117.55    7.12
  13   0   4  121.78    5.55
  13   0   4  130.52    6.03
  14   0   4   18.79    2.80
  14   0   4   18.23    2.95
  15   0   4   18.24    2.71
  15   0   4   18.90    3.06
  16   0   4    2.09    2.86
  16   0   4    1.87    2.50
  17   0   4  164.21    5.81
  17   0   4  174.52    6.27
  18   0   4    8.51    3.01
  19   0   4   90.62    5.29
  19   0   4   83.54    5.48
  20   0   4   -1.28    2.76
  20   0   4    1.19    2.84
  21   0   4   88.47    4.75
  21   0   4   93.19    5.01
  22   0   4   -0.89    3.18
 -24  -1   4    0.09    3.18
 -24   1   4    1.85    2.81
 -23  -1   4    5.35    3.21
  22  -1  -4    2.90    2.63
 -22  -1   4    3.50    2.81
  21  -1  -4    8.34    2.97
 -21  -1   4    7.69    2.95
  20   1  -4    7.98    2.65
  20  -1  -4    7.52    2.76
 -20  -1   4    6.68    2.92
  19   1  -4    9.81    2.52
  19  -1  -4   10.73    2.86
 -19  -1   4   12.44    2.82
  18   1  -4    3.90    2.12
  18  -1  -4    4.32    2.38
 -18  -1   4    3.15    2.33
  17   1  -4    1.32    1.76
 -17  -1   4    2.30    2.09
 -17   1   4    0.30    2.00
  17  -1  -4    2.38    2.33
 -17  -1   4    0.86    2.25
  16   1  -4    5.27    2.19
 -16  -1   4    4.44    2.27
 -16   1   4    5.86    2.13
  16  -1  -4    5.18    2.24
 -16  -1   4    4.81    2.38
 -15   1   4    0.09    1.74
 -15  -1   4   -0.55    1.89
  15  -1  -4   -0.10    2.14
 -15  -1   4    0.15    2.26
  14   1  -4   85.21    7.36
 -14   1   4   87.14    5.55
 -14  -1   4   85.50    5.40
 -14   1   4   87.44   11.89
  14  -1  -4   88.12    5.98
 -14  -1   4   91.86    6.22
 -14   1   4   86.39    6.15
 -14  -1   4   90.17    6.01
  13   1  -4   60.26   10.41
 -13   1   4   63.82    3.95
 -13  -1   4   60.25    3.69
 -13   1   4   61.39    4.03
  13  -1  -4   62.50    4.08
 -13  -1   4   67.81    4.13
 -13   1   4   68.16    4.05
 -13  -1   4   69.16    4.45
  12   1  -4  148.57   10.74
 -12  -1   4  153.40    6.35
 -12   1   4  160.32    6.52
 -12   1   4  153.43    6.52
  12  -1  -4  155.00    6.95
 -12  -1   4  155.27    6.64
 -12   1   4  155.96    6.66
 -12  -1   4  155.54    7.30
  11   1  -4   23.73    2.92
 -11  -1   4   24.23    3.04
 -11   1   4   24.30    2.94
 -11   1   4   23.26    3.06
  11  -1  -4   22.43    3.02
 -11  -1   4   24.77    3.27
 -11   1   4   22.94    3.15
 -11  -1   4   22.18    3.08
 -10   1   4   95.46    7.59
 -10  -1   4   99.05    7.75
 -10   1   4  111.16    9.21
  10  -1  -4  100.67    8.41
 -10  -1   4  111.71    8.78
 -10   1   4  115.62    8.97
 -10  -1   4  106.75    8.42
  -9   1   4    3.04    1.54
  -9  -1   4    4.16    1.67
  -9   1   4   12.27    1.93
  -9  -1   4    9.96    1.97
   9  -1  -4    6.65    1.93
  -9  -1   4    9.51    2.26
  -9   1   4   11.94    2.43
  -9  -1   4   10.67    2.09
  -8   1   4  218.80    8.06
  -8  -1   4  216.95    7.94
  -8   1   4  258.21    9.16
  -8  -1   4  256.08    9.30
   8  -1  -4  237.17    9.32
  -8  -1   4  244.97    8.99
  -8   1   4  263.85    9.62
  -8  -1   4  246.75    9.35
  -7   1   4    9.14    1.90
  -7  -1   4   10.68    2.00
  -7   1   4    5.49    1.68
  -7  -1   4    5.11    1.51
   7  -1  -4    7.77    1.88
  -7  -1   4    8.01    1.80
  -7   1   4    4.87    1.95
  -7  -1   4    5.25    2.07
  -6  -1   4   86.98    4.68
  -6   1   4   76.80    4.43
  -6  -1   4   75.05    4.36
   6  -1  -4   74.50    4.33
  -6  -1   4   77.93    4.66
  -6   1   4   76.83    4.57
  -6  -1   4   75.51    4.54
  -5  -1   4  195.35    8.15
  -5   1   4  185.84    7.98
  -5  -1   4  164.53    7.30
   5  -1  -4  158.09    7.06
  -5  -1   4  194.18    8.38
  -5   1   4  170.39    7.61
  -5  -1   4  171.17    7.58
  -5   1   4  159.82    7.33
  -4   1   4    7.93    1.68
  -4  -1   4   13.13    2.04
   4  -1  -4   16.39    2.16
   4   1  -4   14.52    2.06
  -4   1   4    9.97    2.32
  -4  -1   4   13.94    2.13
  -4   1   4   17.10    2.79
   4   1  -4   13.76    2.19
  -3   1   4    0.03    1.35
  -3  -1   4   -0.70    0.92
   3  -1  -4    0.39    1.10
   3   1  -4    0.40    1.29
  -3  -1   4    0.56    1.30
   3   1  -4    0.42    1.43
  -2   1   4  557.68   12.86
   2  -1  -4  559.94   13.52
  -2  -1   4  533.70   12.48
   2   1  -4  547.42   12.87
   2   1  -4  535.80   13.05
  -1   1   4  139.62    8.99
   1  -1  -4  146.34    9.30
   1   1  -4  141.01    8.95
  -1   1   4  144.91    9.38
  -1  -1   4  155.94    9.85
   1  -1  -4  149.95    9.69
   1   1  -4  143.19    9.31
   0   1   4  356.61    9.56
   0  -1  -4  377.12    9.97
   0   1   4  385.10   10.28
   0  -1   4  387.68   10.24
   0  -1  -4  380.64   10.16
   0   1  -4  408.97   10.70
  -1  -1  -4   12.34    1.85
   1   1   4    8.30    1.79
   1  -1   4    6.77    1.70
  -1  -1  -4    8.33    1.74
  -1   1  -4    4.03    1.49
   2  -1   4  249.27   10.01
   2   1   4  277.64   11.10
   2  -1   4  305.01    8.34
  -2  -1  -4  287.83    7.32
  -2   1  -4  299.08    8.13
   3  -1   4  114.71    5.71
  -3   1  -4  116.46    5.79
   3   1   4  129.71    6.37
   3  -1   4  149.80    7.28
  -3  -1  -4  138.34    6.59
  -3   1  -4  133.00    6.42
   4   1   4  266.53   10.51
   4  -1   4  265.64   10.48
  -4   1  -4  271.69   11.29
   4   1   4  256.30   12.75
   4  -1   4  260.73   12.22
  -4  -1  -4  264.93   10.54
  -4   1  -4  270.37   10.68
   5   1   4   88.09    5.26
   5  -1   4   85.63    5.26
  -5  -1  -4   88.63    5.64
  -5   1  -4   86.25    5.16
   5   1   4   93.14    5.70
   5  -1   4  100.66    5.95
  -5  -1  -4   98.18    5.77
  -5   1  -4   91.91    5.48
   6   1   4  162.34    8.18
   6  -1   4  162.71    8.24
  -6  -1  -4  159.55    8.85
  -6   1  -4  158.26    8.23
   6   1   4  164.37    8.60
   6  -1   4  163.86    8.88
  -6  -1  -4  162.34    8.29
  -6   1  -4  158.76    8.04
   7   1   4   16.72    2.28
   7  -1   4   15.12    2.33
  -7  -1  -4   15.05    2.24
  -7   1  -4   15.94    2.36
   7   1   4   15.51    2.49
   7  -1   4   13.42    2.23
  -7  -1  -4   13.91    2.58
  -7   1  -4   16.00    2.29
   8   1   4  203.29    6.99
   8  -1   4  201.38    6.96
  -8  -1  -4  205.85    7.50
  -8   1  -4  203.19    7.28
   8   1   4  206.44    7.40
   8  -1   4  210.44    7.31
  -8  -1  -4  196.33    7.40
  -8   1  -4  204.25    7.11
   9   1   4    4.86    1.86
   9  -1   4    4.15    1.88
  -9  -1  -4    3.54    1.84
  -9   1  -4    3.85    1.94
   9   1   4    2.39    1.96
   9  -1   4    6.21    2.04
  -9  -1  -4    5.71    2.14
  -9   1  -4    4.72    2.06
  10   1   4  196.63    7.69
  10  -1   4  192.82    7.60
 -10  -1  -4  198.34    7.89
 -10   1  -4  200.00    8.01
  10   1   4  190.86    8.00
  10  -1   4  198.29    8.09
 -10  -1  -4  192.97    7.96
 -10   1  -4  196.73    8.02
  11   1   4   89.86    4.79
  11  -1   4   92.22    4.80
 -11   1  -4   87.44    5.05
  11   1   4   87.92    4.97
  11  -1   4   91.63    5.04
  12   1   4  220.30    9.19
  12  -1   4  217.87    9.14
  12   1   4  221.11    9.50
  12  -1   4  203.90    9.97
  13   1   4   51.27    4.95
  13  -1   4   51.73    5.04
  13   1   4   47.94    4.99
  13  -1   4   47.46    5.04
  14   1   4   95.18    7.05
  14  -1   4   99.16    7.35
  14   1   4  103.43    7.70
  14  -1   4   92.97    7.10
  15   1   4   33.09    3.16
  15  -1   4   33.84    3.46
  15   1   4   30.72    3.30
  15  -1   4   30.43    3.29
  16   1   4   88.92    5.68
  16  -1   4   89.83    5.74
  16   1   4   90.01    5.99
  16  -1   4   90.56    6.03
  17   1   4    2.90    2.66
  17  -1   4    0.59    2.64
  18   1   4   63.33    3.87
  18  -1   4   61.95    4.11
  18   1   4   60.02    4.35
  18  -1   4   54.71    4.05
  19  -1   4   -1.18    2.60
  19   1   4    0.60    2.71
  19  -1   4   -0.48    2.96
  20   1   4   11.41    3.09
  20  -1   4   10.89    3.08
  20   1   4   13.36    3.28
  20  -1   4   11.21    3.58
  21   1   4    1.22    3.10
  21  -1   4   -1.09    3.37
  22   1   4   21.50    3.61
  22  -1   4   23.91    3.88
  24  -2  -4    7.01    3.06
 -24  -2   4    7.31    3.56
  23  -2  -4    0.27    2.85
 -23  -2   4   -1.06    3.20
  22  -2  -4    9.46    3.42
 -22  -2   4   10.68    3.14
  21   2  -4   -0.08    2.63
  21  -2  -4    0.83    2.93
 -21  -2   4   -1.03    2.85
  20   2  -4   19.29    3.32
  20  -2  -4   17.88    3.03
 -20  -2   4   17.86    3.18
  19   2  -4    0.63    2.21
  19  -2  -4    0.19    2.60
 -19  -2   4    1.93    2.77
  18   2  -4   28.36    3.11
 -18   2   4   28.38    3.05
  18  -2  -4   31.04    3.40
 -18  -2   4   32.55    3.61
  17   2  -4   17.74    2.70
 -17   2   4   15.80    7.16
  17  -2  -4   17.28    2.77
 -17  -2   4   17.97    2.87
  16   2  -4   23.82    2.79
 -16  -2   4   23.99    2.71
 -16   2   4   22.95    2.70
 -16   2   4   23.42    4.15
  16  -2  -4   27.38    2.97
 -16  -2   4   27.01    3.28
  15   2  -4   40.54    5.10
 -15  -2   4   41.06    3.21
 -15   2   4   39.78    3.14
 -15   2   4   38.46    7.90
  15  -2  -4   42.66    3.32
 -15  -2   4   41.09    3.47
  14   2  -4   60.71    7.81
 -14  -2   4   69.80    5.00
 -14   2   4   70.94    4.75
 -14   2   4   65.85    5.98
  14  -2  -4   69.33    4.95
 -14  -2   4   71.74    5.09
 -14   2   4   70.54    5.04
 -14  -2   4   69.66    5.12
  13   2  -4   21.57    6.59
 -13  -2   4   22.23    2.64
 -13   2   4   23.88    2.63
 -13   2   4   20.23    2.36
  13  -2  -4   21.01    2.77
 -13  -2   4   23.38    3.09
 -13   2   4   21.11    2.56
 -13  -2   4   20.48    2.79
  12   2  -4    9.32    4.36
 -12   2   4    8.70    1.90
 -12  -2   4    8.61    2.18
 -12   2   4    8.33    1.92
  12  -2  -4    8.50    2.29
 -12  -2   4    8.34    2.26
 -12   2   4    8.77    2.11
 -12  -2   4    8.80    2.02
  11   2  -4    4.18    3.82
 -11  -2   4    4.88    1.72
 -11   2   4    5.26    1.75
 -11   2   4    3.10    1.39
  11  -2  -4    4.19    1.83
 -11  -2   4    2.97    1.94
 -11   2   4    3.98    1.70
 -11  -2   4    2.61    2.02
  10   2  -4   24.25    2.33
 -10   2   4   25.94    2.55
 -10  -2   4   24.98    2.44
 -10   2   4   20.36    2.40
 -10  -2   4   20.66    2.53
  10  -2  -4   23.06    2.69
 -10   2   4   22.52    2.47
 -10  -2   4   22.37    2.57
  -9   2   4   26.96    2.75
  -9  -2   4   26.82    2.78
  -9   2   4   27.56    2.83
   9  -2  -4   27.55    2.92
  -9  -2   4   28.21    3.10
  -9   2   4   26.70    2.79
  -9  -2   4   28.52    2.89
  -8   2   4  184.84    8.91
  -8  -2   4  189.72    9.13
  -8   2   4  189.13    9.15
  -8  -2   4  186.19    9.02
  -8  -2   4  183.49    9.06
   8  -2  -4  178.33    9.48
  -8   2   4  187.19    9.18
  -8  -2   4  167.66    9.81
  -7   2   4   -0.01    1.21
  -7  -2   4    0.41    1.41
  -7   2   4    0.02    1.31
  -7  -2   4    0.00    1.35
  -7  -2   4   -0.17    1.35
   7  -2  -4    0.25    1.31
  -7   2   4    0.06    1.46
  -7  -2   4   -0.41    1.40
  -6  -2   4    7.99    1.69
  -6   2   4    9.66    1.87
   6  -2  -4   12.82    2.06
  -6  -2   4   12.70    2.02
  -6   2   4   11.57    1.94
  -6  -2   4   14.15    2.23
  -5  -2   4  123.13    5.91
  -5   2   4  123.47    5.99
   5  -2  -4  144.96    6.68
  -5  -2   4  155.14    6.98
  -5   2   4  140.59    6.54
  -5  -2   4  143.56    6.70
   5   2  -4  144.07    6.88
  -4  -2   4    1.13    1.34
  -4   2   4    1.05    1.38
   4  -2  -4    0.37    1.32
  -4  -2   4    0.82    1.24
   4  -2  -4    1.48    2.15
  -4   2   4    0.34    2.09
  -4  -2   4    0.09    1.43
   4   2  -4    0.90    1.53
  -3   2   4    9.06    1.80
   3  -2  -4    7.89    1.88
  -3  -2   4    6.34    1.54
   3   2  -4    6.19    1.55
  -3  -2   4    6.49    1.82
   3   2  -4    6.16    1.82
  -2   2   4    8.04    1.72
   2  -2  -4    8.47    1.79
   2   2  -4   10.47    1.89
  -2  -2   4    9.67    1.96
   2   2  -4   10.27    2.38
  -1   2   4   -0.04    1.25
   1  -2  -4    0.47    1.29
  -1  -2   4    0.60    1.38
   1   2  -4    0.17    1.45
   0   2   4   11.77    2.03
   0  -2  -4   13.63    1.94
   0  -2  -4   26.54    2.79
   0  -2   4   19.96    2.49
   1   2   4   15.44    2.06
  -1  -2  -4   16.42    2.18
   1  -2   4   15.95    2.17
  -1   2  -4   11.05    1.90
  -1  -2  -4    9.97    2.56
   1  -2   4   13.14    2.06
  -1   2  -4   10.21    1.95
  -2  -2  -4  205.95    8.85
   2  -2   4  201.56    8.49
  -2   2  -4  199.85    8.48
   2   2   4  199.04    8.56
  -2  -2  -4  183.93    8.12
   2  -2   4  198.07    8.52
  -2   2  -4  185.73    8.06
   3  -2   4    9.51    1.83
  -3   2  -4    8.68    1.86
   3   2   4    8.34    1.91
  -3  -2  -4   10.03    2.30
   3  -2   4    9.59    1.78
  -3   2  -4    8.84    1.94
   4  -2   4   -0.06    1.48
  -4   2  -4    0.24    1.19
   4   2   4    0.86    1.43
  -4  -2  -4    0.16    1.74
   4  -2   4    0.09    1.50
  -4   2  -4    0.42    1.56
   5   2   4    1.74    1.19
  -5  -2  -4    1.87    1.46
   5  -2   4    0.86    1.56
  -5   2  -4    2.02    1.53
   5   2   4    1.11    1.68
  -5  -2  -4    3.58    1.71
   5  -2   4    3.85    1.63
  -5   2  -4    2.14    1.48
   6   2   4   42.80    3.33
   6  -2   4   45.83    3.24
  -6  -2  -4   44.42    3.11
  -6   2  -4   45.97    3.18
   6   2   4   42.09    3.57
  -6  -2  -4   33.84    3.20
   6  -2   4   35.00    3.30
  -6   2  -4   40.97    3.38
   7   2   4   16.63    2.02
   7  -2   4   18.82    2.43
  -7  -2  -4   18.39    2.29
  -7   2  -4   18.01    2.45
   7   2   4   15.53    2.38
  -7  -2  -4   12.01    2.14
   7  -2   4   11.71    2.28
  -7   2  -4   15.58    2.37
   8   2   4   26.13    3.19
   8  -2   4   26.10    3.24
  -8  -2  -4   27.61    3.31
  -8   2  -4   26.78    3.36
   8   2   4   24.02    3.27
   8  -2   4   16.33    2.91
  -8  -2  -4   17.87    2.87
  -8   2  -4   24.64    3.26
   9   2   4    0.73    1.38
   9  -2   4   -0.40    1.76
  -9  -2  -4    0.97    1.97
  -9   2  -4    0.44    2.03
   9   2   4    0.35    1.68
   9  -2   4    0.45    1.93
  -9  -2  -4    0.70    1.95
  -9   2  -4    0.62    1.76
  10   2   4    9.10    2.18
  10  -2   4    8.01    2.08
 -10   2  -4    6.27    2.12
  10   2   4    8.86    2.50
  10  -2   4   11.15    2.79
 -10  -2  -4   11.46    2.70
  11   2   4    1.99    1.86
  11  -2   4    2.50    1.79
 -11   2  -4    0.87    1.86
  11   2   4    0.75    2.00
  11  -2   4    1.25    2.34
  12   2   4   12.48    2.66
  12  -2   4   12.36    2.30
 -12   2  -4   13.30    2.54
  12   2   4   12.83    2.79
  12  -2   4   18.88    2.89
  13   2   4    8.11    2.19
  13  -2   4    8.58    2.37
  13   2   4    9.35    2.72
  13  -2   4   13.63    2.62
  14   2   4    0.14    2.08
  14  -2   4   -0.30    2.11
  14   2   4    0.22    2.27
  14  -2   4    0.89    2.39
  15   2   4   48.65    3.58
  15  -2   4   48.77    3.45
  15   2   4   52.92    4.19
  15  -2   4   52.42    3.91
  16   2   4   11.03    2.44
  16  -2   4   11.61    2.73
  16   2   4   12.52    3.01
  16  -2   4    8.74    2.57
  17   2   4    1.38    2.15
  17   2   4    1.59    2.67
  17  -2   4   -0.58    2.65
  18  -2   4    0.13    2.23
  18   2   4   -0.72    2.61
  18  -2   4   -0.32    2.83
  19   2   4   18.70    3.00
  19  -2   4   18.84    3.33
  19   2   4   18.66    3.50
  19  -2   4   18.58    3.24
  20   2   4    1.56    2.65
  20   2   4   -0.23    3.12
  20  -2   4    0.63    2.94
  21   2   4    8.92    3.00
  21   2   4   12.14    3.42
  21  -2   4   12.04    3.49
  22   2   4   -1.07    3.13
  22  -2   4    1.72    3.23
  24  -3  -4    1.25    3.10
 -24  -3   4   -0.60    3.34
  23  -3  -4   19.55    3.43
 -23  -3   4   15.10    3.35
  22   3  -4   16.72    2.92
  22  -3  -4   18.33    3.31
 -22  -3   4   19.05    3.90
  21   3  -4    2.29    2.75
  21  -3  -4    2.78    2.80
 -21  -3   4    3.04    2.94
  20   3  -4    3.37    2.44
  20  -3  -4    1.72    2.59
 -20  -3   4    1.53    2.67
  19   3  -4    3.31    2.21
  19  -3  -4    3.52    2.78
 -19  -3   4    2.07    2.13
  18   3  -4    0.57    2.08
 -18   3   4    1.01    2.15
  18  -3  -4    3.77    2.53
 -18  -3   4    0.50    2.13
  17   3  -4   -0.37    1.97
  17  -3  -4   -1.06    2.10
 -17  -3   4   -2.10    2.28
  16   3  -4   34.24    3.03
 -16   3   4   33.72    2.87
 -16   3   4   33.93    3.10
  16  -3  -4   35.50    3.27
 -16  -3   4   36.45    3.36
 -15   3   4    1.22    1.88
  15  -3  -4    1.69    2.05
 -15  -3   4    1.52    2.30
  14   3  -4   37.92    3.06
 -14  -3   4   36.74    3.12
 -14   3   4   38.15    2.98
 -14   3   4   36.87    5.02
  14  -3  -4   37.38    3.23
 -14   3   4   36.64    3.22
 -14  -3   4   37.74    3.36
  13   3  -4   40.37    6.01
 -13  -3   4   44.06    3.05
 -13   3   4   42.12    3.07
 -13   3   4   41.06    3.34
  13  -3  -4   42.66    3.36
 -13  -3   4   38.87    3.33
 -13   3   4   43.00    3.38
 -13  -3   4   39.54    3.32
  12   3  -4   51.99    6.39
 -12  -3   4   55.97    3.89
 -12   3   4   56.70    3.87
 -12   3   4   64.54    4.32
  12  -3  -4   59.17    4.36
 -12  -3   4   58.49    4.16
 -12   3   4   55.60    4.08
 -12  -3   4   60.16    4.25
 -11  -3   4   13.64    2.44
 -11   3   4   13.63    2.37
 -11   3   4   14.87    2.48
 -11  -3   4   14.49    2.59
  11  -3  -4   15.44    2.85
 -11   3   4   14.00    2.41
 -11  -3   4   16.23    2.73
  10   3  -4  184.09    6.24
 -10   3   4  184.75    6.05
 -10  -3   4  182.73    6.28
 -10   3   4  186.18    6.32
 -10  -3   4  185.92    6.64
  10  -3  -4  188.16    7.62
 -10   3   4  185.71    6.60
 -10  -3   4  191.56    6.63
   9   3  -4   51.19    4.63
  -9   3   4   52.25    4.65
  -9  -3   4   51.61    4.58
  -9   3   4   50.06    4.61
  -9  -3   4   50.42    4.73
   9  -3  -4   46.09    6.35
  -9   3   4   48.14    4.47
  -9  -3   4   46.61    4.63
   8   3  -4   79.78    4.92
  -8   3   4   78.78    4.86
  -8  -3   4   79.61    5.14
  -8   3   4   81.71    5.10
  -8  -3   4   88.48    5.43
   8  -3  -4   89.27    5.73
  -8   3   4   87.27    5.36
  -8  -3   4   98.55    5.87
  -7  -3   4   41.61    3.18
  -7   3   4   44.85    3.05
  -7  -3   4   50.27    3.82
   7  -3  -4   49.78    3.70
   7  -3  -4   50.33    4.30
  -7   3   4   49.03    3.71
  -7  -3   4   49.50    4.71
   7   3  -4   51.69    3.92
  -6  -3   4   24.97    2.55
  -6   3   4   24.03    2.60
   6  -3  -4   19.97    2.52
  -6  -3   4   21.28    2.28
  -6   3   4   20.06    2.33
  -6  -3   4   21.11    2.45
   6   3  -4   20.71    2.73
  -5  -3   4    2.67    1.56
  -5   3   4    3.43    1.61
   5  -3  -4    1.57    1.38
  -5  -3   4    1.84    1.21
  -5   3   4    1.52    1.62
  -5  -3   4    1.73    1.44
   5   3  -4    2.51    1.64
  -4  -3   4   11.38    1.79
  -4   3   4   10.37    1.88
   4  -3  -4   10.72    2.09
  -4  -3   4    9.79    1.63
   4  -3  -4   10.55    2.00
  -4   3   4    9.94    2.03
  -4  -3   4   10.07    1.99
   4   3  -4   10.39    2.06
  -3   3   4   45.52    3.45
   3  -3  -4   46.10    3.45
   3  -3  -4   48.04    4.19
  -3  -3   4   45.98    3.48
  -3   3   4   46.96    4.00
   3   3  -4   43.92    3.54
  -2   3   4   41.47    3.16
   2  -3  -4   39.70    3.17
  -2  -3   4   41.53    3.47
   2  -3  -4   40.69    3.96
   2   3  -4   44.10    3.62
  -2   3   4   42.13    4.05
  -1   3   4    1.70    1.44
   1  -3  -4    1.53    1.39
   1  -3  -4    1.68    1.44
  -1  -3   4    1.08    1.41
   1   3  -4    0.91    1.59
   0   3   4  178.86    7.78
   0  -3  -4  177.57    7.72
   0  -3   4  180.11    7.85
   0   3  -4  154.22    7.34
   0  -3  -4  179.09    7.99
   0  -3   4  176.04    7.84
   0   3  -4  167.78    7.63
   1   3   4  116.03    5.79
  -1  -3  -4  116.46    5.71
   1  -3   4  114.48    5.73
  -1   3  -4  112.76    5.71
  -1  -3  -4  119.65    6.09
   1  -3   4  113.10    5.79
  -1   3  -4  110.31    5.73
  -1  -3  -4  106.70    5.68
   2   3   4  192.24    8.22
  -2  -3  -4  200.35    8.54
   2  -3   4  195.02    8.29
  -2   3  -4  195.79    8.53
  -2  -3  -4  197.95    8.54
   2  -3   4  190.27    8.29
  -2   3  -4  196.26    8.43
  -2  -3  -4  197.17    8.57
  -3  -3  -4  303.01    8.08
   3  -3   4  302.44    8.13
  -3   3  -4  338.60    8.55
  -3  -3  -4  344.73    8.92
   3  -3   4  320.12    8.68
  -3   3  -4  354.52    9.12
  -3  -3  -4  332.95    9.50
   4  -3   4   16.09    2.18
  -4   3  -4   15.42    2.27
  -4  -3  -4   15.46    2.28
   4  -3   4   16.00    2.24
  -4   3  -4   15.48    2.29
  -4  -3  -4   14.28    2.17
   5  -3   4   13.05    2.17
  -5   3  -4   13.99    2.13
   5   3   4   14.23    2.30
  -5  -3  -4   17.08    2.44
   5  -3   4   14.79    2.29
  -5   3  -4   14.85    2.25
   6   3   4    5.97    1.68
  -6  -3  -4    4.17    1.84
   6  -3   4    5.16    1.64
  -6   3  -4    5.33    2.01
   6   3   4    4.55    1.99
  -6  -3  -4    7.07    1.96
   6  -3   4    6.97    1.94
  -6   3  -4    6.31    1.95
   7   3   4    1.07    1.61
   7  -3   4    1.53    1.63
  -7  -3  -4    2.10    1.46
  -7   3  -4    1.16    1.59
   7   3   4    2.15    1.76
  -7  -3  -4    0.13    1.75
   7  -3   4    0.83    1.81
  -7   3  -4    0.79    1.72
   8   3   4    3.38    1.99
   8  -3   4    1.86    1.63
  -8  -3  -4    1.77    1.56
  -8   3  -4    2.83    2.19
   8   3   4    1.78    1.76
  -8  -3  -4    4.63    2.31
   8  -3   4    5.39    2.05
  -8   3  -4    4.03    1.93
   9   3   4   76.15    4.65
   9  -3   4   73.01    4.66
  -9  -3  -4   70.90    4.95
  -9   3  -4   71.04    4.53
   9   3   4   75.73    4.89
   9  -3   4   83.06    5.32
  -9  -3  -4   81.89    5.14
  -9   3  -4   79.13    4.92
  10   3   4    3.40    1.93
  10  -3   4    2.54    1.99
 -10   3  -4    1.96    2.07
  10   3   4    4.74    2.04
 -10  -3  -4    1.09    2.05
  10  -3   4    1.16    2.21
  11   3   4   37.77    3.18
  11  -3   4   37.19    3.14
 -11   3  -4   36.40    3.02
  11   3   4   38.99    3.48
  11  -3   4   29.92    3.15
  12   3   4   24.06    2.91
  12  -3   4   24.03    2.73
 -12   3  -4   26.47    2.93
  12   3   4   23.38    3.08
  12  -3   4   20.38    2.79
  13   3   4   30.82    2.94
  13  -3   4   31.61    3.12
  13   3   4   33.25    3.35
  13  -3   4   31.05    3.21
  14   3   4    2.39    2.63
  14  -3   4    1.17    2.05
  14   3   4    0.78    2.66
  14  -3   4    0.98    2.65
  15   3   4   53.94    4.05
  15  -3   4   50.08    3.51
  15   3   4   55.78    4.35
  15  -3   4   52.17    3.88
  16   3   4    1.18    2.08
  16   3   4    3.92    2.60
  16  -3   4    1.01    2.57
  17   3   4   29.76    2.97
  17  -3   4   28.90   10.41
  17   3   4   34.78    3.94
  17  -3   4   30.89    3.60
  18   3   4    0.09    2.81
  18  -3   4    1.44    2.28
  18   3   4   -0.38    2.77
  18  -3   4    1.51    3.26
  19   3   4    4.69    3.45
  19  -3   4    4.67    3.16
  20   3   4    1.48    2.41
  20  -3   4   -0.23    3.31
 -20  -3  -4    0.55    2.88
  21   3   4    0.52    2.71
  21  -3   4    2.97    3.56
 -21  -3  -4   -1.37    3.56
  24  -4  -4   63.42    4.46
 -24  -4   4   62.42    4.67
  23  -4  -4    2.02    3.21
 -23  -4   4    2.62    3.01
  22   4  -4   64.74    3.91
  22  -4  -4   62.87    4.25
 -22  -4   4   61.43    4.32
  21   4  -4    0.06    2.36
  21  -4  -4   -0.22    2.68
 -21  -4   4    0.33    2.76
  20   4  -4   64.39    3.90
  20  -4  -4   64.90    4.26
 -20  -4   4   62.82    4.28
  19   4  -4    0.20    2.81
  19  -4  -4   -0.12    2.40
 -19  -4   4    0.38    2.75
  18   4  -4   76.08    5.17
  18  -4  -4   72.32    5.38
 -18  -4   4   74.06    5.40
  17   4  -4   -0.24    2.10
  17  -4  -4   -0.22    2.20
 -17  -4   4   -0.52    2.65
  16   4  -4  181.61    5.73
 -16   4   4  195.31    7.10
  16  -4  -4  175.66    6.16
 -16  -4   4  180.36    6.18
 -15   4   4    3.10    1.84
  15  -4  -4    1.66    2.43
 -15  -4   4    1.53    2.23
  14   4  -4  279.57   10.93
 -14   4   4  262.30   10.26
 -14   4   4  277.03   10.95
  14  -4  -4  264.51   11.06
 -14   4   4  267.90   10.70
 -14  -4   4  269.33   11.00
 -13  -4   4   14.64    2.39
 -13   4   4   14.44    2.34
 -13   4   4   14.66    2.54
 -13  -4   4   14.02    2.60
  13  -4  -4   14.53    2.32
 -13   4   4   14.68    2.40
 -13  -4   4   13.12    2.57
  12   4  -4  335.29   11.62
 -12  -4   4  330.39   11.52
 -12   4   4  341.31   11.62
 -12   4   4  342.31   11.76
 -12  -4   4  332.88   11.86
  12  -4  -4  326.79   12.20
 -12   4   4  332.06   11.52
 -12  -4   4  331.60   11.95
 -11   4   4    8.72    1.94
 -11  -4   4    8.82    2.15
 -11   4   4    8.10    2.05
 -11  -4   4    7.76    2.22
  11  -4  -4    7.60    2.12
 -11   4   4    8.80    2.23
 -11  -4   4    9.21    2.51
  10   4  -4  496.26   12.47
 -10   4   4  515.84   12.68
 -10  -4   4  512.35   12.78
 -10   4   4  501.20   12.69
 -10  -4   4  489.85   12.66
  10  -4  -4  508.76   14.06
 -10   4   4  510.40   12.73
 -10  -4   4  513.66   12.90
   9   4  -4   49.22    7.37
  -9   4   4   48.38    4.44
  -9  -4   4   52.39    5.02
  -9   4   4   49.28    4.55
  -9  -4   4   48.41    4.65
   9  -4  -4   48.36    4.66
  -9   4   4   49.09    4.62
  -9  -4   4   46.70    4.50
   8   4  -4  568.43   16.68
  -8   4   4  574.82   17.06
  -8  -4   4  590.08   17.55
  -8   4   4  569.48   16.94
   8  -4  -4  551.43   17.05
  -8   4   4  563.62   16.67
  -8  -4   4  564.85   17.25
   8   4  -4  552.29   16.73
   7   4  -4    7.71    1.79
  -7  -4   4    7.93    1.92
  -7   4   4    8.21    1.81
   7  -4  -4    9.87    1.98
   7  -4  -4   13.98    2.33
  -7   4   4   10.03    1.97
  -7  -4   4    9.59    2.04
   7   4  -4    8.57    2.21
  -6  -4   4   44.87    3.07
  -6   4   4   40.92    3.21
   6  -4  -4   32.18    3.12
  -6  -4   4   31.67    2.80
   6  -4  -4   33.52    3.09
  -6   4   4   29.12    2.89
  -6  -4   4   31.53    3.01
   6   4  -4   31.30    3.09
  -5  -4   4   11.03    1.98
  -5   4   4    9.03    1.93
   5  -4  -4    6.26    1.82
  -5  -4   4    3.52    1.52
  -5   4   4    4.25    1.62
  -5  -4   4    4.44    2.04
   5   4  -4    4.19    1.65
  -4   4   4  297.50    7.97
   4  -4  -4  292.90    8.00
  -4   4   4  284.65    7.19
  -4  -4   4  280.36   11.24
   4   4  -4  286.42    7.57
  -3   4   4   53.42    3.77
   3  -4  -4   53.98    3.73
  -3  -4   4   62.66    4.10
   3   4  -4   62.40    4.26
  -3   4   4   61.66    3.98
  -2  -4   4  772.08   14.67
  -2   4   4  834.74   15.42
   2  -4  -4  832.79   15.19
  -2  -4   4  779.44   14.87
   2   4  -4  763.41   14.96
  -2   4   4  746.39   14.35
  -1   4   4  336.35    8.60
   1  -4  -4  327.32    8.34
  -1  -4   4  364.22    8.99
   1   4  -4  337.49    8.73
  -1  -4   4  385.34    9.54
   1   4  -4  357.39    9.30
  -1   4   4  357.95    9.04
   0   4   4  204.83    8.58
   0  -4  -4  208.79    8.62
   0  -4   4  189.08    8.06
   0   4  -4  173.38    7.45
   0  -4   4  165.52    8.03
   0   4  -4  175.17    7.89
   1   4   4   79.79    4.61
  -1  -4  -4   73.29    4.31
   1  -4   4   80.77    4.59
  -1   4  -4  101.49    5.27
  -1  -4  -4   79.62    4.68
   1  -4   4   92.38    5.19
  -1   4  -4   89.47    5.09
  -1  -4  -4  107.92    5.75
   2   4   4  402.42    9.69
  -2  -4  -4  408.23    9.99
   2  -4   4  383.35    9.35
  -2   4  -4  376.03    9.26
  -2  -4  -4  398.74    9.70
   2  -4   4  385.69    9.70
  -2   4  -4  370.45    9.28
  -2  -4  -4  379.21    9.60
   3   4   4    6.96    1.81
  -3  -4  -4    4.25    1.74
   3  -4   4    5.13    1.74
  -3   4  -4   17.73    2.41
  -3  -4  -4   10.03    1.94
   3  -4   4   10.19    2.11
  -3  -4  -4   14.19    2.30
  -4  -4  -4  246.08    9.24
   4  -4   4  240.44    8.80
  -4   4  -4  199.04    7.60
  -4  -4  -4  216.91    8.24
   4  -4   4  226.24    8.62
  -4   4  -4  181.74    9.08
  -4  -4  -4  198.44    8.07
   5  -4   4   94.59    5.68
  -5   4  -4  111.93    6.21
  -5  -4  -4  110.08    6.26
   5  -4   4  103.04    6.07
  -5   4  -4  116.13    6.46
  -5  -4  -4  109.56    6.25
   6  -4   4   37.83    3.93
  -6   4  -4   34.06    2.81
  -6  -4  -4   32.65    2.95
   6  -4   4   33.55    3.12
  -6   4  -4   32.31    3.18
  -6  -4  -4   32.39    2.99
   7   4   4  201.55    6.97
   7  -4   4  183.35    6.62
  -7   4  -4  212.89    7.73
  -7  -4  -4  229.93    7.64
   7  -4   4  224.74    7.81
  -7   4  -4  229.76    7.57
  -7  -4  -4  230.79    7.75
   8   4   4   55.89    3.55
  -8  -4  -4   58.87    3.70
   8  -4   4   61.89    4.05
  -8   4  -4   54.59    3.64
  -8  -4  -4   46.12    3.60
   8  -4   4   44.27    3.42
  -8   4  -4   46.35    3.39
  -8  -4  -4   44.62    3.42
   9   4   4  305.67   10.46
   9  -4   4  298.00   10.39
  -9   4  -4  308.00   10.58
  -9  -4  -4  349.01   11.78
   9  -4   4  332.47   11.64
  -9  -4  -4  333.12   12.03
  10   4   4   42.67    3.08
  10  -4   4   45.19    3.35
 -10   4  -4   44.19    3.24
  10  -4   4   26.63    2.85
 -10  -4  -4   30.15    3.49
  11   4   4  103.15    6.30
  11  -4   4  101.08    6.17
 -11   4  -4  104.14    6.26
  11  -4   4  130.12    6.22
 -11  -4  -4  126.13    7.57
  12   4   4   18.67    2.55
  12  -4   4   18.43    2.63
 -12   4  -4   19.22    2.62
  12  -4   4    8.83    2.44
 -12  -4  -4   11.14    2.59
  13   4   4   43.80    4.51
  13  -4   4   44.52    4.55
 -13   4  -4   42.15    4.35
  13  -4   4   51.52    5.19
 -13  -4  -4   59.06    5.74
  14   4   4   16.93    2.75
  14  -4   4   15.42    2.44
  14  -4   4   12.41    2.99
 -14  -4  -4   10.49    3.03
  15   4   4   98.46    4.42
  15  -4   4   94.85    5.63
  15  -4   4  108.12    5.55
  16   4   4   54.43    5.17
  16  -4   4   51.38    5.79
  16  -4   4   47.95    4.51
 -16  -4  -4   45.56    4.64
  17   4   4   51.88    3.78
  17  -4   4   55.46    7.86
  17  -4   4   56.93    4.45
 -17  -4  -4   60.62    4.28
  18   4   4    5.31    2.80
  18  -4   4    5.34    2.79
  18  -4   4    5.51    3.11
 -18  -4  -4    7.55    3.00
  19   4   4   84.56    4.49
  19  -4   4   89.25    4.91
 -19  -4  -4   94.41    5.23
  20   4   4    1.98    2.68
  20  -4   4    0.00    3.27
 -20  -4  -4   -0.15    3.01
  21   4   4   63.17    4.67
  21  -4   4   66.10    4.76
 -21  -4  -4   67.00    4.84
  24  -5  -4    0.88    3.29
 -24  -5   4    2.37    3.62
  23   5  -4    7.48    3.02
  23  -5  -4    7.72    3.19
 -23  -5   4   14.83    3.10
  22   5  -4    1.09    2.59
  22  -5  -4   -0.14    3.46
 -22  -5   4    0.94    3.09
  21   5  -4   32.91    3.42
  21  -5  -4   38.52    3.56
 -21  -5   4   39.94    3.87
  20   5  -4    5.04    2.49
  20  -5  -4    6.10    2.75
 -20  -5   4    2.77    2.86
  19   5  -4   42.83    3.81
  19  -5  -4   51.27    5.33
 -19  -5   4   50.97    5.18
  18   5  -4   12.73    2.57
  18  -5  -4   16.41    3.09
 -18  -5   4   14.54    2.88
  17   5  -4    4.78    2.34
  17  -5  -4    7.35    2.65
 -17  -5   4    7.76    2.70
  16   5  -4   90.00    6.67
  16  -5  -4   90.59    6.99
 -16  -5   4   85.90    6.68
  15   5  -4   48.94    5.89
 -15   5   4   52.03   20.08
  15  -5  -4   57.85    5.56
 -15  -5   4   55.35    5.49
  14   5  -4  110.30    6.42
 -14   5   4  119.46   10.00
 -14   5   4  110.83   26.66
  14  -5  -4  114.07    5.32
 -14   5   4  116.65    5.01
 -14  -5   4  115.88    5.13
  13   5  -4   55.38    7.22
 -13   5   4   56.84   12.26
  13  -5  -4   60.77    4.66
 -13   5   4   59.92    4.43
 -13  -5   4   58.22    4.65
  12   5  -4   87.75    4.97
 -12   5   4   97.36    4.90
 -12   5   4   97.15    8.07
 -12  -5   4   95.06    5.62
  12  -5  -4  110.04    5.52
 -12   5   4  108.42    5.32
 -12  -5   4  106.68    5.57
 -11  -5   4    0.48    2.06
 -11   5   4    1.13    1.72
 -11   5   4    0.70    3.48
 -11  -5   4    0.83    2.10
  11  -5  -4    1.77    1.86
 -11   5   4    0.41    1.85
 -11  -5   4    0.49    2.24
  10   5  -4   62.93    3.65
 -10  -5   4   65.30    4.39
 -10   5   4   63.84    3.78
 -10  -5   4   71.02    4.19
  10  -5  -4   80.44    4.45
 -10   5   4   71.92    4.03
 -10  -5   4   75.87    4.33
  -9   5   4   20.10    2.68
   9   5  -4   20.97    2.81
  -9  -5   4   20.86    2.67
  -9   5   4   20.18    2.66
   9  -5  -4   24.17    3.37
  -9   5   4   26.47    3.32
  -9  -5   4   23.83    3.22
   9   5  -4   23.96    3.20
   8   5  -4  101.74    7.95
  -8  -5   4  104.30    8.12
  -8   5   4  105.66    8.21
   8  -5  -4  122.32    9.34
   8  -5  -4  118.27   10.14
  -8   5   4  129.78    9.82
  -8  -5   4  122.65    9.42
   8   5  -4  121.28    9.42
   7   5  -4  119.65    6.37
  -7  -5   4  125.29    7.08
  -7   5   4  122.29    6.80
   7  -5  -4  116.36    6.40
   7  -5  -4  117.30    6.66
  -7   5   4  118.10    6.49
  -7  -5   4  119.50    6.62
   7   5  -4  115.25    6.53
   6   5  -4  755.74   21.20
  -6  -5   4  731.46   21.10
  -6   5   4  767.82   21.69
   6  -5  -4  772.96   22.18
   6  -5  -4  778.26   22.26
  -6   5   4  784.96   22.13
  -6  -5   4  813.09   23.18
   6   5  -4  812.22   23.23
  -5   5   4    1.68    1.66
   5  -5  -4    1.34    1.54
   5  -5  -4    1.45    1.45
  -5   5   4    1.17    1.66
  -5  -5   4    1.52    1.93
   5   5  -4    1.58    2.02
  -4   5   4  771.99   14.42
   4  -5  -4  764.66   14.44
   4  -5  -4  785.18   15.24
  -4  -5   4  767.79   14.63
  -4   5   4  724.17   13.98
   4   5  -4  739.60   14.66
  -3  -5   4   22.46    2.45
  -3   5   4   27.01    2.67
   3  -5  -4   29.81    2.87
  -3  -5   4   40.07    3.16
  -3  -5   4   41.95    3.41
  -3   5   4   35.47    3.04
   3   5  -4   39.10    3.41
  -2  -5   4  680.48   13.54
  -2   5   4  722.49   13.95
   2  -5  -4  685.57   13.36
  -2  -5   4  742.82   14.24
   2  -5  -4  706.46   14.60
  -2  -5   4  739.92   14.40
   2   5  -4  728.22   14.64
  -2   5   4  761.40   14.38
  -1  -5   4   11.82    1.90
  -1   5   4   14.77    2.16
   1  -5  -4   12.29    2.07
  -1  -5   4   17.27    2.27
  -1  -5   4   15.69    2.26
   1  -5  -4   18.51    2.56
   1   5  -4   16.75    2.52
  -1   5   4   17.10    2.37
   0   5   4  266.72   10.47
   0  -5  -4  265.32   10.29
   0  -5   4  249.51    9.97
   0   5  -4  253.07    9.92
   0  -5   4  262.73   10.56
   0   5  -4  244.58   10.00
   0  -5  -4  242.79   10.15
   0   5   4  253.19   10.16
   1   5   4   91.05    4.99
  -1  -5  -4   87.43    4.85
   1  -5   4   85.16    4.79
  -1   5  -4   87.70    4.68
   1  -5   4   88.50    5.04
  -1   5  -4   87.71    5.02
  -1  -5  -4   86.73    5.08
   1   5   4   87.06    4.93
   2   5   4  380.40   12.31
  -2  -5  -4  366.69   11.79
   2  -5   4  358.97   11.73
  -2   5  -4  399.43   12.65
  -2  -5  -4  363.10   11.85
   2  -5   4  420.31   13.44
  -2   5  -4  383.08   12.54
  -2  -5  -4  403.27   13.26
   3   5   4   37.08    3.07
  -3  -5  -4   30.34    2.76
   3  -5   4   33.63    3.17
  -3   5  -4   53.81    3.95
  -3  -5  -4   37.35    3.25
   3  -5   4   46.73    3.41
  -3   5  -4   52.16    3.89
  -3  -5  -4   55.32    4.07
   4   5   4  276.09    9.70
  -4  -5  -4  278.58    9.55
   4  -5   4  276.98    9.72
  -4   5  -4  278.81    9.68
  -4  -5  -4  286.74    9.96
   4  -5   4  285.19   10.08
  -4   5  -4  279.17    9.93
  -4  -5  -4  286.28   10.52
  -5  -5  -4  143.53    5.39
   5  -5   4  148.82    5.67
  -5   5  -4  144.67    5.36
  -5  -5  -4  154.75    5.78
   5  -5   4  148.59    5.72
  -5   5  -4  147.78    5.90
  -5  -5  -4  143.02    5.69
   6  -5   4  186.57    6.39
  -6   5  -4  159.42    5.86
  -6  -5  -4  174.25    6.21
   6  -5   4  182.17    6.49
  -6   5  -4  152.96    6.13
  -6  -5  -4  161.11    6.53
   7  -5   4  154.36    6.10
  -7   5  -4  139.87    5.72
  -7  -5  -4  140.77    5.71
   7  -5   4  144.89    6.06
  -7   5  -4  134.16    5.64
  -7  -5  -4  134.33    6.59
   8   5   4  269.64    9.63
   8  -5   4  296.11   10.35
  -8   5  -4  270.89    9.44
  -8  -5  -4  270.24    9.76
   8  -5   4  274.16   10.39
  -8   5  -4  264.90    9.96
  -8  -5  -4  262.54    9.64
   9   5   4  158.91    6.83
   9  -5   4  160.06    6.91
  -9   5  -4  166.42    6.95
  -9  -5  -4  174.89    7.37
   9  -5   4  173.13    7.45
  -9  -5  -4  162.84    7.64
  10   5   4  154.92    6.63
  10  -5   4  162.20    6.93
 -10   5  -4  151.98    6.75
  10  -5   4  142.96    6.59
 -10  -5  -4  143.24    7.08
  11   5   4   63.56    3.81
  11  -5   4   62.99    3.83
 -11   5  -4   63.04    4.01
  11  -5   4   54.99    3.85
 -11  -5  -4   57.77    3.72
  12   5   4   92.94    7.85
  12  -5   4   95.09    8.03
 -12   5  -4   90.76    7.67
  12  -5   4   75.48    6.83
 -12  -5  -4   82.93    7.27
  13   5   4   10.89    2.21
  13  -5   4   12.18    2.44
 -13   5  -4   11.56    2.38
  13  -5   4    6.95    2.43
 -13  -5  -4    9.17    2.51
  14   5   4   74.10    4.86
  14  -5   4   76.64    5.05
  14  -5   4   58.94    4.53
 -14  -5  -4   65.23    4.64
  15  -5   4    1.66    2.18
  15  -5   4    0.50    2.81
 -15  -5  -4    1.60    2.42
  16   5   4  106.30    4.68
  16  -5   4  103.76    4.92
  16  -5   4   93.37    4.94
 -16  -5  -4  108.67    5.43
  17   5   4   23.64    3.16
  17  -5   4   18.46    3.16
 -17  -5  -4   14.79    3.16
  18   5   4   66.97    4.01
  18  -5   4   50.46    4.05
 -18  -5  -4   50.08    4.26
  19   5   4    0.33    4.54
  19  -5   4    1.08    3.06
 -19  -5  -4   -0.83    3.11
  20   5   4   27.02    3.47
  20  -5   4   18.36    3.45
 -20  -5  -4   17.54    3.87
  21   5   4    1.66    2.78
  21  -5   4    0.82    3.17
 -21  -5  -4    4.41    3.54
  23   6  -4   -0.52    3.08
  23  -6  -4    0.87    2.91
 -23  -6   4    0.20    2.93
  22   6  -4  138.64    5.20
  22  -6  -4  128.14    5.71
 -22  -6   4  123.26    6.26
  21   6  -4    0.15    2.67
  21  -6  -4    0.73    2.56
 -21  -6   4   -0.29    2.99
  20   6  -4  168.78    7.74
  20  -6  -4  166.96    8.20
 -20  -6   4  153.35    7.82
  19  -6  -4    0.19    2.47
 -19  -6   4    1.44    2.79
  18   6  -4  177.60    6.19
  18  -6  -4  177.49    6.46
 -18  -6   4  171.72    6.31
  17   6  -4    0.04    2.50
  17  -6  -4    0.86    2.32
 -17  -6   4   -0.60    2.46
  16   6  -4  155.96    5.89
  16  -6  -4  158.51    7.38
 -16  -6   4  153.12    6.32
  15   6  -4    4.13    2.84
  15  -6  -4    1.77    2.33
 -15  -6   4    5.80    2.40
  14   6  -4  303.58    9.78
  14  -6  -4  280.42   10.31
 -14  -6   4  280.53    9.29
  13  -6  -4    0.35    2.40
 -13   6   4    1.69    2.16
 -13  -6   4    1.07    2.30
  12   6  -4  222.57    8.39
  12  -6  -4  213.34    8.69
 -12   6   4  206.46    7.97
 -12  -6   4  212.00    8.69
  11   6  -4   11.77    2.17
 -11  -6   4   14.17    2.58
  11  -6  -4   16.20    2.46
 -11   6   4   15.67    2.50
 -11  -6   4   12.82    2.41
  10   6  -4  427.93   13.42
 -10  -6   4  427.36   13.69
 -10   6   4  435.94   37.25
  10  -6  -4  391.83   13.15
 -10   6   4  391.80   12.53
 -10  -6   4  405.42   13.07
  10   6  -4  393.69   13.04
   9   6  -4   65.95    3.82
  -9   6   4   65.80    3.70
  -9  -6   4   68.00    3.86
  -9   6   4   66.25    4.41
   9  -6  -4   67.47    4.13
  -9   6   4   67.32    4.07
  -9  -6   4   70.03    4.01
   9   6  -4   68.44    4.25
   8   6  -4  554.80   13.26
  -8  -6   4  579.18   14.23
  -8   6   4  558.02   13.47
   8  -6  -4  541.86   13.28
   8  -6  -4  540.56   13.89
  -8   6   4  531.25   13.07
  -8  -6   4  549.54   13.80
   8   6  -4  537.33   13.63
   7   6  -4    8.33    1.58
  -7  -6   4    9.64    1.86
   7  -6  -4    9.50    2.05
   7  -6  -4    9.37    2.12
  -7   6   4   10.66    2.46
  -7  -6   4    9.78    2.18
   7   6  -4   10.43    2.27
   6   6  -4  633.51   12.98
  -6   6   4  643.61   13.24
   6  -6  -4  642.98   13.45
   6  -6  -4  627.34   13.48
  -6   6   4  614.66   13.25
  -6  -6   4  603.65   12.84
   6   6  -4  604.43   13.22
   5  -6  -4    0.30    1.65
   5  -6  -4    0.26    1.84
  -5   6   4    0.80    1.52
  -5  -6   4    0.98    1.93
   5   6  -4   -0.31    1.88
  -4  -6   4  481.43   14.77
  -4   6   4  498.30   15.12
   4  -6  -4  491.73   14.90
  -4  -6   4  420.45   13.18
   4  -6  -4  462.63   14.63
  -4  -6   4  476.74   14.85
  -4   6   4  458.52   14.12
   4   6  -4  463.77   14.83
  -3  -6   4    0.42    1.41
   3  -6  -4    0.30    1.56
  -3  -6   4    2.90    1.37
   3  -6  -4    3.83    1.82
  -3  -6   4    2.89    1.76
  -3   6   4    1.68    1.83
   3   6  -4    2.42    1.88
  -2   6   4  246.72   11.36
  -2  -6   4  186.26    9.02
  -2  -6   4  205.73    8.01
   2  -6  -4  193.63    6.47
   2   6  -4  197.57    6.36
  -2   6   4  197.10    6.04
  -1  -6   4   52.63    3.75
  -1   6   4   62.06   10.06
   1  -6  -4   52.21    3.82
  -1  -6   4   77.73    4.90
  -1  -6   4   75.10    4.91
   1  -6  -4   80.92    5.31
   1   6  -4   82.06    5.40
  -1   6   4   80.36    5.12
   0   6   4  204.68    7.79
   0  -6   4  156.66    7.95
   0  -6   4  158.93    8.17
   0   6  -4  153.02    7.96
   0  -6  -4  155.99    8.17
   0   6   4  167.41    8.38
   1  -6   4    6.17    1.59
   1   6   4    7.31    6.87
  -1  -6  -4    4.73    1.71
   1  -6   4    8.63    1.89
   1  -6   4   11.70    2.10
  -1   6  -4    9.47    2.24
  -1  -6  -4    8.54    1.94
   1   6   4    9.57    2.13
   2   6   4  350.79   11.74
  -2  -6  -4  350.64   11.45
   2  -6   4  347.96   11.47
  -2   6  -4  327.62   10.76
   2  -6   4  343.72   11.65
  -2   6  -4  329.61   11.19
  -2  -6  -4  333.19   11.47
   2   6   4  324.12   10.95
   3   6   4   99.68    8.13
  -3  -6  -4   91.26    7.31
   3  -6   4   96.86    7.70
  -3   6  -4  114.60    8.74
  -3  -6  -4   99.44    7.88
   3  -6   4  109.66    8.61
  -3   6  -4  110.56    8.64
  -3  -6  -4  121.05    9.42
   4   6   4  256.16    7.58
   4  -6   4  265.79    7.74
  -4  -6  -4  256.44    7.54
   4  -6   4  235.96    7.49
  -4   6  -4  226.33    7.14
   5   6   4  180.31    6.47
  -5  -6  -4  190.04    6.87
   5  -6   4  193.37    7.03
  -6  -6  -4  112.57    5.08
   6  -6   4  112.82    5.19
  -6  -6  -4   93.16    4.83
   7  -6   4  143.91    6.37
  -7   6  -4  172.48    7.42
  -7  -6  -4  153.73    6.72
   7  -6   4  153.61    6.67
  -7   6  -4  172.17    8.25
  -7  -6  -4  158.70    7.01
   8  -6   4  127.65    5.82
  -8   6  -4   94.78    4.82
  -8  -6  -4  109.58    5.85
   8  -6   4  111.70    5.52
  -8  -6  -4  100.52    6.00
   9   6   4    7.32    1.71
   9  -6   4    4.56    2.11
  -9   6  -4   15.36    2.57
   9  -6   4   12.50    2.45
  -9  -6  -4   15.10    2.59
  10   6   4   37.79    3.13
 -10   6  -4   24.06    2.92
  10  -6   4   23.19    2.59
 -10  -6  -4   25.64    3.22
  11   6   4  103.39    4.59
  11  -6   4   92.16    4.54
 -11   6  -4  118.70    4.82
  11  -6   4  136.38    6.78
 -11  -6  -4  120.53    5.50
  12   6   4    0.81    2.14
  12  -6   4    1.74    2.17
 -12   6  -4    0.07    2.24
  12  -6   4    0.56    2.68
 -12  -6  -4    1.59    2.45
  13   6   4  215.69    6.40
  13  -6   4  205.87    6.40
 -13   6  -4  220.75    6.67
  13  -6   4  231.47    7.04
 -13  -6  -4  234.96    7.46
  14   6   4    4.19    2.22
  14  -6   4    5.45    2.25
  14  -6   4    0.19    2.54
 -14  -6  -4    3.23    2.67
  15   6   4   90.97    5.84
  15  -6   4   88.03    5.63
  15  -6   4   95.76    6.12
 -15  -6  -4  100.71    6.79
  16   6   4    3.81    2.45
  16  -6   4    4.19    5.10
  16  -6   4    2.37    3.43
 -16  -6  -4    1.37    2.72
  17   6   4  114.41    5.60
  17  -6   4  143.04    6.78
 -17  -6  -4  141.77    6.60
  18   6   4   17.80    2.95
  18  -6   4   11.20    3.17
 -18  -6  -4   12.58    3.36
  19   6   4   55.60    4.03
  19  -6   4   64.08    4.76
 -19  -6  -4   70.16    4.74
  20   6   4   -0.25    2.92
  20  -6   4    1.14    3.42
 -20  -6  -4   -0.09    3.33
  21   6   4   36.79    4.13
  21  -6   4   36.23    4.70
 -21  -6  -4   37.79    4.42
  23   7  -4    8.24    2.55
  23  -7  -4    7.13    3.03
 -23  -7   4    8.90    3.36
  22   7  -4    3.22    2.38
  22  -7  -4    4.98    3.05
 -22  -7   4    1.49    3.24
  21   7  -4    2.38    2.58
  21  -7  -4    4.31    2.85
 -21  -7   4    3.60    2.86
  20   7  -4   13.62    2.58
  20  -7  -4   13.59    3.17
 -20  -7   4   11.34    3.24
  19   7  -4    3.17    2.55
  19  -7  -4    2.34    2.81
 -19  -7   4    2.09    2.74
  18   7  -4   15.96    2.73
  18  -7  -4   16.37    2.93
 -18  -7   4   15.10    3.00
  17   7  -4   18.89    2.91
  17  -7  -4   18.61    2.86
 -17  -7   4   18.33    3.26
  16   7  -4   12.31    2.70
  16  -7  -4   13.37    2.73
 -16  -7   4   14.02    2.80
  15   7  -4    3.96    2.42
  15  -7  -4    6.54    2.34
 -15  -7   4    6.88    2.65
  14   7  -4    1.93    2.06
  14  -7  -4    1.42    2.43
 -14  -7   4    1.08    2.53
  13   7  -4    0.64    1.84
  13  -7  -4    1.62    2.08
 -13   7   4   -0.61    1.79
 -13  -7   4   -0.26    2.14
  12   7  -4   15.54    2.32
  12  -7  -4   18.09    2.58
 -12   7   4   15.98    2.47
 -12  -7   4   17.62    2.80
  11   7  -4    4.94    2.51
  11  -7  -4    3.84    2.01
 -11   7   4    3.52    2.11
 -11  -7   4    5.01    2.15
  10   7  -4   60.01    3.83
  10  -7  -4   57.76    3.78
 -10   7   4   57.21    3.55
 -10  -7   4   61.16    4.10
  10   7  -4   60.54    4.08
   9   7  -4   11.30    2.02
   9  -7  -4   13.96    2.46
  -9   7   4   14.13    2.58
  -9  -7   4   13.65    2.49
   9   7  -4   13.47    2.77
   8   7  -4  230.22    7.38
  -8  -7   4  225.84    7.74
  -8   7   4  226.00    7.26
   8  -7  -4  224.73    7.65
   8  -7  -4  221.82    7.68
  -8   7   4  219.17    7.32
  -8  -7   4  224.97    7.49
   8   7  -4  219.22    8.02
   7   7  -4    2.80    1.28
  -7   7   4    1.84    2.80
   7  -7  -4    2.70    1.74
   7  -7  -4    2.13    1.84
  -7   7   4    1.22    1.84
  -7  -7   4    2.41    1.95
   7   7  -4    2.54    2.11
  -6   7   4   42.16    4.07
   6  -7  -4   40.65    4.07
   6  -7  -4   43.19    4.42
  -6   7   4   43.56    4.33
  -6  -7   4   45.35    4.51
   6   7  -4   42.46    4.38
  -5  -7   4   26.30    2.71
  -5   7   4   27.69    2.50
   5  -7  -4   28.57    2.67
   5  -7  -4   30.10    3.45
  -5   7   4   31.21    2.95
  -5  -7   4   30.08    2.87
   5   7  -4   27.42    3.02
  -4  -7   4   67.92    5.71
  -4   7   4   74.38    6.32
   4  -7  -4   74.31    6.19
  -4  -7   4   77.72    6.36
   4  -7  -4   81.96    6.91
  -4  -7   4   80.00    6.67
  -4   7   4   80.47    6.73
   4   7  -4   78.82    6.67
  -3  -7   4   34.09    2.72
  -3   7   4   45.00    7.81
   3  -7  -4   40.01    3.93
  -3  -7   4   51.44    4.70
   3  -7  -4   47.96    4.64
  -3  -7   4   51.05    4.87
  -3   7   4   47.40    4.45
   3   7  -4   49.91    4.74
  -2  -7   4   40.21    3.92
  -2   7   4   41.65    4.95
   2  -7  -4   43.13    4.15
  -2  -7   4   43.14    4.17
  -2  -7   4   44.60    4.42
   2  -7  -4   39.89    4.20
   2   7  -4   40.35    4.23
  -2   7   4   43.51    4.27
  -1  -7   4   33.34    2.85
  -1   7   4   31.84    3.64
   1  -7  -4   32.05    2.88
  -1  -7   4   29.39    2.69
  -1  -7   4   30.39    2.86
   1  -7  -4   29.55    2.89
   1   7  -4   27.47    2.96
  -1   7   4   29.42    2.82
   0  -7   4   46.48    4.38
   0   7   4   47.96    5.52
   0  -7  -4   48.81    4.46
   0  -7   4   42.35    4.00
   0  -7   4   48.96    4.71
   0  -7  -4   44.46    4.37
   0   7  -4   44.60    4.45
   0   7   4   44.37    4.38
   1  -7   4   10.28    2.03
   1   7   4   10.95    4.25
  -1  -7  -4    9.85    1.91
   1  -7   4   11.17    2.06
   1  -7   4   11.78    2.28
  -1   7  -4    9.97    2.24
  -1  -7  -4   11.05    2.12
   1   7   4   10.33    2.17
   2  -7   4   42.70    4.08
   2   7   4   41.31    4.10
  -2  -7  -4   42.91    4.06
   2  -7   4   38.97    4.02
   2  -7   4   39.28    3.96
  -2   7  -4   37.30    2.97
  -2  -7  -4   38.21    4.12
   2   7   4   39.44    3.94
  -3  -7  -4    0.18    1.71
   3  -7   4    1.08    1.66
   3  -7   4    0.35    1.70
  -3   7  -4   -0.39    1.90
  -3  -7  -4    0.71    1.64
   3   7   4   -0.06    1.75
   4   7   4  137.18    7.18
  -4  -7  -4  138.43    5.69
   4  -7   4  143.00    5.72
  -4   7  -4  142.53    5.98
  -4  -7  -4  143.79    5.76
   4  -7   4  138.86    5.85
  -4   7  -4  137.45    5.82
  -4  -7  -4  143.25    5.95
   5   7   4   75.72    5.74
  -5  -7  -4   71.77    4.04
   5  -7   4   74.48    4.22
  -5   7  -4   74.14    4.16
  -5  -7  -4   73.65    4.25
   5  -7   4   77.62    4.46
  -5   7  -4   75.41    4.37
  -5  -7  -4   76.00    4.83
   6   7   4  165.08    6.88
   6  -7   4  170.45    7.04
  -6   7  -4  156.87    6.47
  -6  -7  -4  168.74    7.03
   6  -7   4  166.74    7.11
  -6   7  -4  159.77    6.74
  -6  -7  -4  154.44    7.13
   7  -7   4   11.66    2.27
  -7   7  -4   13.36    2.51
  -7  -7  -4   10.02    2.36
   7  -7   4   12.47    2.64
  -7  -7  -4   11.49    2.65
   8  -7   4   90.77    4.85
  -8   7  -4  101.48    5.13
  -8  -7  -4   91.32    4.91
   8  -7   4  100.41    5.27
  -8  -7  -4   98.32    5.20
   9  -7   4   39.64    3.30
  -9   7  -4   51.49    4.19
   9  -7   4   47.89    4.21
  -9  -7  -4   51.32    4.20
  10   7   4  119.53    4.73
  10  -7   4  115.05    4.92
 -10   7  -4  121.61    5.16
  10  -7   4  122.36    5.18
 -10  -7  -4  117.62    5.13
  11   7   4    2.18    1.83
  11  -7   4    3.15    1.97
 -11   7  -4    1.17    2.30
  11  -7   4    2.11    2.24
 -11  -7  -4    3.52    2.08
  12   7   4   28.69    3.38
  12  -7   4   30.18    3.40
 -12   7  -4   21.60    2.65
  12  -7   4   25.08    3.41
 -12  -7  -4   24.77    3.06
  13   7   4    3.22    2.21
  13  -7   4    2.89    2.49
  13  -7   4    1.66    2.09
 -13  -7  -4    2.50    2.49
  14   7   4   19.14    3.00
  14  -7   4   17.08    2.60
  14  -7   4   13.96    2.65
  15   7   4   12.39    2.81
  15  -7   4   11.66    2.57
  15  -7   4   10.10    3.02
 -15  -7  -4   12.29    2.93
  16   7   4   22.17    3.09
  16  -7   4   16.66    3.83
 -16  -7  -4   21.11    3.31
  17   7   4   15.01    2.82
  17  -7   4   15.87    3.61
 -17  -7  -4   17.17    3.45
  18   7   4   24.84    3.29
  18  -7   4   19.74    3.69
 -18  -7  -4   22.46    3.88
  19   7   4    6.22    2.65
  19  -7   4    4.44    3.30
 -19  -7  -4    7.37    3.26
  20   7   4   18.88    3.22
  20  -7   4   12.54    3.77
 -20  -7  -4   17.43    3.95
  23   8  -4    3.34    2.60
  23  -8  -4    4.54    3.23
 -23  -8   4    5.59    3.31
  22   8  -4    5.49    2.87
  22  -8  -4    7.11    3.06
 -22  -8   4    6.16    3.27
  21   8  -4    0.45    2.53
  21  -8  -4    1.72    3.12
 -21  -8   4   -0.54    2.97
  20   8  -4   -1.20    2.52
  20  -8  -4    0.51    2.88
 -20  -8   4    5.39    2.93
  19   8  -4    0.13    2.44
  19  -8  -4    0.85    3.14
 -19  -8   4    4.22    2.57
  18   8  -4   -1.50    2.20
  18  -8  -4    0.81    2.74
 -18  -8   4    0.05    2.84
  17   8  -4    2.68    2.30
  17  -8  -4    2.02    2.43
 -17  -8   4    2.25    2.56
  16   8  -4   21.63    2.73
  16  -8  -4   19.14    3.05
 -16  -8   4   19.24    2.98
  15   8  -4   24.57    2.87
  15  -8  -4   28.45    3.11
 -15  -8   4   33.07    3.60
  14   8  -4   -0.21    1.86
  14  -8  -4    1.49    2.37
 -14  -8   4    2.24    2.62
  13   8  -4    0.41    1.82
  13  -8  -4    1.23    1.98
 -13  -8   4    1.04    2.42
  12   8  -4   15.46    2.40
  12  -8  -4   19.00    2.79
 -12   8   4   17.98    2.77
 -12  -8   4   18.85    2.84
  11   8  -4    9.08    2.25
  11  -8  -4    7.32    2.19
 -11   8   4    8.65    2.33
 -11  -8   4    9.12    2.50
  10   8  -4   45.45    3.71
  10  -8  -4   51.46    4.32
 -10   8   4   50.70    4.15
 -10  -8   4   51.69    4.33
   9   8  -4   -0.63    1.82
  -9   8   4   -0.36    4.54
   9  -8  -4    1.18    1.73
  -9   8   4    0.31    1.97
  -9  -8   4   -0.02    2.06
   8   8  -4    0.67    1.65
  -8   8   4    1.17    1.73
   8  -8  -4    1.46    1.98
   8  -8  -4    4.68    2.08
  -8   8   4    3.65    2.18
  -8  -8   4    0.94    2.06
   8   8  -4    2.13    2.14
  -7   8   4    2.57    1.70
   7  -8  -4    2.72    1.79
   7  -8  -4    4.15    1.93
  -7   8   4    2.45    1.93
  -7  -8   4    3.41    2.29
   7   8  -4    2.47    1.69
  -6  -8   4    0.27    1.44
  -6   8   4    1.48    1.66
   6  -8  -4    1.45    1.59
   6  -8  -4    1.04    1.78
  -6   8   4    0.87    1.85
  -6  -8   4    0.64    1.88
   6   8  -4    0.22    2.13
  -5  -8   4    1.43    1.73
  -5   8   4    0.96    1.65
   5  -8  -4    1.11    1.78
   5  -8  -4    0.33    1.76
  -5   8   4    0.79    1.73
  -5  -8   4    0.06    1.91
   5   8  -4   -0.21    2.19
  -4  -8   4    2.44    1.96
  -4   8   4   -0.93    1.73
   4  -8  -4    0.74    1.65
  -4  -8   4    0.39    1.29
   4  -8  -4    0.25    1.97
  -4  -8   4    0.02    1.99
  -4   8   4    0.25    2.37
   4   8  -4    0.41    2.14
  -3  -8   4   51.67    4.74
  -3   8   4   56.37    3.66
   3  -8  -4   53.81    3.41
  -3  -8   4   59.37    5.16
   3  -8  -4   57.48    3.94
  -3  -8   4   66.84    4.02
   3   8  -4   61.52    5.61
  -3   8   4   62.16    3.79
  -2  -8   4    3.11    1.83
  -2   8   4    2.94    1.84
   2  -8  -4    4.07    1.67
  -2  -8   4    1.90    1.52
   2  -8  -4    3.24    1.94
  -2  -8   4    3.63    1.98
   2   8  -4    1.85    2.42
  -2   8   4    2.63    2.04
  -1  -8   4  188.15    6.09
  -1   8   4  189.63    6.31
   1  -8  -4  193.30    6.21
  -1  -8   4  193.16    6.42
  -1  -8   4  195.70    6.67
   1  -8  -4  187.07    6.78
   1   8  -4  191.34    6.72
  -1   8   4  187.43    6.50
   0  -8   4   18.86    2.33
   0   8   4   16.65    4.53
   0  -8  -4   17.39    2.25
   0  -8   4   11.24    2.06
   0  -8   4   13.73    2.37
   0   8  -4   11.07    2.42
   0  -8  -4   11.16    2.28
   0   8   4   12.92    2.35
   1  -8   4  103.50    4.75
   1   8   4   91.35    4.99
  -1  -8  -4   92.79    4.36
   1  -8   4   81.43    4.29
   1  -8   4   80.71    4.46
  -1   8  -4   79.14    4.41
  -1  -8  -4   78.66    4.62
   1   8   4   83.06    4.44
   2  -8   4    6.86    1.89
   2   8   4    6.38    2.43
  -2  -8  -4    6.21    1.92
   2  -8   4    5.73    1.95
   2  -8   4    5.46    2.10
  -2   8  -4    6.01    2.33
  -2  -8  -4    6.84    2.20
   2   8   4    5.04    1.91
   3  -8   4   27.90    3.26
   3   8   4   30.45    2.65
  -3  -8  -4   30.68    2.76
   3  -8   4   34.99    2.95
   3  -8   4   37.90    3.09
  -3   8  -4   36.32    3.28
  -3  -8  -4   37.42    3.32
   3   8   4   36.37    3.11
   4  -8   4    5.22    2.04
   4   8   4    3.64    1.81
  -4  -8  -4    5.37    2.13
   4  -8   4    6.43    2.08
   4  -8   4    7.13    2.21
  -4   8  -4    7.34    2.17
  -4  -8  -4    6.24    2.18
   4   8   4    8.85    2.23
   5   8   4    3.06    2.07
   5  -8   4    2.55    1.78
  -5  -8  -4    2.64    2.26
   5  -8   4    2.16    2.00
  -5  -8  -4    1.90    2.18
   6   8   4    5.86    3.74
   6  -8   4    6.47    2.11
  -6   8  -4    6.37    1.97
  -6  -8  -4    6.60    2.11
   6  -8   4    7.64    2.36
  -6  -8  -4    8.02    2.49
   7   8   4   44.65    3.79
   7  -8   4   42.00    3.41
  -7   8  -4   47.96    3.93
  -7  -8  -4   42.77    3.34
   7  -8   4   44.61    3.97
  -7  -8  -4   49.18    4.30
   8  -8   4    7.68    2.39
  -8   8  -4    7.92    2.21
   8  -8   4    9.49    2.38
  -8  -8  -4    8.50    2.52
   9  -8   4   68.50    3.89
  -9   8  -4   68.38    3.86
   9  -8   4   70.00    4.05
  -9  -8  -4   69.33    4.19
  10  -8   4    7.70    2.49
 -10   8  -4    6.76    2.43
  10  -8   4    9.47    2.66
 -10  -8  -4    7.31    2.34
  11   8   4    3.09    2.16
  11  -8   4    2.59    2.31
 -11   8  -4    1.62    2.01
  11  -8   4    1.84    2.75
 -11  -8  -4    2.33    2.66
  12   8   4    4.82    2.20
  12  -8   4    6.04    2.38
  12  -8   4    7.86    2.63
 -12  -8  -4    7.93    2.57
  13   8   4   -0.42    1.97
  13  -8   4    0.95    2.21
  13  -8   4    1.11    2.15
 -13  -8  -4   -0.66    2.52
  14   8   4   -0.38    2.00
  14  -8   4    0.47    2.22
  14  -8   4    1.96    2.85
 -14  -8  -4    0.87    2.47
  15   8   4    0.79    2.50
  15  -8   4   -0.96    2.82
 -15  -8  -4    0.63    2.48
  16   8   4    5.81    2.79
  16  -8   4    6.81    3.31
 -16  -8  -4    7.60    2.86
  17   8   4   16.69    3.06
  17  -8   4   12.80    3.25
 -17  -8  -4   11.12    3.36
  18   8   4   11.77    3.15
  18  -8   4   13.06    3.26
 -18  -8  -4   12.96    3.47
  19   8   4    0.26    2.79
  19  -8   4    0.99    3.07
 -19  -8  -4    0.41    3.46
  20   8   4    4.27    3.00
  20  -8   4    3.59    3.37
 -20  -8  -4    0.16    3.72
  22   9  -4    0.70    2.64
  22  -9  -4   -0.50    3.39
 -22  -9   4    0.37    3.29
  21   9  -4   12.36    2.64
  21  -9  -4   13.39    3.38
 -21  -9   4   12.55    3.56
  20   9  -4   -1.50    2.51
  20  -9  -4    0.15    2.74
 -20  -9   4    0.35    3.01
  19   9  -4    3.02    2.50
  19  -9  -4    4.36    3.10
 -19  -9   4    5.83    3.15
  18   9  -4    3.96    2.52
  18  -9  -4    4.01    2.62
 -18  -9   4    4.73    2.77
  17   9  -4    2.77    2.47
  17  -9  -4    5.59    2.96
 -17  -9   4    7.71    2.84
  16   9  -4   29.19    3.03
  16  -9  -4   29.57    3.37
 -16  -9   4   29.41    3.59
  15   9  -4    7.21    2.42
  15  -9  -4    6.99    2.58
 -15  -9   4    4.33    2.78
  14   9  -4    6.09    2.10
  14  -9  -4    8.54    2.47
 -14  -9   4    8.41    2.34
  13   9  -4    7.36    2.30
  13  -9  -4    5.55    2.43
 -13  -9   4    6.04    2.68
  12   9  -4   12.53    2.39
  12  -9  -4   17.46    2.71
 -12  -9   4   16.85    3.09
  11   9  -4   20.52    2.64
  11  -9  -4   18.83    2.74
 -11   9   4   19.59    2.74
 -11  -9   4   20.95    2.86
  10   9  -4   28.50    2.82
  10  -9  -4   36.26    3.43
 -10   9   4   38.30    3.28
 -10  -9   4   36.66    3.12
   9   9  -4   23.43    2.94
  -9   9   4   25.19    9.23
   9  -9  -4   33.28    4.35
   9  -9  -4   29.27    3.05
  -9   9   4   31.14    3.24
  -9  -9   4   32.22    3.33
  -8   9   4  136.51    5.95
   8  -9  -4  137.55    6.16
   8  -9  -4  139.35    6.65
  -8   9   4  139.36    6.07
  -8  -9   4  146.59    7.11
  -7   9   4    0.66    1.70
   7  -9  -4    1.13    2.10
   7  -9  -4    1.46    1.99
  -7   9   4   -0.28    2.19
  -7  -9   4   -0.57    1.79
  -6   9   4  177.87    7.14
   6  -9  -4  175.46    7.10
   6  -9  -4  195.44    7.96
  -6   9   4  197.53    7.66
  -6  -9   4  196.97    7.88
   6   9  -4  191.21    7.88
   5   9  -4   -0.40    1.82
  -5   9   4   -0.14    1.57
   5  -9  -4   -0.05    1.69
   5  -9  -4    1.64    1.88
  -5  -9   4   -0.30    2.19
  -5   9   4    1.42    1.69
   5   9  -4    2.15    2.32
  -4  -9   4  138.20    5.90
  -4   9   4  141.54    6.06
   4  -9  -4  140.99    6.06
   4  -9  -4  147.43    6.70
  -4  -9   4  150.76    6.62
  -4   9   4  146.59    6.34
   4   9  -4  143.45    6.57
  -3  -9   4   36.40    3.16
  -3   9   4   34.93    3.49
   3  -9  -4   37.13    3.19
  -3  -9   4   37.32    3.13
   3  -9  -4   36.26    3.57
  -3  -9   4   38.60    3.53
   3   9  -4   36.17    3.57
  -3   9   4   37.68    3.33
  -2  -9   4  152.67    5.78
  -2   9   4  156.96    5.98
   2  -9  -4  155.69    5.89
  -2  -9   4  159.71    6.07
   2  -9  -4  153.70    6.40
  -2  -9   4  158.74    6.30
   2   9  -4  149.32    6.18
  -2   9   4  156.40    6.00
  -1  -9   4    3.50    1.96
  -1   9   4    3.67    3.87
   1  -9  -4    3.30    1.74
  -1  -9   4    4.51    1.64
  -1  -9   4    3.83    1.82
   1  -9  -4    4.79    1.98
   1   9  -4    5.33    2.42
  -1   9   4    5.01    2.13
   0  -9   4   68.55    4.23
   0   9   4   67.95    5.64
   0  -9  -4   66.67    4.27
   0  -9   4   66.12    4.31
   0  -9   4   73.89    4.77
   0  -9  -4   67.11    4.63
   0   9  -4   64.50    4.46
   0   9   4   67.85    4.50
   1  -9   4   30.00    2.83
   1   9   4   34.93    3.02
  -1  -9  -4   34.15    3.23
   1  -9   4   38.18    3.28
   1  -9   4   42.72    3.60
  -1  -9  -4   39.32    3.49
  -1   9  -4   38.41    3.60
   1   9   4   37.39    3.35
   2  -9   4    0.55    1.66
  -2  -9  -4    0.43    1.94
   2  -9   4   -0.46    1.58
   2  -9   4    0.70    1.82
  -2   9  -4   -0.41    2.37
  -2  -9  -4    1.35    1.92
   2   9   4    0.84    1.97
   3  -9   4   58.14    3.96
   3   9   4   51.52   13.43
  -3  -9  -4   54.90    3.91
   3  -9   4   52.00    3.98
   3  -9   4   49.46    3.82
  -3  -9  -4   52.32    4.14
   3   9   4   51.82    3.99
   4  -9   4  130.67    5.74
   4   9   4  122.07    5.93
   4  -9   4  117.30    5.56
   4  -9   4  120.51    5.77
  -4  -9  -4  117.43    5.96
   4   9   4  117.06    5.47
   5  -9   4    0.25    1.95
   5  -9   4    0.46    1.83
   5  -9   4    0.70    1.93
  -5  -9  -4   -0.23    2.19
   6  -9   4   57.74    4.24
   6   9   4   51.39    4.14
   6  -9   4   56.98    4.36
  -6  -9  -4   49.35    4.01
   6  -9   4   45.91    4.12
  -6  -9  -4   43.63    3.99
   7  -9   4   17.27    2.53
   7   9   4   14.88    2.43
   7  -9   4   15.52    2.62
   7  -9   4   16.45    2.75
  -7  -9  -4   16.40    2.72
   8   9   4    2.53    2.19
   8  -9   4    1.79    2.17
   8  -9   4    3.77    2.44
  -8  -9  -4    1.64    2.42
   9  -9   4   49.50    5.17
  -9   9  -4   39.57    3.15
   9  -9   4   42.35    4.77
  -9  -9  -4   34.41    3.54
  10  -9   4  100.48    7.47
 -10   9  -4   92.23    6.84
  10  -9   4   96.40    7.38
 -10  -9  -4   91.11    6.99
  11  -9   4    0.94    2.25
  11  -9   4   -1.98    2.33
 -11  -9  -4    0.57    2.34
  12   9   4    2.32    2.30
  12  -9   4    1.68    2.28
  12  -9   4   -0.66    2.24
 -12  -9  -4   -0.57    2.67
  13   9   4    4.52    1.98
  13  -9   4    2.49    2.31
  13  -9   4    0.90    2.73
 -13  -9  -4    2.35    2.50
  14   9   4    8.95    2.74
  14  -9   4    7.78    3.02
 -14  -9  -4   10.57    2.70
  15   9   4    2.83    2.28
  15  -9   4    1.85    2.97
 -15  -9  -4    3.66    3.05
  16   9   4    2.74    2.91
  16  -9   4   -0.56    3.22
 -16  -9  -4    2.21    2.76
  17   9   4    5.50    2.76
  17  -9   4    4.07    3.12
 -17  -9  -4    4.62    3.34
  18   9   4   10.30    3.02
  18  -9   4    8.46    3.11
 -18  -9  -4    9.80    3.45
  19   9   4    0.15    2.92
  19  -9   4    0.22    3.52
 -19  -9  -4    1.33    3.68
  21  10  -4   -0.21    2.68
  21 -10  -4    0.28    2.93
 -21 -10   4   -0.56    3.19
  20  10  -4   95.01    4.60
  20 -10  -4   87.37    4.94
 -20 -10   4   91.89    4.88
  19  10  -4   -1.96    2.47
  19 -10  -4    0.09    2.82
 -19 -10   4    1.31    3.06
  18  10  -4  173.49    7.90
  18 -10  -4  172.24    8.36
 -18 -10   4  167.35    7.97
  17  10  -4    3.23    2.41
  17 -10  -4    2.13    2.70
 -17 -10   4    1.60    5.38
  16  10  -4  252.92    6.93
  16 -10  -4  249.62    7.69
 -16 -10   4  244.70    7.40
  15  10  -4    8.36    2.72
  15 -10  -4   12.07    2.79
  14  10  -4  109.09    5.64
  14 -10  -4  104.43    6.68
 -14 -10   4  104.44    7.44
  13  10  -4   11.15    2.33
  13 -10  -4   10.58    2.55
 -13 -10   4    9.70    2.64
  12  10  -4  200.99    6.12
  12 -10  -4  207.09    6.63
 -12 -10   4  203.98    6.35
  11  10  -4   17.56    2.56
  11 -10  -4   18.51    2.90
 -11 -10   4   18.40    2.92
  10  10  -4  247.48    8.44
  10 -10  -4  234.00    8.44
 -10  10   4  220.72    8.49
 -10 -10   4  226.77    7.99
   9 -10  -4  164.76    8.14
   9 -10  -4  160.56    7.68
  -9  10   4  155.45    7.54
  -9 -10   4  163.87    7.55
  -8  10   4  268.08    9.58
   8 -10  -4  264.68    9.79
   8 -10  -4  276.34   10.24
  -8  10   4  274.35    9.86
  -8 -10   4  269.64    9.84
  -7  10   4   24.08    2.74
   7 -10  -4   24.76    2.64
   7 -10  -4   28.81    3.04
  -7  10   4   31.62    3.04
  -7 -10   4   33.25    3.16
   6  10  -4  675.19   10.71
  -6  10   4  638.44   10.71
   6 -10  -4  650.35   10.63
   6 -10  -4  606.16   18.71
  -6 -10   4  599.57   18.23
  -6  10   4  572.94   17.41
   5  10  -4    9.44    2.17
  -5  10   4   10.89    2.05
   5 -10  -4    8.85    2.20
   5 -10  -4   15.74    2.53
  -5 -10   4   16.17    2.84
  -5  10   4   15.46    2.53
   4  10  -4  461.68   14.96
  -4  10   4  439.57   14.29
   4 -10  -4  464.37   14.92
   4 -10  -4  386.38   13.52
  -4 -10   4  424.59   14.14
  -4  10   4  416.22   13.67
  -3  10   4   38.51    4.82
   3 -10  -4   36.82    3.03
  -3 -10   4   45.78    3.18
   3 -10  -4   43.98    3.54
  -3 -10   4   47.40    3.59
  -3  10   4   46.66    3.36
  -2  10   4  173.44    7.14
   2 -10  -4  182.54    7.39
  -2 -10   4  155.31    5.69
  -2 -10   4  164.33    7.09
   2 -10  -4  159.11    7.26
  -2  10   4  154.69    5.50
  -1 -10   4    0.04    1.80
  -1  10   4    1.64    1.78
   1 -10  -4    1.18    1.90
  -1 -10   4    4.66    1.94
  -1 -10   4    2.79    2.45
   1 -10  -4    4.94    2.36
  -1  10   4    4.78    2.27
   0 -10   4   48.10    3.33
   0  10   4   41.30    3.28
   0 -10  -4   40.15    3.00
   0 -10   4   30.63    2.79
   0 -10   4   35.82    3.27
   0 -10  -4   32.26    3.17
   0  10   4   32.99    3.05
   1  10   4  185.87    7.54
  -1 -10  -4  180.06    7.22
   1 -10   4  224.77    8.65
   1 -10   4  230.19    8.92
  -1 -10  -4  227.05    9.20
   1  10   4  214.28    8.39
   2 -10   4  197.07    7.91
   2  10   4  178.93    7.63
  -2 -10  -4  185.73    7.45
   2 -10   4  171.63    7.15
   2 -10   4  178.45    7.65
  -2 -10  -4  174.17    7.52
   2  10   4  176.95    7.45
   3 -10   4  289.87   10.17
   3  10   4  312.66   11.42
   3 -10   4  327.68   11.43
   3 -10   4  346.01   12.22
  -3 -10  -4  339.18   12.42
   3  10   4  326.17   11.56
   4  10   4  227.16   14.80
   4 -10   4  198.85    8.12
   4 -10   4  203.06    8.24
  -4 -10  -4  202.73    8.55
   4  10   4  205.60    8.10
   5 -10   4  243.64    8.89
   5  10   4  267.91   10.03
   5 -10   4  266.17    9.67
   5 -10   4  290.23   10.53
  -5 -10  -4  284.39   10.46
   6 -10   4   51.56    3.50
   6  10   4   41.03    3.51
   6 -10   4   43.81    3.45
   6 -10   4   35.89    3.26
  -6 -10  -4   33.12    3.38
   7 -10   4   40.11    3.08
   7  10   4   43.35    5.78
   7 -10   4   40.78    4.41
   7 -10   4   47.08    4.92
  -7 -10  -4   52.75    5.55
   8 -10   4   58.70    5.62
   8  10   4   49.32    4.96
   8 -10   4   52.40    5.36
   8 -10   4   48.74    5.12
  -8 -10  -4   42.08    4.59
   9 -10   4   42.94    4.18
   9  10   4   52.07    4.76
   9 -10   4   46.49    4.47
   9 -10   4   56.67    4.35
  -9 -10  -4   72.28    5.92
  10 -10   4  127.68    5.67
  10 -10   4  123.49    5.74
 -10 -10  -4  106.44    5.21
  11 -10   4  257.75    8.29
  11 -10   4  288.68   10.00
 -11 -10  -4  292.90    9.04
  12 -10   4    1.42    2.43
  12 -10   4    1.36    2.26
 -12 -10  -4    2.37    2.66
  13  10   4  132.77    5.34
  13 -10   4  136.92    5.69
 -13 -10  -4  133.90    5.59
  14  10   4   25.34    3.40
  14 -10   4   24.83    3.67
 -14 -10  -4   23.13    3.32
  15  10   4   93.28    5.59
  15 -10   4  100.79    6.06
 -15 -10  -4   94.85    5.67
  16  10   4    8.09    2.77
  16 -10   4    4.83    3.35
 -16 -10  -4    3.55    2.83
  17  10   4   56.37    4.05
  17 -10   4   61.15    4.66
 -17 -10  -4   61.51    4.41
  18  10   4    0.78    3.10
  18 -10   4   -2.03    3.27
 -18 -10  -4   -0.62    3.39
  19  10   4   24.32    3.36
  19 -10   4   25.96    4.09
 -19 -10  -4   28.49    3.95
  21  11  -4   10.87    2.75
  21 -11  -4   11.90    3.15
 -21 -11   4   12.27    3.33
  20  11  -4    8.29    2.83
  20 -11  -4    7.76    4.31
 -20 -11   4    7.89    3.50
  19  11  -4    7.93    2.73
  19 -11  -4    9.37    3.46
 -19 -11   4   10.50    3.41
  18  11  -4    9.73    2.75
  18 -11  -4    5.23    3.45
 -18 -11   4    4.79    3.19
  17  11  -4   31.73    3.21
  17 -11  -4   35.41    3.59
 -17 -11   4   39.58    3.82
  16  11  -4   15.23    3.18
  16 -11  -4   16.42    3.10
 -16 -11   4   18.58    5.19
  15  11  -4    5.28    2.54
  15 -11  -4    6.28    2.63
 -15 -11   4    8.22    4.36
  14  11  -4   36.37    3.99
  14 -11  -4   43.18    4.27
 -14 -11   4   44.77    4.41
  13  11  -4    0.84    2.15
  13 -11  -4    1.88    2.51
 -13 -11   4    1.57    2.43
  12  11  -4   72.26    4.58
  12 -11  -4   73.06    5.09
 -12 -11   4   83.95    5.50
  11  11  -4   17.89    2.74
  11 -11  -4   17.47    2.78
 -11 -11   4   20.22    3.25
  10 -11  -4  158.03    5.77
 -10 -11   4  161.69    5.72
   9 -11  -4    0.95    2.14
  -9 -11   4    2.57    2.45
  -8  11   4  241.33    8.11
   8 -11  -4  245.66    8.74
  -8  11   4  262.41    8.97
  -8 -11   4  257.49    8.83
   7  11  -4   30.37    3.31
  -7  11   4   28.00    2.73
   7 -11  -4   30.80    2.94
   7 -11  -4   28.39    3.10
  -7 -11   4   30.35    3.45
  -7  11   4   29.14    3.31
   6  11  -4  128.05    4.83
  -6  11   4  127.41    4.88
   6 -11  -4  129.14    4.97
   6 -11  -4  137.88    6.98
  -6 -11   4  133.22    6.61
  -6  11   4  131.41    5.16
   5  11  -4   75.17    5.05
  -5  11   4   71.02    4.91
   5 -11  -4   76.13    5.15
   5 -11  -4   74.41    5.33
  -5 -11   4   73.30    5.20
  -5  11   4   73.54    5.09
   4  11  -4  246.99    9.05
  -4  11   4  244.35    8.98
   4 -11  -4  239.12    8.80
   4 -11  -4  247.46   10.03
  -4 -11   4  257.48    9.64
  -4  11   4  257.42    9.55
  -3  11   4   28.07    2.76
   3 -11  -4   26.42    2.72
  -3 -11   4   29.36    2.70
   3 -11  -4   29.91    3.20
  -3 -11   4   30.76    3.13
  -3  11   4   29.02    3.05
  -2  11   4  234.36    9.21
   2 -11  -4  232.96    8.51
  -2 -11   4  236.79    8.86
  -2 -11   4  240.48    9.16
   2 -11  -4  242.51    9.46
  -2  11   4  239.80    8.96
  -1  11   4   46.35    6.29
   1 -11  -4   48.94    3.75
  -1 -11   4   52.33    4.10
  -1 -11   4   51.69    4.33
   1 -11  -4   52.70    4.36
  -1  11   4   47.48    4.23
   0  11   4  148.55    6.89
   0 -11  -4  148.80    6.36
   0 -11   4  130.71    5.96
   0 -11   4  142.35    6.56
   0 -11  -4  140.05    6.57
   0  11   4  127.66    6.13
   1  11   4   31.95    2.86
  -1 -11  -4   33.36    3.07
   1 -11   4   27.94    3.01
   1 -11   4   29.94    3.40
  -1 -11  -4   30.20    3.28
   1  11   4   28.60    3.15
   2 -11   4  182.49    7.49
   2  11   4  170.67    7.03
   2 -11   4  158.42    6.72
   2 -11   4  161.63    7.05
  -2 -11  -4  152.91    6.88
   2  11   4  162.28    7.02
   3 -11   4   45.47    3.36
   3  11   4   45.36    3.53
   3 -11   4   45.79    3.26
   3 -11   4   50.83    3.90
  -3 -11  -4   45.32    3.56
   4 -11   4  199.36    8.36
   4  11   4  194.59   11.19
   4 -11   4  186.38    8.13
   4 -11   4  180.93    8.05
  -4 -11  -4  176.91    8.22
   5 -11   4   90.22    4.59
   5  11   4   89.83    5.73
   5 -11   4   86.95    4.31
   5 -11   4   87.25    4.60
  -5 -11  -4   89.09    4.96
   6 -11   4   93.17    7.93
   6  11   4   79.10    7.08
   6 -11   4   77.91    6.92
   6 -11   4   71.06    6.50
  -6 -11  -4   67.19    6.20
   7 -11   4   17.14    2.56
   7  11   4   16.00    5.00
   7 -11   4   15.52    2.66
   7 -11   4   16.40    2.98
  -7 -11  -4   15.23    2.87
   8 -11   4   44.46    4.35
   8  11   4   33.40    5.15
   8 -11   4   39.92    4.39
   8 -11   4   38.13    4.14
  -8 -11  -4   33.17    3.93
   9  11   4  163.18    6.51
   9 -11   4  157.43    6.30
   9 -11   4  166.36    6.63
  -9 -11  -4  168.65    6.58
  10  11   4   11.09    2.62
  10 -11   4   11.01    2.82
  10 -11   4    9.12    2.82
 -10 -11  -4    9.28    2.55
  11 -11   4   24.33    3.32
  11 -11   4   23.62    3.34
 -11 -11  -4   18.95    3.38
  12 -11   4   55.52    5.60
 -12 -11  -4   49.23    4.59
  13 -11   4   -0.96    2.59
 -13 -11  -4    0.58    2.75
  14  11   4   33.97    3.57
  14 -11   4   26.13    3.87
 -14 -11  -4   25.07    3.38
  15  11   4   13.61    2.97
  15 -11   4    9.98    3.28
 -15 -11  -4   10.23    3.32
  16  11   4   16.26    3.34
  16 -11   4    6.47    3.07
 -16 -11  -4    5.86    3.26
  17  11   4   13.23    3.55
  17 -11   4    8.68    3.68
 -17 -11  -4   11.89    3.46
  18  11   4   24.63    3.62
  18 -11   4   17.93    3.78
 -18 -11  -4   20.09    4.16
  20  12  -4   33.56    3.66
  20 -12  -4   30.48    3.83
 -20 -12   4   32.62    4.03
  19  12  -4   18.33    3.35
  19 -12  -4   23.92    3.93
 -19 -12   4   19.43    3.36
  18  12  -4   58.11    3.98
  18 -12  -4   50.17    4.36
 -18 -12   4   54.42    4.54
  17  12  -4    8.22    2.59
  17 -12  -4   13.28    3.22
 -17 -12   4   12.37    6.88
  16  12  -4   92.37    5.42
  16 -12  -4   81.41    5.40
 -16 -12   4   86.87    5.51
  15  12  -4   16.06    2.82
  15 -12  -4   15.99    3.08
 -15 -12   4   16.17    9.82
  14  12  -4  104.77    4.72
  14 -12  -4   90.46    4.90
 -14 -12   4   93.35    6.97
  13  12  -4    1.21    2.09
  13 -12  -4    4.12    2.64
 -13 -12   4    1.81    2.65
  12  12  -4  118.91    6.01
  12 -12  -4  105.95    6.74
 -12 -12   4  101.02    6.53
  11 -12  -4    1.17    2.59
 -11 -12   4    0.88    2.38
  10 -12  -4  116.93    5.70
 -10 -12   4  113.24    5.31
   9 -12  -4   31.45    3.67
  -9 -12   4   24.22    3.21
   8  12  -4   52.33    5.33
  -8  12   4   53.30    4.61
   8 -12  -4   31.44    3.91
  -8 -12   4   24.94    3.14
   7  12  -4    2.08    2.11
  -7  12   4    2.63    1.81
   7 -12  -4    2.17    2.39
  -7 -12   4    1.75    2.57
   6  12  -4    6.77    2.41
  -6  12   4    7.70    2.06
   6 -12  -4    6.80    2.20
   6 -12  -4    2.87    2.39
  -6 -12   4    1.97    2.58
   5  12  -4    2.31    1.75
  -5  12   4    1.19    2.03
   5 -12  -4    2.29    2.00
   5 -12  -4    3.70    2.43
  -5 -12   4    4.18    2.44
   4  12  -4  218.38    9.07
  -4  12   4  214.71    8.88
   4 -12  -4  220.40    8.95
   4 -12  -4  195.10    8.76
  -4 -12   4  206.22    8.95
  -4  12   4  201.04    8.68
  -3  12   4   10.57    2.40
   3 -12  -4   10.34    2.16
  -3 -12   4   11.59    2.40
   3 -12  -4   13.63    2.67
  -3 -12   4   15.02    2.69
  -3  12   4   11.72    2.52
  -2  12   4  137.99    6.96
   2 -12  -4  138.78    6.55
  -2 -12   4  121.97    4.75
  -2 -12   4  126.68    5.31
   2 -12  -4  123.88    5.61
  -2  12   4  118.46    4.88
  -1  12   4   39.35    3.27
   1 -12  -4   38.38    3.14
  -1 -12   4   43.41    3.33
  -1 -12   4   43.20    3.54
   1 -12  -4   46.35    3.89
  -1  12   4   41.61    3.25
   0  12   4   75.58    9.18
   0 -12   4   58.46    3.59
   0 -12   4   61.44    3.94
   0 -12  -4   63.63    4.14
   1  12   4   76.30    4.10
   1 -12   4   87.84    4.31
   1 -12   4   92.15    4.68
  -1 -12  -4   92.60    4.71
   2  12   4   65.91    6.87
   2 -12   4   55.59    5.34
   2 -12   4   49.58    5.18
  -2 -12  -4   52.29    5.27
   3  12   4   70.15    6.26
   3 -12   4   70.76    6.23
   3 -12   4   72.84    6.58
  -3 -12  -4   75.25    6.76
   4  12   4   28.00    5.27
   4 -12   4   22.86    2.98
   4 -12   4   17.65    2.86
  -4 -12  -4   17.36    2.72
   5  12   4   51.17    4.77
   5 -12   4   49.51    4.60
   5 -12   4   54.75    5.04
  -5 -12  -4   52.97    5.03
   6 -12   4   31.35    3.71
   6  12   4   25.77    3.81
   6 -12   4   25.89    3.54
   6 -12   4   20.11    2.97
  -6 -12  -4   17.49    3.02
   7  12   4   15.43    2.76
   7 -12   4   15.00    3.13
   7 -12   4   16.09    2.96
  -7 -12  -4   18.82    3.08
   8 -12   4    7.82    4.97
   8 -12   4    9.23    2.87
  -8 -12  -4    8.21    2.60
   9  12   4   64.38    4.76
   9 -12   4   61.43    4.65
   9 -12   4   64.82    5.00
  -9 -12  -4   67.24    5.06
  10  12   4   10.95    3.22
  10 -12   4   11.60    2.73
  10 -12   4    9.89    2.41
 -10 -12  -4   10.27    5.09
  11  12   4   33.93    3.98
  11 -12   4   33.03    3.75
 -11 -12  -4   38.11    4.02
  12 -12   4   11.83    2.99
 -12 -12  -4    7.62    2.97
  13 -12   4   12.22    3.31
 -13 -12  -4   11.89    2.82
  14 -12   4    0.59    3.25
 -14 -12  -4    1.68    3.24
  15  12   4   18.50    3.20
  15 -12   4   15.22    3.64
 -15 -12  -4   16.60    3.26
  16  12   4    1.07    3.09
  16 -12   4   -3.18    3.57
 -16 -12  -4    0.60    3.24
  17  12   4   18.14    3.83
  17 -12   4   23.67    4.03
 -17 -12  -4   20.71    3.60
  19  13  -4    6.54    2.80
  19 -13  -4    9.65    3.47
 -19 -13   4    6.32    3.47
  18  13  -4    2.78    2.75
  18 -13  -4    0.80    2.71
 -18 -13   4   -0.24    3.10
  17  13  -4    3.10    2.55
  17 -13  -4    1.96    3.20
 -17 -13   4    2.53    2.99
  16  13  -4    4.08    2.61
  16 -13  -4    5.15    3.10
 -16 -13   4    5.59    2.71
  15  13  -4    3.37    2.75
  15 -13  -4    4.61    3.11
 -15 -13   4    5.84    3.35
  14  13  -4   13.66    2.59
  14 -13  -4   12.19    3.03
 -14 -13   4   11.59    2.98
  13  13  -4   13.19    2.40
  13 -13  -4   13.53    2.95
 -13 -13   4   13.75    2.84
  12 -13  -4    2.90    2.68
 -12 -13   4    3.01    2.73
  11 -13  -4    3.14    2.55
 -11 -13   4    2.95    2.77
  10 -13  -4    9.52    2.64
 -10 -13   4    9.74    2.85
   9  13  -4   14.22    2.43
   9 -13  -4   17.23    3.07
  -9 -13   4   19.77    3.04
   8  13  -4   16.28    2.70
   8 -13  -4   19.22    3.07
  -8 -13   4   12.73    3.06
   7  13  -4  175.46    6.49
  -7  13   4  172.04    6.26
   7 -13  -4  162.80    6.59
  -7 -13   4  165.00    6.45
   6  13  -4   16.19    3.07
  -6  13   4   14.84    2.34
   6 -13  -4    9.20    2.60
  -6 -13   4   11.04    2.95
   5  13  -4    7.22    2.20
  -5  13   4    7.16    2.35
   5 -13  -4    7.30    2.44
  -5 -13   4    6.29    2.64
   4  13  -4    8.21    2.25
  -4  13   4    7.85    2.02
   4 -13  -4    9.06    2.42
   4 -13  -4    9.73    2.63
  -4 -13   4   10.10    2.41
  -3  13   4   -0.08    1.97
   3 -13  -4    0.28    1.90
  -3 -13   4    0.29    1.96
   3 -13  -4   -0.17    2.26
  -3 -13   4   -0.44    2.66
  -2  13   4   20.16    2.76
   2 -13  -4   21.55    2.71
  -2 -13   4   20.50    2.62
   2 -13  -4   18.75    3.00
  -2 -13   4   18.84    3.00
  -1  13   4    2.36    2.06
  -1 -13   4    1.03    1.88
  -1 -13   4    3.73    2.51
   1 -13  -4    2.53    2.43
   0  13   4    8.70    3.78
   0 -13   4    5.36    2.15
   0 -13   4    5.86    2.53
   0 -13  -4    4.69    2.51
   1  13   4   20.69    2.69
   1 -13   4   22.57    3.05
   1 -13   4   19.73    2.93
  -1 -13  -4   19.82    2.97
   2  13   4    0.77    3.44
   2 -13   4    2.97    2.17
   2 -13   4    2.96    2.65
  -2 -13  -4    1.28    2.28
   3  13   4   22.14    2.97
   3 -13   4   21.58    2.81
   3 -13   4   22.62    3.07
  -3 -13  -4   26.13    3.41
   4  13   4    0.61    2.35
   4 -13   4    2.79    2.11
   4 -13   4    0.59    2.59
  -4 -13  -4    0.61    2.40
   5  13   4    4.35    2.19
   5 -13   4    4.86    2.32
   5 -13   4    4.35    2.59
  -5 -13  -4    5.12    2.35
   6 -13   4    0.00    2.24
   6 -13   4    0.24    2.52
  -6 -13  -4    1.10    2.52
   7  13   4   32.68    3.39
   7 -13   4   33.47    3.29
   7 -13   4   30.91    3.49
  -7 -13  -4   31.56    3.39
   8  13   4   24.24    3.16
   8 -13   4   21.84    3.21
   8 -13   4   24.80    3.47
  -8 -13  -4   26.87    3.15
   9  13   4   12.23    2.56
   9 -13   4   13.93    2.88
   9 -13   4   13.21    2.95
  -9 -13  -4   13.39    2.85
  10  13   4   -0.89    2.39
  10 -13   4   -1.46    3.00
 -10 -13  -4    2.82    2.66
  11  13   4   10.49    2.88
  11 -13   4   13.18    3.56
 -11 -13  -4   14.24    3.02
  12  13   4    1.64    2.84
  12 -13   4    4.55    3.25
 -12 -13  -4    3.53    2.97
  13 -13   4   11.65    3.55
 -13 -13  -4   10.92    3.03
  14 -13   4   -1.38    2.94
 -14 -13  -4   -0.44    2.70
  15 -13   4    6.32    3.47
 -15 -13  -4    6.14    3.25
  16  13   4    0.99    2.97
  16 -13   4    2.15    3.54
 -16 -13  -4    0.44    3.59
  18  14  -4   13.90    3.41
  18 -14  -4    9.53    3.55
 -18 -14   4   11.01    3.84
  17  14  -4   29.85    3.46
  17 -14  -4   29.80    4.04
 -17 -14   4   30.71    4.72
  16  14  -4   38.90    3.57
  16 -14  -4   46.53    4.45
 -16 -14   4   43.17    7.07
  15  14  -4    3.86    2.12
  15 -14  -4    2.65    2.72
  14  14  -4   38.21    3.39
  14 -14  -4   43.85    3.93
 -14 -14   4   45.99    3.98
  13 -14  -4    0.33    2.88
  12 -14  -4   32.21    3.34
 -12 -14   4   32.28    3.43
  11 -14  -4    2.07    3.14
 -11 -14   4    1.84    3.11
  10  14  -4   20.50    3.08
  10 -14  -4   22.28    3.19
 -10 -14   4   25.42    3.22
   9  14  -4   36.21    3.69
   9 -14  -4   37.51    4.07
  -9 -14   4   34.30    3.97
   8  14  -4   40.38    3.57
   8 -14  -4   47.58    4.09
  -8 -14   4   48.50    3.47
   7  14  -4    5.96    2.48
   7 -14  -4    3.82    2.68
  -7 -14   4    3.27    2.65
   6  14  -4   49.31    3.25
  -6  14   4   50.96    3.86
   6 -14  -4   60.96    4.69
  -6 -14   4   58.00    4.46
   5  14  -4   12.05    5.16
  -5  14   4   12.23    2.27
   5 -14  -4   10.06    2.46
  -5 -14   4   10.30    2.47
  -4  14   4   92.67    5.44
   4 -14  -4   83.64    5.62
  -4 -14   4   87.36    5.37
  -3  14   4    2.24    2.15
  -3 -14   4    2.12    2.17
   3 -14  -4    1.57    2.62
  -3 -14   4    1.54    2.73
  -2  14   4   27.07    3.04
  -2 -14   4   30.66    3.09
   2 -14  -4   28.81    3.36
  -2 -14   4   28.88    3.27
  -1  14   4    1.32    2.48
  -1 -14   4    0.33    2.00
  -1 -14   4    0.50    2.39
   1 -14  -4    2.16    2.87
   0  14   4   37.36    3.06
   0 -14   4   37.37    3.25
   0 -14   4   35.75    3.61
   0 -14  -4   36.63    3.43
   1  14   4   12.90    6.75
   1 -14   4   19.89    2.77
   1 -14   4   22.07    3.01
  -1 -14  -4   16.56    3.08
   2  14   4   52.76    3.64
   2 -14   4   42.86    3.43
   2 -14   4   49.52    4.13
  -2 -14  -4   47.67    3.91
   3  14   4   22.39    2.87
   3 -14   4   28.05    2.89
   3 -14   4   29.84    3.08
  -3 -14  -4   29.03    3.57
   4  14   4    5.56    2.28
   4 -14   4    3.05    2.46
   4 -14   4    0.28    2.74
  -4 -14  -4    1.17    2.53
   5  14   4   49.30    3.35
   5 -14   4   57.51    4.52
   5 -14   4   59.77    4.89
  -5 -14  -4   62.19    4.75
   6  14   4   21.59    2.78
   6 -14   4   18.57    2.77
   6 -14   4   18.10    3.25
  -6 -14  -4   20.27    3.23
   7  14   4    8.94    2.64
   7 -14   4    6.70    2.66
   7 -14   4    6.51    3.30
  -7 -14  -4    3.84    2.76
   8  14   4    4.19    2.73
   8 -14   4    4.06    2.41
   8 -14   4    4.21    3.05
  -8 -14  -4    1.80    2.72
   9  14   4    2.47    2.98
   9 -14   4    7.00    3.16
  -9 -14  -4    8.22    2.79
  10  14   4   16.07    3.02
  10 -14   4   15.14    3.45
 -10 -14  -4   14.51    3.98
  11  14   4   46.77    3.88
  11 -14   4   43.58    4.19
 -11 -14  -4   53.56    4.14
  12  14   4    2.87    2.67
  12 -14   4    1.01    3.27
 -12 -14  -4   -0.03    4.93
  13  14   4   20.51    3.35
  13 -14   4   21.29    4.07
 -13 -14  -4   22.59    3.68
  14 -14   4    6.70    3.23
 -14 -14  -4    2.64    3.06
 -15 -14  -4   30.75    4.15
  17  15  -4   12.94    2.97
  17 -15  -4   17.92    3.46
 -17 -15   4   16.56    3.85
  16  15  -4    1.62    2.71
  16 -15  -4    2.72    3.25
 -16 -15   4    3.97    5.86
  15  15  -4   17.48    3.20
  15 -15  -4   19.69    3.43
 -15 -15   4   13.85    3.98
  14 -15  -4    1.86    3.06
  13 -15  -4   23.77    3.61
 -13 -15   4   21.03    3.43
  12  15  -4   10.73    2.80
  12 -15  -4   11.31    3.31
 -12 -15   4   11.74    3.32
  11  15  -4   10.63    2.90
  11 -15  -4   12.20    2.97
 -11 -15   4   12.90    3.18
  10  15  -4   56.16    3.91
  10 -15  -4   58.37    4.17
 -10 -15   4   58.44    4.43
   9  15  -4    9.29    2.91
   9 -15  -4    9.13    2.90
  -9 -15   4    6.90    2.97
   8  15  -4   74.94    6.46
   8 -15  -4   73.85    6.91
  -8 -15   4   73.01    6.59
   7  15  -4    5.42    3.89
   7 -15  -4    2.55    2.90
  -7 -15   4    0.34    2.60
   6  15  -4   41.24    3.90
   6 -15  -4   49.34    4.65
  -6 -15   4   49.76    3.82
   5  15  -4   -0.24    2.19
  -5  15   4    0.52    2.18
   5 -15  -4    1.62    2.55
  -5 -15   4    1.79    2.53
  -4  15   4   53.18    3.51
   4 -15  -4   71.76    5.39
  -4 -15   4   74.43    5.36
  -3  15   4    1.19    2.10
  -3 -15   4    1.59    2.35
   3 -15  -4    1.13    2.57
  -3 -15   4    1.87    2.79
  -2  15   4  111.53    5.57
  -2 -15   4  127.00    6.02
  -2 -15   4  120.54    6.22
   2 -15  -4  123.29    6.41
  -1  15   4    4.77    3.32
  -1 -15   4    0.84    2.30
  -1 -15   4    3.86    2.91
   1 -15  -4    4.32    2.92
   0  15   4  128.11    6.02
   0 -15   4  140.80    6.52
   0 -15   4  149.34    6.97
   0 -15  -4  138.88    6.78
   1 -15   4    5.02    2.32
   1 -15   4    4.36    2.53
  -1 -15  -4    4.69    2.68
   2  15   4  106.11    5.62
   2 -15   4   98.22    6.14
   2 -15   4  106.37    5.07
  -2 -15  -4  105.22    6.64
   3 -15   4   30.59    3.07
   3 -15   4   27.78    3.42
  -3 -15  -4   33.12    3.89
   4  15   4  171.11    5.68
   4 -15   4  167.98    5.66
   4 -15   4  180.12    6.46
  -4 -15  -4  175.11    6.36
   5  15   4    5.63    2.50
   5 -15   4    7.04    2.92
   5 -15   4    8.71    3.20
  -5 -15  -4    7.12    3.13
   6  15   4   95.95    5.06
   6 -15   4   92.07    4.88
   6 -15   4   94.99    5.49
  -6 -15  -4   90.46    5.25
   7  15   4   38.20    3.52
   7 -15   4   38.75    3.54
   7 -15   4   39.98    3.94
  -7 -15  -4   38.47    3.94
   8  15   4    0.41    2.21
   8 -15   4   -1.76    2.71
  -8 -15  -4    0.80    2.88
   9  15   4    6.18    5.06
   9 -15   4    5.95    2.82
  -9 -15  -4    5.78    3.14
  10  15   4   53.15    3.88
  10 -15   4   51.47    4.41
 -10 -15  -4   48.51    4.38
  11  15   4    1.13    2.86
  11 -15   4    3.26    2.99
  12  15   4   94.78    4.47
  12 -15   4   86.22    4.83
 -12 -15  -4   79.12    4.86
  13  15   4    0.86    2.97
 -13 -15  -4    0.46    3.89
  14  15   4   29.42    3.78
 -14 -15  -4   23.16    4.21
  15 -16  -4    0.95    3.28
  14 -16  -4   87.06    5.07
 -14 -16   4   88.66    4.83
  13  16  -4    2.28    2.82
  13 -16  -4   -0.79    2.93
  12  16  -4  176.21    5.77
  12 -16  -4  171.56    6.90
 -12 -16   4  171.04    5.95
  11  16  -4   -0.92    2.75
  11 -16  -4    0.70    3.21
 -11 -16   4   -1.94    2.92
  10  16  -4  174.11    6.03
  10 -16  -4  167.39    6.62
 -10 -16   4  167.00    6.31
   9 -16  -4   12.04    3.28
  -9 -16   4   11.29    3.17
   8  16  -4  117.22    6.24
   8 -16  -4  105.60    6.17
  -8 -16   4  103.75    6.07
   7 -16  -4    5.51    2.80
  -7 -16   4    3.51    2.71
   6  16  -4  110.88    5.49
   6 -16  -4   98.00    5.65
  -6 -16   4  103.20    6.01
   5  16  -4    1.43    3.92
   5 -16  -4    3.06    2.70
  -5 -16   4    3.34    3.31
  -4  16   4  178.61    7.06
  -4 -16   4  170.75    7.03
   4 -16  -4  151.92    7.17
  -4 -16   4  168.68    7.17
  -3  16   4   29.49    2.97
  -3 -16   4   36.24    3.86
   3 -16  -4   32.13    3.94
  -3 -16   4   33.01    3.84
  -2  16   4  193.80    6.06
  -2 -16   4  170.48    5.80
  -2 -16   4  181.32    6.30
   2 -16  -4  172.28    6.49
  -1  16   4   12.95    4.16
  -1 -16   4   22.73    2.91
   1 -16  -4   21.92    3.30
  -1 -16   4   20.87    3.48
   0  16   4   94.94    4.43
   0 -16   4   70.37    6.31
   0 -16   4   70.47    6.54
   0 -16  -4   78.98    7.08
   1 -16   4    1.08    2.21
   1 -16   4    3.03    2.91
  -1 -16  -4    1.61    2.90
   2  16   4   41.69    4.79
   2 -16   4   26.93    3.14
   2 -16   4   27.47    3.45
  -2 -16  -4   29.27    3.64
   3  16   4   26.82    5.18
   3 -16   4   37.52    3.25
   3 -16   4   39.59    4.08
  -3 -16  -4   37.35    3.65
   4  16   4   69.89    4.10
   4 -16   4   53.81    3.83
   4 -16   4   54.64    3.99
  -4 -16  -4   53.34    4.20
   5  16   4   18.90    3.01
   5 -16   4   20.84    3.11
   5 -16   4   27.09    3.89
  -5 -16  -4   31.02    3.60
   6  16   4    7.11    2.95
   6 -16   4    4.75    2.71
   6 -16   4    3.31    3.18
  -6 -16  -4    2.07    2.74
   7  16   4   50.23    4.02
   7 -16   4   64.27    4.74
  -7 -16  -4   71.60    5.11
   8  16   4   37.14    5.03
   8 -16   4   34.30    4.07
  -8 -16  -4   31.32    3.73
   9  16   4   74.79    4.50
   9 -16   4   78.69    5.12
  -9 -16  -4   82.69    4.92
  10  16   4    4.51    3.79
  10 -16   4    3.94    3.24
  11  16   4   56.10    3.89
 -11 -16  -4   71.18    4.57
  12  16   4    4.56    3.02
  13  16   4   29.52    3.65
 -13 -16  -4   37.96    4.31
  14  17  -4   15.53    3.63
  14 -17  -4   18.59    3.73
 -14 -17   4   14.28    3.34
  13  17  -4   -0.47    2.87
  13 -17  -4    0.63    3.59
 -13 -17   4   -0.62    3.21
  12  17  -4    3.01    3.07
  12 -17  -4    3.74    3.71
 -12 -17   4    3.40    3.18
  11  17  -4    9.86    2.98
  11 -17  -4   10.64    3.40
 -11 -17   4    8.08    3.18
  10  17  -4   32.97    3.44
  10 -17  -4   34.88    3.84
 -10 -17   4   36.81    3.56
   9 -17  -4    2.74    3.02
  -9 -17   4    3.74    2.81
   8  17  -4   28.58    3.24
   8 -17  -4   33.04    3.77
  -8 -17   4   32.32    3.64
   7  17  -4    3.38    5.72
   7 -17  -4    5.68    3.11
  -7 -17   4    4.20    3.24
   6  17  -4   73.73    5.01
   6 -17  -4   75.75    5.23
  -6 -17   4   77.59    5.13
   5 -17  -4    8.25    3.32
  -5 -17   4    7.22    3.51
  -4 -17   4   46.40    3.58
   4 -17  -4   51.37    4.08
  -4 -17   4   50.75    4.36
  -3  17   4    2.98    2.55
  -3 -17   4    4.27    2.59
   3 -17  -4    6.01    3.37
  -3 -17   4    4.51    2.89
  -2  17   4  127.20    6.35
  -2 -17   4  137.62    6.93
  -2 -17   4  143.43    7.28
   2 -17  -4  137.37    7.26
  -1  17   4   13.05    2.96
  -1 -17   4   18.60    3.05
  -1 -17   4   20.39    3.59
   1 -17  -4   17.24    3.42
   0  17   4   62.04    4.09
   0 -17   4   54.09    3.90
   0 -17   4   52.86    4.30
   0 -17  -4   56.42    4.62
   1  17   4   29.01    5.21
   1 -17   4   29.43    3.05
   1 -17   4   37.11    4.11
  -1 -17  -4   33.74    3.88
   2  17   4   37.51    5.03
   2 -17   4   39.48    3.52
   2 -17   4   36.55    3.86
  -2 -17  -4   39.78    3.93
   3  17   4   33.89    4.53
   3 -17   4   36.73    3.36
   3 -17   4   43.66    4.21
  -3 -17  -4   39.39    3.90
   4  17   4   52.85    3.87
   4 -17   4   53.14    3.90
   4 -17   4   57.64    4.15
  -4 -17  -4   59.22    4.12
   5  17   4   12.08    2.86
   5 -17   4   15.93    3.44
  -5 -17  -4   14.20    3.89
   6  17   4   78.90    4.82
   6 -17   4   69.62    4.64
  -6 -17  -4   67.57    4.43
   7  17   4   10.07    2.97
   7 -17   4    6.77    3.30
  -7 -17  -4    9.34    3.02
   8  17   4   95.42    4.69
   8 -17   4   84.92    5.09
  -8 -17  -4   77.37    5.22
   9  17   4   14.10    3.33
  -9 -17  -4   13.16    3.39
  10  17   4   30.13    3.60
 -10 -17  -4   22.21    5.49
  11  17   4   10.35    3.46
 -11 -17  -4   11.96    3.89
  12  18  -4    2.42    3.16
  12 -18  -4   -0.22    3.26
  11  18  -4    7.17    3.22
  11 -18  -4    7.15    3.10
 -11 -18   4    4.70    3.15
  10  18  -4   21.64    3.56
  10 -18  -4   19.65    3.74
 -10 -18   4   17.60    3.67
   9  18  -4   21.33    4.00
   9 -18  -4   23.48    3.75
  -9 -18   4   23.97    4.11
   8  18  -4   26.71    4.78
   8 -18  -4   20.77    3.99
  -8 -18   4   18.88    3.47
   7  18  -4    4.19    4.60
   7 -18  -4    2.06    2.93
  -7 -18   4    3.21    3.57
   6  18  -4   15.95    3.01
   6 -18  -4   10.88    3.09
  -6 -18   4   11.17    3.78
  -5 -18   4    0.60    2.79
   5 -18  -4   -0.31    2.81
  -5 -18   4   -0.45    2.94
  -4 -18   4    6.14    2.64
   4 -18  -4    6.15    3.26
  -4 -18   4    8.29    3.10
  -3 -18   4   -0.83    2.99
   3 -18  -4    2.24    3.14
  -3 -18   4    4.15    3.05
  -2 -18   4    0.86    3.07
   2 -18  -4    2.27    3.02
  -2 -18   4    4.50    3.31
  -1  18   4   -0.14    2.40
  -1 -18   4   -0.30    2.42
  -1 -18   4    1.72    2.73
   1 -18  -4    0.02    2.79
   0  18   4    0.89    2.37
   0 -18   4   -0.70    2.54
   0 -18   4    1.17    3.03
   0 -18  -4    1.92    3.07
   1  18   4    4.08    4.62
   1 -18   4    4.02    2.70
   1 -18   4    4.40    3.03
  -1 -18  -4    3.43    2.90
   2  18   4   23.48    3.25
   2 -18   4   18.28    3.16
   2 -18   4   14.35    3.32
  -2 -18  -4   16.28    3.54
   3  18   4    0.81    3.79
   3 -18   4   -1.38    2.48
   3 -18   4   -1.98    2.89
  -3 -18  -4   -0.56    2.87
   4  18   4   15.44    2.90
   4 -18   4    9.71    3.44
  -4 -18  -4   10.13    3.79
   5  18   4   -1.18    2.52
   5 -18   4    1.68    3.35
  -5 -18  -4   -1.59    3.13
   6  18   4    0.13    2.59
   6 -18   4    2.63    3.08
  -6 -18  -4    0.42    2.88
   7  18   4    7.86    2.97
  -7 -18  -4    7.24    3.38
   8  18   4    4.62    2.84
  -8 -18  -4    9.76    3.27
   9  18   4    1.83    3.25
  -9 -18  -4    2.30    3.64
   9  19  -4    0.24    2.99
   9 -19  -4    0.39    3.08
  -9 -19   4    0.24    3.47
   8  19  -4   -0.42    2.83
   8 -19  -4    0.44    2.69
  -8 -19   4    0.83    3.36
   7  19  -4   27.01    3.43
   7 -19  -4   28.22    3.91
  -7 -19   4   27.04    3.76
   6 -19  -4    9.25    3.19
  -6 -19   4    9.30    3.22
  -5 -19   4   -0.96    3.15
   5 -19  -4    0.98    2.91
  -5 -19   4    0.00    2.87
  -4 -19   4   -1.12    2.58
   4 -19  -4    0.88    2.95
  -4 -19   4   -1.43    3.35
  -3 -19   4    3.53    2.57
   3 -19  -4    1.64    3.03
  -3 -19   4    2.49    3.26
  -2 -19   4    0.68    2.73
  -2 -19   4   -0.65    3.11
   2 -19  -4    0.99    3.39
  -1 -19   4    6.99    2.54
  -1 -19   4    5.64    3.23
   1 -19  -4    6.06    3.08
   0  19   4   -0.76    2.62
   0 -19   4    1.92    2.71
   0 -19   4   -1.47    3.12
   0 -19  -4   -0.64    3.28
   1  19   4    3.66    2.82
   1 -19   4    3.74    2.70
   1 -19   4    3.28    3.57
  -1 -19  -4    7.95    3.49
   2  19   4    1.09    2.95
   2 -19   4   -0.02    2.89
   2 -19   4    0.08    3.83
  -2 -19  -4    1.52    2.98
   3  19   4    0.74    2.66
   3 -19   4   -0.01    3.11
   4  19   4    0.01    2.53
   4 -19   4   -0.15    3.38
   5  19   4    1.99    2.53
   5 -19   4    5.73    3.52
  -5 -19  -4    2.31    3.19
   6  19   4    1.42    3.02
  -6 -19  -4    3.43    3.26
  -4 -20   4   21.50    3.36
   4 -20  -4   19.76    3.37
  -4 -20   4   16.84    3.73
  -3 -20   4   12.72    3.40
   3 -20  -4   14.41    3.66
  -3 -20   4   13.16    3.81
  -2 -20   4   20.88    3.13
  -2 -20   4   20.06    3.89
   2 -20  -4   20.34    3.53
  -1 -20   4    5.61    3.44
   1 -20  -4    6.57    3.44
  -1 -20   4    3.39    2.98
   0 -20   4    9.16    3.30
   0 -20   4    9.34    3.65
   0 -20  -4   11.51    3.24
   1 -20   4    0.87    3.74
  -1 -20  -4    2.79    3.46
   2  20   4   24.53    3.46
   2 -20   4   19.22    3.59
  -2 -20  -4   21.68    3.92
 -24   0   5   -1.28    2.98
 -23   0   5    0.50    3.05
 -22   0   5    1.23    2.90
 -21   0   5   -0.94    2.76
 -20   0   5   -1.55    2.25
 -20   0   5    1.40    3.15
 -19   0   5   -0.03    2.17
 -19   0   5    0.41    2.64
 -18   0   5    0.90    2.03
 -18   0   5   -1.00    2.56
 -17   0   5   -0.56    2.05
 -17   0   5   -1.02    1.96
 -17   0   5   -0.71    2.31
 -16   0   5    0.24    1.95
 -16   0   5    0.43    2.17
 -16   0   5    1.37    2.17
 -15   0   5   -0.15    1.72
 -15   0   5   -0.13    1.78
 -15   0   5   -0.44    2.12
 -15   0   5   -0.54    2.10
 -14   0   5    0.17    1.58
 -14   0   5    0.78    1.85
 -14   0   5    1.04    2.14
 -14   0   5    0.15    2.21
 -13   0   5   -0.39    1.49
 -13   0   5    0.17    1.72
 -13   0   5   -0.24    1.80
 -13   0   5    0.85    1.76
 -12   0   5    0.01    1.90
 -12   0   5    0.20    1.56
 -12   0   5    0.07    1.89
 -12   0   5   -0.44    1.75
 -11   0   5    0.14    1.55
 -11   0   5    0.11    1.83
 -11   0   5   -0.38    1.77
 -11   0   5   -0.50    2.08
 -10   0   5   -1.08    1.92
 -10   0   5    0.06    1.99
 -10   0   5    0.27    1.51
 -10   0   5    1.01    1.57
  -9   0   5   -0.08    1.57
  -9   0   5   -0.77    1.42
  -9   0   5    0.11    1.79
  -9   0   5   -0.83    1.43
  -8   0   5    0.18    1.64
  -8   0   5   -0.14    1.78
  -8   0   5    0.06    1.57
  -8   0   5   -0.22    1.66
  -7   0   5   -0.35    1.32
  -7   0   5   -0.03    1.44
  -7   0   5   -0.07    1.46
  -7   0   5   -0.27    1.48
  -6   0   5   -0.31    1.38
   6   0  -5    0.43    1.44
  -6   0   5   -0.01    1.42
  -6   0   5    0.09    1.46
  -5   0   5    0.86    1.41
   5   0  -5    0.14    1.44
  -5   0   5    0.25    1.54
  -5   0   5    0.08    1.38
  -4   0   5    0.46    1.46
   4   0  -5    0.43    1.15
  -4   0   5   -0.41    2.28
  -4   0   5    0.00    2.50
  -3   0   5   -0.90    1.32
   3   0  -5    0.22    1.54
  -3   0   5   -0.30    2.14
   3   0  -5   -0.72    2.09
  -2   0   5    0.36    1.12
   2   0  -5   -0.32    1.47
  -2   0   5   -0.62    2.19
   2   0  -5    0.01    2.68
  -1   0   5   -0.83    1.40
   1   0  -5    0.33    1.38
  -1   0   5    0.09    1.40
   1   0  -5   -0.14    1.56
   0   0  -5   -0.15    1.46
   0   0   5    0.44    1.38
   0   0  -5   -0.09    1.50
   1   0   5    0.25    1.44
  -1   0  -5   -0.12    1.39
   2   0   5    0.19    1.72
  -2   0  -5    0.08    1.34
   3   0   5    0.01    1.57
   3   0   5   -0.05    1.45
  -3   0  -5    0.02    1.61
   4   0   5    0.24    1.42
  -4   0  -5   -0.38    1.78
   4   0   5    0.41    1.43
  -4   0  -5   -0.04    1.42
   5   0   5    0.45    1.37
  -5   0  -5   -0.60    1.43
   5   0   5    0.52    1.62
  -5   0  -5    0.68    1.54
   6   0   5    0.08    1.30
  -6   0  -5    0.17    1.69
   6   0   5   -0.49    1.91
  -6   0  -5    0.16    1.75
   7   0   5    0.02    1.82
  -7   0  -5   -0.54    1.86
   7   0   5   -0.34    1.94
  -7   0  -5   -0.13    1.94
   8   0   5   -0.04    1.61
  -8   0  -5   -1.08    1.81
   8   0   5    1.01    1.81
  -8   0  -5   -0.01    1.78
   9   0   5    1.06    1.93
   9   0   5    0.01    1.86
  -9   0  -5   -0.33    2.05
  10   0   5    0.24    1.94
  10   0   5   -0.97    1.85
  11   0   5   -0.02    1.95
  11   0   5    0.84    2.16
  12   0   5   -0.62    1.99
  12   0   5    0.47    2.18
  13   0   5    0.12    2.13
  13   0   5    0.39    2.22
  14   0   5   -0.35    2.06
  14   0   5   -1.53    2.39
  15   0   5    0.29    2.48
  15   0   5    1.95    2.42
  16   0   5    0.54    2.35
  16   0   5   -1.04    2.41
  17   0   5    2.74    2.80
  17   0   5    2.78    2.80
  18   0   5    0.87    2.89
  19   0   5    1.36    2.95
  20   0   5    0.05    2.70
  20   0   5    1.32    2.97
  21   0   5    0.27    2.55
  21   0   5   -1.51    3.22
 -24  -1   5   11.10    3.32
 -24   1   5   12.04    3.52
 -23  -1   5   -0.09    2.89
 -23   1   5    3.16    2.94
 -22  -1   5   47.95    3.73
 -22   1   5   43.68    3.79
 -21  -1   5    1.39    2.43
 -21   1   5   -1.76    2.70
 -20  -1   5   23.12    3.32
 -19   1   5    4.28    3.18
 -19  -1   5    6.15    2.76
 -18   1   5   69.46    6.50
  18  -1  -5   71.56    5.11
 -18  -1   5   74.58    5.22
 -17  -1   5   40.51    3.13
 -17   1   5   39.40   15.06
 -17  -1   5   41.03    9.17
  17  -1  -5   40.78    3.48
 -17  -1   5   47.92    3.77
 -16   1   5  411.03    8.47
 -16  -1   5  408.72    8.75
 -16   1   5  416.46   10.84
 -16  -1   5  402.14   11.83
  16  -1  -5  416.36    9.31
 -16  -1   5  437.84    9.96
 -15   1   5   93.05    4.21
 -15  -1   5   92.64    4.26
 -15   1   5   98.40   17.60
 -15  -1   5   98.56   12.97
  15  -1  -5   99.81    4.61
 -15   1   5   97.22    4.59
 -15  -1   5   98.66    4.72
 -14  -1   5    1.33    1.59
 -14   1   5    1.30    2.23
 -14   1   5    1.78    2.03
  14  -1  -5    2.26    1.81
 -14  -1   5    2.13    2.25
 -14   1   5    1.31    2.16
 -14  -1   5    2.27    2.32
 -13  -1   5    0.79    1.74
 -13   1   5   -0.07    1.76
  13  -1  -5    0.16    1.88
 -13  -1   5    0.70    1.92
 -13   1   5    0.30    1.87
 -13  -1   5   -0.55    1.85
 -12  -1   5   73.35    4.25
 -12   1   5   71.26    4.01
 -12   1   5   68.96    4.01
 -12  -1   5   68.71    5.75
  12  -1  -5   68.46    4.31
 -12  -1   5   68.35    4.18
 -12   1   5   68.92    4.14
 -12  -1   5   68.68    4.33
 -11   1   5   22.90    2.54
 -11  -1   5   24.37    2.50
 -11   1   5   21.09    2.31
 -11  -1   5   21.89    2.51
  11  -1  -5   22.68    2.60
 -11  -1   5   24.41    2.68
 -11   1   5   23.94    2.97
 -11  -1   5   23.20    2.75
 -10   1   5   79.94    4.07
 -10  -1   5   84.67    4.29
 -10   1   5   71.38    4.09
 -10  -1   5   72.88    4.03
 -10  -1   5   72.12    4.14
 -10   1   5   71.38    4.14
 -10  -1   5   74.14    4.22
  -9   1   5    9.56    1.89
  -9  -1   5    9.14    2.02
  -9   1   5    5.59    1.93
  -9  -1   5    3.38    1.80
  -9  -1   5    6.16    1.98
  -9   1   5    4.84    1.88
  -9  -1   5    5.74    1.88
  -9   1   5    4.05    1.89
  -8   1   5  136.71    4.92
  -8  -1   5  139.54    5.11
  -8   1   5  130.47    9.85
  -8  -1   5  124.59    9.49
  -8  -1   5  127.66    9.73
  -8   1   5  124.32    9.51
  -8  -1   5  118.13    9.16
  -8   1   5  121.97    9.40
  -7  -1   5    1.54    1.58
  -7   1   5    3.44    1.63
  -7  -1   5    4.99    1.85
   7  -1  -5    3.72    1.58
  -7  -1   5    3.74    1.65
  -7   1   5    4.67    1.55
  -7  -1   5    4.42    1.82
  -7   1   5    4.36    1.73
  -6  -1   5   89.35    5.40
  -6   1   5   83.84    5.11
  -6  -1   5   80.43    5.03
   6  -1  -5   78.97    4.89
  -6  -1   5   84.49    5.31
  -6   1   5   82.04    5.09
  -6  -1   5   79.77    4.98
  -6   1   5   80.37    5.03
  -5   1   5   23.14    2.52
  -5  -1   5   23.56    2.60
   5  -1  -5   24.30    2.61
   5   1  -5   23.46    2.58
  -5  -1   5   25.35    2.68
  -5   1   5   23.62    3.12
  -5  -1   5   24.45    2.69
  -5   1   5   25.13    3.18
  -4   1   5  142.77    6.62
  -4  -1   5  136.53    6.44
   4  -1  -5  129.32    6.25
   4   1  -5  130.48    6.32
  -4  -1   5  132.05    6.37
   4   1  -5  136.27    6.62
  -3   1   5  319.56    8.31
  -3  -1   5  322.54    8.38
   3  -1  -5  332.28    8.70
   3   1  -5  348.22    8.74
  -3  -1   5  361.02    9.37
   3   1  -5  321.27    8.96
  -2   1   5  123.77    5.99
  -2  -1   5  112.61    5.69
   2  -1  -5  104.54    5.39
   2   1  -5   92.06    4.92
  -2  -1   5  102.26    5.33
   2   1  -5   95.67    5.42
   1  -1  -5   63.92    4.05
   1   1  -5   83.72    4.61
  -1   1   5   65.79    4.61
  -1  -1   5   65.15    4.15
   1   1  -5   88.16    5.17
   0   1   5   25.86    2.68
   0  -1  -5   25.82    2.63
   0   1   5   24.08    2.58
   0  -1   5   22.58    2.53
   0  -1  -5   20.31    2.40
   0   1  -5   18.26    2.46
  -1  -1  -5  326.14    8.57
   1   1   5  333.18    8.98
   1  -1   5  340.13    8.92
  -1  -1  -5  333.67    8.69
  -1   1  -5  347.17    8.96
   2  -1   5  187.49    9.11
   2   1   5  185.23    9.35
   2  -1   5  184.16    9.18
  -2  -1  -5  187.57    9.19
  -2   1  -5  186.56    9.17
   3  -1   5   38.26    3.16
  -3   1  -5   38.40    3.21
   3   1   5   32.78    3.24
   3  -1   5   27.88    2.87
  -3  -1  -5   34.50    3.14
  -3   1  -5   31.44    2.98
   4   1   5    1.68    1.47
   4  -1   5    1.96    1.59
  -4   1  -5    0.74    1.65
   4   1   5    0.55    1.74
   4  -1   5   -0.06    1.73
  -4  -1  -5   -0.03    1.57
  -4   1  -5    0.53    1.66
   5   1   5   16.21    2.04
   5  -1   5   14.67    2.12
  -5  -1  -5   16.16    2.45
  -5   1  -5   16.66    2.40
   5   1   5   20.13    2.42
   5  -1   5   27.60    2.74
  -5  -1  -5   21.92    2.50
  -5   1  -5   20.16    2.40
   6   1   5    1.13    1.62
   6  -1   5    2.71    1.71
  -6  -1  -5    0.40    1.99
  -6   1  -5    1.50    1.87
   6   1   5    0.94    1.65
   6  -1   5    0.90    1.82
  -6  -1  -5   -0.78    1.79
  -6   1  -5    1.17    1.76
   7   1   5  163.05    6.23
   7  -1   5  155.29    6.04
  -7  -1  -5  160.28    6.12
  -7   1  -5  160.02    6.43
   7   1   5  169.96    6.08
   7  -1   5  169.89    6.84
  -7  -1  -5  167.44    5.67
  -7   1  -5  163.17    6.30
   8   1   5    1.02    2.01
   8  -1   5    0.12    1.84
  -8  -1  -5   -0.32    1.80
  -8   1  -5    1.21    2.12
   8   1   5    1.28    1.83
   8  -1   5   -0.34    1.63
  -8  -1  -5    0.09    1.70
  -8   1  -5    0.24    1.78
   9   1   5   71.65    4.34
   9  -1   5   69.23    4.15
  -9   1  -5   69.49    4.35
   9   1   5   71.05    4.51
   9  -1   5   72.15    4.66
  -9  -1  -5   74.39    4.38
  -9   1  -5   72.44    4.27
  10   1   5    0.60    1.93
  10  -1   5    1.12    1.87
  10   1   5    0.19    2.33
  10  -1   5    1.00    2.43
  11   1   5  128.67    5.04
  11  -1   5  126.98    5.04
  11   1   5  132.04    6.66
  11  -1   5  137.21    6.81
  12   1   5   31.17    3.39
  12  -1   5   31.32    3.00
  12   1   5   31.01    3.21
  12  -1   5   26.27    2.85
  13   1   5   33.07    3.80
  13  -1   5   36.18    3.88
  13   1   5   35.46    4.03
  13  -1   5   37.23    3.97
  14   1   5   16.42    2.98
  14  -1   5   15.46    2.70
  14   1   5   15.86    2.87
  14  -1   5   13.69    2.51
  15  -1   5   38.50    3.25
  15   1   5   39.39    3.42
  15   1   5   38.21    3.57
  15  -1   5   39.26    3.49
  16   1   5    6.43    2.44
  16  -1   5    4.01    2.84
  16   1   5    5.58    2.79
  16  -1   5    6.09    2.64
  17  -1   5   20.58    3.10
  17   1   5   24.78    3.19
  17   1   5   25.40    3.50
  17  -1   5   20.87    3.29
  18   1   5   25.12    3.25
  18  -1   5   22.40    6.40
  18   1   5   23.30    3.37
  18  -1   5   23.88    3.65
  19  -1   5   23.65    3.85
  19   1   5   21.56    2.99
  19   1   5   25.99    3.80
  19  -1   5   24.39    3.56
  20   1   5    0.88    2.89
  20  -1   5    1.03    2.90
  20   1   5    0.07    3.11
  20  -1   5   -0.06    2.97
  21   1   5   16.39    3.27
  21   1   5   18.16    3.36
  21  -1   5   17.71    3.81
 -24  -2   5   35.95    3.72
 -23  -2   5    9.10    3.15
  22  -2  -5   51.24    4.03
 -22  -2   5   52.57    4.14
  21   2  -5    7.50    2.51
  21  -2  -5   10.47    3.02
 -21  -2   5   12.08    3.07
  20   2  -5   36.86    3.26
  20  -2  -5   40.13    3.81
 -20  -2   5   40.35    3.73
  19   2  -5   24.15    2.61
  19  -2  -5   28.88    3.15
 -19  -2   5   29.43    3.33
  18   2  -5    2.12    2.48
 -18   2   5    2.71    2.16
  18  -2  -5    3.78    2.60
 -18  -2   5    3.34    2.74
  17   2  -5   34.14    2.91
 -17   2   5   30.76    9.14
  17  -2  -5   33.23    3.15
 -17  -2   5   32.70    3.49
 -16   2   5  105.43    7.57
 -16   2   5  132.08    5.04
  16  -2  -5  109.48    5.14
 -16  -2   5  119.95    5.20
 -15  -2   5   -0.05    1.96
 -15   2   5    0.11    2.13
  15  -2  -5   -0.21    2.24
 -15   2   5   -1.01    2.01
 -15  -2   5   -0.60    2.39
 -14   2   5  404.16   14.57
 -14  -2   5  411.17   14.91
 -14   2   5  432.13   15.83
  14  -2  -5  419.24   15.48
 -14  -2   5  423.91   15.69
 -14   2   5  413.01   16.38
 -14  -2   5  421.00   15.48
 -13  -2   5    2.20    1.90
 -13   2   5    2.02    1.70
  13  -2  -5    3.93    2.09
 -13  -2   5    4.85    2.18
 -13   2   5    3.12    2.07
 -13  -2   5    3.37    2.20
 -12  -2   5  334.32   11.44
 -12   2   5  332.10   11.37
 -12   2   5  371.33   12.70
 -12  -2   5  340.97   11.80
  12  -2  -5  337.06   12.41
 -12  -2   5  354.99   12.32
 -12   2   5  349.76   12.42
 -12  -2   5  349.61   12.19
 -11   2   5    0.10    1.57
 -11  -2   5    0.63    1.99
 -11   2   5    1.79    1.90
 -11  -2   5    1.24    2.39
  11  -2  -5    1.04    1.72
 -11  -2   5    2.36    2.20
 -11   2   5    1.39    3.29
 -11  -2   5    2.44    1.71
 -10  -2   5  325.35    9.53
 -10   2   5  386.20   10.49
 -10  -2   5  400.46   10.81
  10  -2  -5  338.82   13.98
 -10  -2   5  368.43   10.29
 -10   2   5  365.45   10.31
 -10  -2   5  387.51   11.14
  -9   2   5   20.19    2.24
  -9  -2   5   19.40    2.42
  -9   2   5   22.80    2.50
  -9  -2   5   27.88    2.68
   9  -2  -5   23.25    2.58
  -9  -2   5   23.94    2.68
  -9   2   5   24.52    2.54
  -9  -2   5   28.43    2.74
  -8   2   5  147.41    5.32
  -8  -2   5  140.09    5.08
  -8   2   5  151.59    5.67
  -8  -2   5  168.89    5.91
  -8  -2   5  152.95    5.87
  -8   2   5  153.90    5.72
  -8  -2   5  165.97    6.13
  -7  -2   5    0.39    1.80
  -7   2   5    0.07    1.43
  -7  -2   5    1.07    1.70
   7  -2  -5    0.25    1.73
  -7  -2   5    0.31    1.65
  -7   2   5    0.82    1.57
  -7  -2   5    0.38    1.88
  -6  -2   5  381.05   12.33
  -6   2   5  376.01   12.27
  -6  -2   5  387.30   12.38
   6  -2  -5  383.48   12.27
  -6   2   5  382.49   12.35
  -6  -2   5  383.09   12.49
   6   2  -5  392.04   12.91
  -6   2   5  383.20   12.57
  -5  -2   5    8.53    1.57
  -5   2   5    9.47    1.94
  -5  -2   5    8.67    1.94
   5  -2  -5    9.99    1.98
  -5   2   5    9.56    2.29
  -5  -2   5   10.58    1.92
  -5   2   5    9.77    2.18
   5   2  -5    8.56    2.05
  -4   2   5  239.83    9.66
  -4  -2   5  253.75   10.07
   4  -2  -5  250.67    9.99
   4   2  -5  255.17   10.23
  -4  -2   5  251.83   10.13
   4   2  -5  274.18   11.06
  -3   2   5   48.77    3.57
   3  -2  -5   54.35    3.84
  -3  -2   5   53.96    3.84
   3   2  -5   60.37    3.78
  -3  -2   5   57.65    3.50
   3   2  -5   58.03    3.69
  -2   2   5  718.41   13.87
   2  -2  -5  729.56   13.97
   2   2  -5  726.55   14.25
  -2  -2   5  764.65   14.70
   2   2  -5  695.58   14.38
  -1   2   5  355.95    8.85
   1  -2  -5  349.62    8.90
  -1  -2   5  326.81    8.64
   1   2  -5  311.70    8.66
   1  -2  -5  354.36    9.48
   0   2   5  508.68   11.33
   0  -2  -5  508.29   11.07
   0  -2  -5  479.92   11.23
   0  -2   5  465.85   10.62
   0   2  -5  458.37   10.74
   1   2   5   24.46    2.58
   1  -2   5   23.84    2.55
  -1  -2  -5   22.81    2.45
  -1  -2  -5   17.71    2.40
   1  -2   5   19.58    2.35
  -1   2  -5   18.22    2.44
   2  -2   5  270.46    9.50
  -2  -2  -5  270.47    9.47
  -2   2  -5  288.61    9.92
   2   2   5  276.56    9.96
  -2  -2  -5  290.51   10.50
   2  -2   5  282.13   10.01
  -2   2  -5  302.41   10.39
   3  -2   5   38.59    3.30
  -3   2  -5   46.31    3.07
   3   2   5   44.12    3.27
   3  -2   5   48.26    3.70
  -3  -2  -5   51.08    4.00
  -3   2  -5   53.44    4.05
   4  -2   5  313.37    8.44
  -4   2  -5  328.33    9.07
   4   2   5  321.11    8.95
   4  -2   5  327.99    8.91
  -4  -2  -5  329.37    8.82
  -4   2  -5  327.50    8.66
   5   2   5   48.43    4.53
   5  -2   5   49.09    4.59
  -5   2  -5   47.15    4.37
   5   2   5   48.76    4.68
  -5  -2  -5   44.81    5.07
   5  -2   5   44.57    4.36
  -5   2  -5   48.14    4.55
   6   2   5  144.12    5.72
   6  -2   5  150.31    5.98
  -6  -2  -5  151.71    6.31
  -6   2  -5  144.38    5.62
   6   2   5  138.36    5.94
   6  -2   5  117.01    5.63
  -6  -2  -5  118.14    5.29
  -6   2  -5  136.63    5.62
   7   2   5    7.30    1.98
   7  -2   5    4.68    1.88
  -7  -2  -5    4.68    2.17
  -7   2  -5    5.07    2.21
   7   2   5    6.68    2.04
   7  -2   5   14.13    2.70
  -7  -2  -5   13.80    2.46
  -7   2  -5    9.10    2.36
   8   2   5  302.45   10.44
   8  -2   5  309.14   10.65
  -8   2  -5  310.84   10.92
   8   2   5  301.26   10.97
   8  -2   5  269.06   10.00
  -8  -2  -5  258.87    9.81
  -8   2  -5  290.29   10.31
   9   2   5   14.64    2.46
   9  -2   5   13.89    2.37
  -9   2  -5   13.27    2.31
   9   2   5   14.88    2.45
   9  -2   5   17.03    2.63
  -9  -2  -5   15.79    2.45
  -9   2  -5   13.75    2.52
  10   2   5  180.99    7.44
  10  -2   5  179.82    7.41
  10   2   5  181.49    8.12
  10  -2   5  148.94    7.21
  11   2   5   26.75    2.79
  11  -2   5   27.09    3.22
  11   2   5   26.26    3.14
  11  -2   5   20.73    2.76
  12   2   5  113.85    5.35
  12  -2   5  119.08    5.54
  12   2   5  119.03    5.68
  12  -2   5   99.17    5.13
  13   2   5   15.75    2.77
  13  -2   5   16.75    2.59
  13   2   5   14.83    3.02
  13  -2   5   10.68    2.68
  14   2   5   90.90    5.58
  14  -2   5   96.06    5.67
  14   2   5   95.02    5.85
  14  -2   5   84.08    5.42
  15   2   5   -1.19    2.14
  15  -2   5   -0.68    2.36
  15   2   5    1.47    2.59
  15  -2   5   -1.44    2.51
  16   2   5   47.85    4.28
  16  -2   5   50.75    5.01
  16   2   5   46.30    4.45
  16  -2   5   39.54    3.94
  17   2   5   28.09    3.27
  17  -2   5   27.54    7.38
  17   2   5   32.95    3.51
  17  -2   5   27.55    3.60
  18   2   5   23.65    3.07
  18  -2   5   22.14    3.21
  18   2   5   19.30    3.29
  18  -2   5   18.75    3.35
  19   2   5   11.09    4.75
  19   2   5   10.13    2.97
  19  -2   5   12.73    3.13
  20   2   5    3.17    2.76
  20   2   5   -0.55    3.37
  20  -2   5    2.28    3.18
  21   2   5    0.19    2.91
  21   2   5    1.11    3.12
  21  -2   5    2.24    3.06
  24  -3  -5  130.06    5.65
 -24  -3   5  133.45    5.74
  23  -3  -5   -0.12    3.35
 -23  -3   5   -3.46    3.21
  22  -3  -5  131.31    5.43
 -22  -3   5  135.30    5.78
  21   3  -5    2.70    2.58
  21  -3  -5    1.62    2.72
 -21  -3   5    0.00    2.69
  20   3  -5  134.29    6.04
  20  -3  -5  128.93    6.23
 -20  -3   5  136.02    6.55
  19   3  -5    3.10    2.28
  19  -3  -5    5.86    2.64
 -19  -3   5    4.30    2.81
  18   3  -5  198.16    7.99
  18  -3  -5  197.44    8.26
 -18  -3   5  200.62    8.40
  17   3  -5    6.36    3.53
  17  -3  -5    5.44    2.37
 -17  -3   5    8.05    2.64
  16   3  -5  100.33    7.59
 -16   3   5   90.97    7.07
  16  -3  -5   94.93    7.21
 -16  -3   5   92.40    7.04
  15   3  -5   13.13    7.82
 -15   3   5   12.43    2.11
  15  -3  -5   11.01    2.73
 -15   3   5   11.89    2.65
 -15  -3   5    9.17    2.49
  14   3  -5  302.32   12.46
 -14   3   5  304.60   11.59
 -14   3   5  297.09   11.48
  14  -3  -5  299.33   12.39
 -14  -3   5  286.96   11.70
 -14   3   5  300.57   11.63
 -14  -3   5  288.84   11.62
 -13   3   5   22.19    2.52
 -13  -3   5   21.03    2.55
 -13   3   5   21.73    2.69
  13  -3  -5   22.82    2.87
 -13  -3   5   20.80    2.75
 -13   3   5   21.63    2.64
 -13  -3   5   19.73    3.14
 -12   3   5  323.27   11.16
 -12  -3   5  314.97   11.31
 -12   3   5  317.25   13.27
 -12  -3   5  312.27   11.28
  12  -3  -5  315.47   11.39
 -12   3   5  316.16   11.17
 -12  -3   5  316.08   11.35
 -11   3   5    1.59    1.80
 -11  -3   5    1.19    1.71
 -11   3   5    2.24    1.76
 -11  -3   5    2.33    2.12
  11  -3  -5    2.43    1.77
 -11   3   5    2.94    1.96
 -11  -3   5    3.85    2.19
 -10   3   5  445.32   11.30
 -10  -3   5  447.15   11.31
 -10   3   5  432.80   11.61
 -10  -3   5  409.40   11.04
 -10  -3   5  434.13   11.56
  10  -3  -5  417.30   11.99
 -10   3   5  427.86   11.28
 -10  -3   5  396.60   11.41
  -9   3   5   42.47    3.02
  -9  -3   5   46.72    3.28
  -9   3   5   41.24    3.15
  -9  -3   5   29.34    3.42
  -9  -3   5   36.92    3.07
   9  -3  -5   36.16    3.15
  -9   3   5   32.45    2.89
  -9  -3   5   28.09    3.50
  -8   3   5  385.31   10.12
  -8  -3   5  338.10    8.77
   8  -3  -5  351.65    9.00
  -8  -3   5  355.06    9.26
   8  -3  -5  335.05   10.87
  -8   3   5  341.22    8.83
  -8  -3   5  349.34    9.17
  -7  -3   5  196.03    6.87
  -7   3   5  199.06    8.29
  -7  -3   5  232.49    7.01
   7  -3  -5  232.24    6.99
  -7   3   5  226.72    7.00
  -7  -3   5  209.09    7.03
   7   3  -5  224.10    7.22
  -6  -3   5  222.67    8.65
  -6   3   5  209.58    8.08
   6  -3  -5  188.17    9.23
  -6  -3   5  184.44    8.99
   6  -3  -5  192.48    9.91
  -6   3   5  174.04    8.67
  -6  -3   5  187.24    9.16
   6   3  -5  188.63    9.34
  -5  -3   5    0.92    1.47
  -5   3   5    0.94    1.61
   5  -3  -5    0.26    1.46
  -5  -3   5   -0.44    1.34
  -5   3   5    1.14    2.63
  -5  -3   5    1.39    1.66
   5   3  -5    0.23    1.51
  -4  -3   5  245.60    8.75
  -4   3   5  245.23    8.85
   4  -3  -5  231.84    8.53
  -4  -3   5  223.24    8.25
  -4  -3   5  216.86    8.36
   4   3  -5  200.63    8.06
  -3   3   5   13.23    2.28
   3  -3  -5    8.01    1.85
   3   3  -5    2.46    1.34
  -3  -3   5    2.09    1.57
   3   3  -5    1.39    1.90
   2  -3  -5  119.88    6.12
  -2  -3   5  126.55    6.20
   2   3  -5  124.73    6.49
   1  -3  -5  364.04   12.57
   0   3   5  344.44   11.34
   0  -3  -5  335.25   11.15
   0  -3   5  313.95   10.60
   0  -3  -5  264.98   13.02
   0  -3   5  289.59   10.10
   0   3  -5  272.23    9.75
   1   3   5  310.29   10.57
  -1  -3  -5  301.78   10.24
   1  -3   5  295.42   10.17
  -1   3  -5  323.81   11.35
  -1  -3  -5  333.27   14.42
   1  -3   5  314.59   10.79
  -1   3  -5  329.44   11.17
   2   3   5  143.60    7.47
  -2  -3  -5  145.32    7.61
   2  -3   5  148.91    7.67
  -2   3  -5  117.47    6.40
  -2  -3  -5  102.14    7.39
   2  -3   5  133.52    7.18
  -2   3  -5  106.08    6.10
  -2  -3  -5  115.16    6.66
  -3  -3  -5  101.65    5.92
   3  -3   5  102.22    5.94
  -3   3  -5  133.40    7.06
   3  -3   5  117.50    6.53
  -3  -3  -5  143.24    7.75
  -4  -3  -5  177.51    6.54
  -4   3  -5  150.77    5.51
  -4  -3  -5  114.56   10.32
   4  -3   5  149.46    5.74
  -4   3  -5  119.78    9.23
  -4  -3  -5  119.89    9.42
  -5   3  -5   90.68    7.33
   5   3   5  100.16    8.31
   5  -3   5  121.59    9.40
   6   3   5   57.68    3.63
  -6   3  -5   48.75    3.59
   6   3   5   46.64    3.45
  -6  -3  -5   31.10    3.43
   6  -3   5   34.23    3.18
  -6   3  -5   38.50    3.12
   7   3   5  344.31   11.44
   7  -3   5  325.84   11.12
  -7   3  -5  354.65   12.06
   7   3   5  375.33   12.60
  -7  -3  -5  421.83   13.59
   7  -3   5  416.56   13.50
  -7   3  -5  382.50   12.57
   8   3   5   54.26    3.54
   8  -3   5   59.66    4.06
  -8   3  -5   54.49    3.65
   8   3   5   51.08    3.56
   8  -3   5   40.04    3.34
  -8  -3  -5   36.94    3.13
  -8   3  -5   47.27    3.52
   9   3   5  321.20   11.27
   9  -3   5  314.31   11.17
  -9   3  -5  319.31   11.33
   9   3   5  342.68   12.68
   9  -3   5  388.97   13.38
  -9  -3  -5  396.17   13.54
  10   3   5    3.31    2.22
  10  -3   5    4.25    1.95
  10   3   5    1.97    2.17
  10  -3   5    0.40    2.36
  11   3   5   96.15    4.54
  11  -3   5   95.89    4.59
  11   3   5  107.74    4.89
  12   3   5    0.68    1.95
  12  -3   5    0.38    1.96
  12   3   5   -1.12    2.38
  12  -3   5    0.73    2.62
  13   3   5  162.54    5.65
  13  -3   5  156.53    5.75
  13   3   5  170.08    6.08
  13  -3   5  177.52    6.08
  14   3   5    2.53    2.12
  14  -3   5    2.92    2.19
  14   3   5    3.35    2.54
  14  -3   5    1.07    2.33
  15   3   5  128.94    6.17
  15  -3   5  134.06    6.36
  15   3   5  140.83    7.32
  15  -3   5  140.38    6.80
  16   3   5   -1.90    2.24
  16  -3   5    0.97    2.61
  16   3   5    1.40    2.65
  16  -3   5    1.26    2.58
  17   3   5   40.73    3.60
  17  -3   5   42.16    5.47
  17   3   5   45.12    3.94
  17  -3   5   46.71    4.09
  18   3   5    0.27    2.79
  18  -3   5   -0.57    4.12
  18  -3   5   -0.83    2.75
  19   3   5  100.35    4.75
  19  -3   5  103.22    5.20
 -19  -3  -5  112.90    5.55
  20   3   5    2.12    2.82
  20  -3   5    0.17    2.97
 -20  -3  -5    0.21    3.18
  24  -4  -5    5.62    2.93
 -24  -4   5    4.75    3.81
  23  -4  -5    3.92    3.20
 -23  -4   5    7.25    3.21
  22   4  -5   15.19    2.75
  22  -4  -5   15.76    3.42
 -22  -4   5   15.92    3.63
  21   4  -5    9.40    2.63
  21  -4  -5   11.14    2.97
 -21  -4   5   12.59    3.31
  20   4  -5   33.78    3.41
  20  -4  -5   33.02    3.70
 -20  -4   5   32.37    3.34
  19   4  -5   20.21    2.81
  19  -4  -5   20.27    3.18
 -19  -4   5   20.17    3.10
  18   4  -5   71.93    5.16
  18  -4  -5   69.99    5.11
 -18  -4   5   73.18    5.41
  17   4  -5    0.97    2.09
  17  -4  -5    1.29    2.31
 -17  -4   5    2.87    2.45
  16   4  -5   84.33    6.35
 -16   4   5   97.16    7.71
  16  -4  -5   90.93    7.05
 -16  -4   5   93.19    7.03
  15   4  -5   17.09    7.47
 -15   4   5   15.51    2.35
 -15   4   5   15.70    9.22
  15  -4  -5   16.66    2.93
 -15   4   5   14.23    2.78
 -15  -4   5   12.69    2.95
  14   4  -5   61.86    4.31
 -14   4   5   63.45    3.69
 -14   4   5   65.72    7.38
  14  -4  -5   67.52    4.07
 -14   4   5   68.35    4.11
 -14  -4   5   69.51    4.05
  13   4  -5   27.57    7.74
 -13   4   5   29.45    2.67
 -13   4   5   29.16    5.84
  13  -4  -5   28.18    2.99
 -13  -4   5   26.52    3.01
 -13   4   5   27.24    2.86
 -13  -4   5   25.93    2.88
  12   4  -5   66.67    5.72
 -12   4   5   65.35    3.90
 -12   4   5   69.39    4.08
 -12  -4   5   64.20    4.70
  12  -4  -5   67.31    4.90
 -12   4   5   69.32    4.11
 -12  -4   5   70.93    4.47
 -11   4   5   51.87    3.27
 -11  -4   5   48.54    3.20
 -11   4   5   46.65    3.42
 -11  -4   5   44.12    3.36
  11  -4  -5   43.50    3.26
 -11   4   5   41.67    3.19
 -11  -4   5   39.25    3.30
 -10   4   5   57.87    4.01
 -10  -4   5   60.33    4.09
 -10   4   5   65.73    4.35
 -10  -4   5   78.53    4.87
 -10  -4   5   70.03    4.55
  10  -4  -5   76.21    4.91
 -10   4   5   77.15    4.78
 -10  -4   5   79.70    4.94
  -9   4   5   35.42    2.88
  -9  -4   5   33.39    2.86
  -9   4   5   35.91    2.97
  -9  -4   5   39.52    3.04
  -9  -4   5   37.49    3.32
   9  -4  -5   38.60    3.06
  -9   4   5   37.96    2.97
  -9  -4   5   39.54    3.31
  -8  -4   5  275.95    7.75
  -8   4   5  276.26    7.76
  -8  -4   5  287.33    8.08
   8  -4  -5  280.63    7.89
   8  -4  -5  293.95   11.35
  -8   4   5  284.63    8.01
  -8  -4   5  281.63    8.12
   8   4  -5  278.84    8.29
  -7  -4   5   15.78    1.97
  -7   4   5   14.55    2.06
   7  -4  -5   13.25    2.17
  -7  -4   5   11.23    2.20
  -7   4   5   11.60    2.13
  -7  -4   5   12.38    2.30
   7   4  -5   12.81    2.62
  -6  -4   5  329.88    9.67
  -6   4   5  307.00    9.63
   6  -4  -5  328.31    8.63
  -6  -4   5  341.27    8.71
  -6   4   5  347.16    9.08
  -6  -4   5  331.95    9.14
   6   4  -5  335.40    9.39
  -5  -4   5    0.82    1.63
  -5   4   5    2.18    1.45
   5  -4  -5    4.70    1.79
  -5  -4   5    9.92    2.02
   5  -4  -5    8.13    1.90
  -5   4   5    9.53    2.02
  -5  -4   5    8.47    1.92
   5   4  -5    9.40    2.03
  -4   4   5  448.52   14.04
   4  -4  -5  462.88   14.27
   4  -4  -5  467.39   14.68
  -4  -4   5  496.53   15.16
   4   4  -5  487.01   15.18
  -4   4   5  500.10   15.27
  -3   4   5   57.60    4.02
   3  -4  -5   59.14    4.18
   3  -4  -5   81.82    5.17
  -3  -4   5   78.51    4.97
   3   4  -5   73.83    4.96
  -3   4   5   75.34    5.10
  -2   4   5  217.76    8.17
   2  -4  -5  214.40    8.08
   2  -4  -5  214.97    8.25
  -2  -4   5  231.80    8.66
   2  -4  -5  216.47    8.56
   2   4  -5  217.49    8.46
  -1   4   5   10.11    1.97
   1  -4  -5    9.70    1.99
  -1  -4   5    8.48    1.89
   1  -4  -5    9.06    2.03
  -1  -4   5    7.29    1.76
   1   4  -5    7.54    2.09
   0   4   5  194.36    6.01
   0  -4  -5  192.70    9.26
   0  -4   5  184.36    8.99
   0   4  -5  192.64    9.29
   0  -4  -5  192.47    9.42
   0  -4   5  210.95    8.17
   0   4  -5  189.40    9.38
   1   4   5   52.52    4.01
  -1  -4  -5   50.14    3.92
   1  -4   5   48.88    3.68
  -1   4  -5   54.20    3.95
  -1  -4  -5   54.97    4.10
   1  -4   5   54.12    4.09
  -1   4  -5   53.70    4.13
  -1  -4  -5   54.62    4.08
   2   4   5  391.93   12.64
  -2  -4  -5  380.83   12.20
   2  -4   5  380.73   12.30
  -2   4  -5  386.68   12.76
  -2  -4  -5  397.23   12.81
   2  -4   5  387.67   12.71
  -2   4  -5  390.50   12.62
  -2  -4  -5  386.17   13.13
   3   4   5    9.68    2.05
  -3  -4  -5    9.26    2.16
   3  -4   5   10.31    2.02
  -3   4  -5   10.10    2.10
  -3  -4  -5   10.45    2.28
   3  -4   5    9.95    2.21
  -3   4  -5   12.84    2.20
  -3  -4  -5   10.90    2.08
  -4  -4  -5  418.67   10.03
   4  -4   5  407.24    9.96
  -4   4  -5  417.20    9.96
  -4  -4  -5  412.19   10.13
   4  -4   5  418.42   10.31
  -4   4  -5  418.15   10.22
  -4  -4  -5  412.45   11.33
  -5  -4  -5   22.99    2.90
   5  -4   5   25.57    3.16
  -5   4  -5   27.82    3.49
  -5  -4  -5   26.19    4.65
   5  -4   5   26.50    3.35
  -5   4  -5   24.58    3.33
  -5  -4  -5   26.86    3.41
   6  -4   5  295.46    9.16
  -6   4  -5  270.31    8.20
  -6  -4  -5  260.73    8.26
   6  -4   5  268.89    8.47
  -6   4  -5  254.12    8.21
  -6  -4  -5  255.31    8.42
   7   4   5   71.33    4.49
   7  -4   5   74.10    4.75
  -7   4  -5   67.49    4.48
  -7  -4  -5   63.59    5.64
   7  -4   5   65.22    4.50
  -7   4  -5   64.11    4.54
  -7  -4  -5   63.53    4.41
   8   4   5   89.92    4.87
   8  -4   5   91.02    4.85
  -8   4  -5   87.90    4.83
  -8  -4  -5   81.02    4.63
   8  -4   5   82.46    4.65
  -8   4  -5   79.91    4.69
  -8  -4  -5   79.87    4.75
   9   4   5   17.76    2.62
   9  -4   5   19.34    2.88
  -9   4  -5   15.61    2.70
  -9  -4  -5   12.15    2.51
   9  -4   5   13.84    2.48
  -9  -4  -5   15.23    2.63
  10   4   5  183.74    8.07
  10  -4   5  181.27    8.12
  10  -4   5  157.35    7.75
 -10  -4  -5  153.16    7.38
  11   4   5   29.00    2.80
  11  -4   5   28.61    2.77
  11  -4   5   23.31    3.06
 -11  -4  -5   26.09    3.26
  12   4   5   32.07    3.84
  12  -4   5   35.12    3.78
  12  -4   5   17.69    2.85
 -12  -4  -5   19.79    3.08
  13   4   5    1.72    2.16
  13  -4   5    3.45    2.53
  13  -4   5    0.56    2.49
 -13  -4  -5    0.77    2.48
  14   4   5   24.09    2.98
  14  -4   5   26.95    3.03
  14  -4   5   13.93    2.52
 -14  -4  -5   17.18    2.70
  15   4   5   10.18    2.68
  15  -4   5   10.38    2.64
  15  -4   5   12.54    3.07
 -15  -4  -5   16.00    3.33
  16   4   5   52.49    3.88
  16  -4   5   55.16    3.77
  16  -4   5   40.97    3.77
 -16  -4  -5   39.62    3.89
  17   4   5   23.25    3.31
  17  -4   5   24.63    9.13
  17  -4   5   17.10    3.88
 -17  -4  -5   16.93    3.28
  18   4   5    4.67    3.25
  18  -4   5    4.30    2.59
  18  -4   5    3.86    3.09
 -18  -4  -5    2.49    3.19
  19   4   5    0.87    2.80
  19  -4   5    1.40    3.22
 -19  -4  -5    4.37    3.26
  20   4   5    9.32    3.15
  20  -4   5    5.64    3.26
 -20  -4  -5    3.68    3.33
  23   5  -5    1.74    2.85
  23  -5  -5    3.72    3.27
 -23  -5   5    2.13    2.97
  22   5  -5    5.82    3.29
  22  -5  -5    4.43    3.40
 -22  -5   5    4.48    3.21
  21   5  -5    2.63    2.77
  21  -5  -5    2.09    2.91
 -21  -5   5    0.83    2.83
  20   5  -5    3.05    2.52
  20  -5  -5    2.73    3.13
 -20  -5   5    1.74    3.04
  19   5  -5    0.11    2.34
  19  -5  -5    1.91    2.43
 -19  -5   5    0.77    2.41
  18   5  -5    1.17    3.05
  18  -5  -5   -0.12    2.41
 -18  -5   5    1.56    2.47
  17   5  -5    0.40    2.04
  17  -5  -5    1.12    2.14
 -17  -5   5   -2.75    2.46
  16   5  -5    3.99    2.00
  16  -5  -5    3.55    2.49
 -16  -5   5    3.86    2.52
  15   5  -5    6.71    2.36
 -15   5   5    9.51    3.34
  15  -5  -5   10.21    2.59
 -15  -5   5   10.55    2.61
  14   5  -5    6.16    3.21
 -14   5   5    5.23    2.14
  14  -5  -5    4.93    2.14
 -14   5   5    6.06    2.23
 -14  -5   5    6.51    2.35
  13   5  -5   25.44    3.02
 -13   5   5   27.19    2.71
 -13   5   5   27.28    3.17
  13  -5  -5   33.61    3.08
 -13   5   5   30.24    2.92
 -13  -5   5   32.13    3.61
  12   5  -5    3.10    2.55
 -12   5   5    3.53    1.94
 -12  -5   5    4.35    2.34
  12  -5  -5    4.33    2.08
 -12   5   5    2.59    1.86
 -12  -5   5    2.74    2.47
  11   5  -5   52.83    3.37
 -11   5   5   51.61    3.21
 -11   5   5   54.66    3.70
 -11  -5   5   55.69    3.59
  11  -5  -5   66.96    4.28
 -11   5   5   63.41    3.98
 -11  -5   5   63.32    4.17
 -10   5   5   11.75    2.01
 -10   5   5   11.02    3.16
 -10  -5   5    9.90    2.14
  10  -5  -5   11.13    2.33
 -10   5   5   11.23    2.14
 -10  -5   5   11.60    2.25
  -9  -5   5    8.10    1.86
  -9   5   5    8.63    2.12
   9  -5  -5    8.77    2.04
  -9  -5   5    8.93    2.04
   9  -5  -5    8.04    2.42
  -9   5   5    8.09    2.07
  -9  -5   5    8.62    2.08
   9   5  -5    7.61    2.11
  -8  -5   5    2.24    1.86
  -8   5   5    2.04    1.56
   8  -5  -5    0.87    1.74
  -8  -5   5    1.35    1.70
   8  -5  -5    1.07    1.89
  -8   5   5    1.03    1.82
  -8  -5   5    1.46    1.96
   8   5  -5    0.82    1.89
  -7  -5   5    5.63    1.75
  -7   5   5    6.63    1.74
   7  -5  -5    6.06    2.03
  -7  -5   5    5.40    1.83
   7  -5  -5    5.64    1.83
  -7   5   5    5.54    1.87
  -7  -5   5    4.90    2.00
   7   5  -5    6.57    2.11
  -6  -5   5   94.52    7.60
  -6   5   5   89.49    7.16
   6  -5  -5   87.05    7.15
  -6  -5   5   86.88    6.93
  -6   5   5   86.02    7.00
  -6  -5   5   83.31    6.85
   6   5  -5   87.29    7.26
  -5   5   5   28.82    2.69
   5  -5  -5   29.17    2.84
  -5  -5   5   30.82    2.83
  -5   5   5   27.74    2.65
   5   5  -5   29.88    3.01
  -4   5   5   62.94    5.46
   4  -5  -5   63.81    5.59
  -4  -5   5   45.53    4.48
  -4   5   5   46.78    4.42
   4   5  -5   43.17    4.43
  -3   5   5   81.30    5.04
   3  -5  -5   81.95    5.04
  -3  -5   5   79.18    5.07
   3   5  -5   72.51    5.01
  -3   5   5   73.65    4.82
  -2  -5   5   72.45    4.54
  -2   5   5   74.44    4.76
   2  -5  -5   73.07    4.69
  -2  -5   5   66.76    4.35
  -2  -5   5   71.72    4.68
   2   5  -5   70.75    4.89
  -2   5   5   74.77    4.82
  -1   5   5    7.50    1.88
   1  -5  -5    7.52    2.00
  -1  -5   5    9.01    1.79
   1   5  -5    6.23    1.95
  -1  -5   5    8.21    2.12
   1   5  -5    6.21    2.02
  -1   5   5    7.71    1.93
   0   5   5    9.08    1.96
   0  -5  -5    7.47    1.93
   0  -5   5   12.20    2.09
   0   5  -5   15.32    2.47
   0  -5  -5   10.61    2.06
   0  -5   5   15.46    2.36
   0   5  -5   13.91    2.45
   0  -5  -5   16.43    3.18
   1   5   5   86.09    7.01
  -1  -5  -5   91.15    7.32
   1  -5   5   79.39    6.50
  -1   5  -5   67.89    5.78
  -1  -5  -5   82.69    6.77
   1  -5   5   66.71    5.80
  -1   5  -5   69.58    6.02
  -1  -5  -5   71.20    6.13
   2   5   5   25.62    2.62
  -2  -5  -5   27.71    2.73
   2  -5   5   23.76    2.54
  -2   5  -5   19.12    2.24
  -2  -5  -5   25.04    2.63
   2  -5   5   21.84    2.55
  -2   5  -5   22.39    2.70
  -2  -5  -5   18.77    2.45
   3   5   5   35.01    2.92
  -3  -5  -5   30.82    2.65
   3  -5   5   31.87    2.80
  -3   5  -5   43.12    4.26
  -3  -5  -5   37.78    3.89
   3  -5   5   36.95    3.01
  -3   5  -5   40.83    4.24
  -3  -5  -5   45.14    4.39
   4   5   5    0.79    1.82
  -4  -5  -5    1.77    1.39
   4  -5   5    0.45    1.67
  -4   5  -5    0.92    1.65
  -4  -5  -5    0.27    1.82
   4  -5   5    0.30    1.82
  -4   5  -5    0.83    1.84
  -4  -5  -5    0.00    1.75
  -5  -5  -5   19.10    2.74
   5  -5   5   22.13    3.09
  -5   5  -5   35.42    3.21
  -5  -5  -5   33.75    2.98
   5  -5   5   26.10    3.51
  -5   5  -5   38.83    3.28
  -5  -5  -5   30.58    3.02
   6  -5   5    9.92    2.39
  -6   5  -5    4.42    2.17
  -6  -5  -5    4.55    2.10
   6  -5   5    6.80    2.48
  -6   5  -5    4.01    2.35
  -6  -5  -5    5.79    2.06
   7  -5   5   17.71    2.57
  -7   5  -5   22.76    2.72
  -7  -5  -5   23.51    2.67
   7  -5   5   21.67    2.68
  -7   5  -5   26.07    3.00
  -7  -5  -5   21.08    2.74
   8   5   5   18.25    2.54
   8  -5   5   21.67    2.64
  -8   5  -5   14.68    2.32
  -8  -5  -5   12.60    2.86
   8  -5   5   13.89    2.68
  -8  -5  -5   12.40    2.69
   9   5   5    6.46    1.83
   9  -5   5    4.53    2.05
  -9   5  -5    2.59    2.09
   9  -5   5    1.67    2.61
  -9  -5  -5    0.77    2.14
  10   5   5    8.98    2.34
  10  -5   5    7.69    2.08
  10  -5   5   19.01    2.90
 -10  -5  -5   13.52    2.81
  11   5   5    4.55    2.15
  11  -5   5    2.89    2.17
  11  -5   5    8.18    2.34
 -11  -5  -5    9.47    3.22
  12   5   5    8.67    2.46
  12  -5   5    9.63    2.42
  12  -5   5   15.93    2.84
 -12  -5  -5   11.91    2.71
  13   5   5   47.72    3.47
  13  -5   5   47.38    3.68
  13  -5   5   51.10    3.86
 -13  -5  -5   57.74    4.50
  14   5   5   -1.16    2.32
  14  -5   5    0.46    2.27
  14  -5   5   -1.04    2.57
 -14  -5  -5   -1.27    2.62
  15   5   5   12.15    2.95
  15  -5   5   11.75    4.16
  15  -5   5   17.27    2.93
 -15  -5  -5   14.82    3.32
  16   5   5    0.48    2.71
  16  -5   5    1.43    2.79
  16  -5   5    0.83    2.56
 -16  -5  -5    3.40    3.17
  17   5   5   52.74    4.13
  17  -5   5   48.08    5.26
  17  -5   5   50.71    4.12
 -17  -5  -5   53.69    4.29
  18   5   5    1.26    2.61
  18  -5   5    0.63    2.90
 -18  -5  -5   -0.09    2.97
  19   5   5    6.24    2.89
  19  -5   5    4.59    3.55
 -19  -5  -5    6.44    3.22
  20   5   5    0.60    2.85
  20  -5   5   -0.13    3.38
 -20  -5  -5    1.68    3.79
  23   6  -5   -0.12    2.69
  23  -6  -5    0.24    2.81
 -23  -6   5    0.74    3.20
  22   6  -5   31.42    3.23
  22  -6  -5   34.65    4.26
 -22  -6   5   32.52    3.92
  21   6  -5    1.44    2.80
  21  -6  -5    1.60    2.82
 -21  -6   5   -1.53    2.88
  20   6  -5    2.58    2.45
  20  -6  -5    2.83    2.40
 -20  -6   5    4.30    2.89
  19   6  -5   -0.37    2.27
  19  -6  -5    0.29    2.55
 -19  -6   5    4.12    2.57
  18   6  -5   -0.08    2.34
  18  -6  -5    2.89    2.32
 -18  -6   5    4.11    2.73
  17   6  -5    4.63    2.30
  17  -6  -5    3.88    2.49
 -17  -6   5    2.14    2.37
  16   6  -5   86.26    5.20
  16  -6  -5   99.73    5.15
 -16  -6   5  100.29    4.94
  15  -6  -5    7.50    2.41
 -15  -6   5    6.03    2.48
  14   6  -5  118.04    5.35
 -14   6   5  119.52    6.15
  14  -6  -5  122.91    5.98
 -14   6   5  123.31    5.63
 -14  -6   5  125.53    5.76
 -13   6   5    0.26    1.82
  13  -6  -5   -0.07    1.96
 -13   6   5    0.83    2.01
 -13  -6   5    0.51    2.40
  12   6  -5   22.67    2.55
 -12   6   5   25.08    2.80
  12  -6  -5   28.88    3.17
 -12   6   5   26.32    2.83
 -12  -6   5   25.95    3.48
  11   6  -5   36.51    3.31
 -11   6   5   38.96    2.93
 -11   6   5   36.63    7.37
 -11  -6   5   33.72    3.09
  11  -6  -5   34.77    3.24
 -11   6   5   32.21    3.11
 -11  -6   5   31.39    3.05
  10   6  -5   40.82    2.99
 -10   6   5   41.35    3.03
 -10   6   5   42.05   12.34
  10  -6  -5   57.72    3.84
 -10   6   5   52.24    3.31
 -10  -6   5   52.32    3.69
  10   6  -5   51.98    3.62
  -9   6   5  133.32    8.67
   9  -6  -5  132.20    5.96
   9  -6  -5  130.43    6.12
  -9   6   5  132.40    6.05
  -9  -6   5  130.98    6.11
   9   6  -5  131.35    6.12
  -8  -6   5   17.36    2.53
  -8   6   5   20.42    9.99
   8  -6  -5   21.20    2.51
  -8  -6   5   22.55    2.35
   8  -6  -5   21.81    2.54
  -8   6   5   22.90    2.68
  -8  -6   5   21.34    2.72
   8   6  -5   21.31    2.81
  -7  -6   5   32.40    2.95
  -7   6   5   28.74    4.44
   7  -6  -5   23.75    3.04
  -7  -6   5   21.22    2.88
   7  -6  -5   22.77    3.08
  -7   6   5   21.42    3.03
  -7  -6   5   20.50    3.16
   7   6  -5   24.45    3.45
  -6   6   5    3.90    4.53
   6  -6  -5    3.91    1.78
   6  -6  -5    4.22    1.67
  -6   6   5    6.34    2.19
  -6  -6   5    6.85    2.25
   6   6  -5    7.05    2.26
  -5   6   5   10.05    3.92
   5  -6  -5   10.46    2.09
  -5  -6   5    5.59    2.04
  -5   6   5    6.54    2.09
   5   6  -5    5.56    2.07
  -4   6   5   22.12    2.42
   4  -6  -5   23.31    2.72
  -4  -6   5   22.17    2.73
   4   6  -5   20.04    2.74
  -4   6   5   20.11    2.57
  -3  -6   5    1.14    1.69
  -3   6   5    1.27    1.64
   3  -6  -5    1.15    1.69
  -3  -6   5    0.69    1.45
  -3  -6   5    0.98    1.68
   3   6  -5    0.01    2.01
  -3   6   5    1.48    1.76
  -2  -6   5  120.80    9.11
  -2   6   5  117.15   12.41
   2  -6  -5  120.72    9.17
  -2  -6   5   99.86    7.84
  -2  -6   5  102.36    8.09
   2   6  -5  102.88    8.28
  -2   6   5  101.46    8.04
  -1   6   5   45.96    4.80
  -1  -6   5   29.80    2.85
  -1  -6   5   24.91    2.68
   1  -6  -5   25.31    2.92
   1   6  -5   21.67    2.97
  -1   6   5   30.60    2.75
   0   6   5    5.61    1.81
   0  -6  -5    4.25    1.74
   0  -6   5    7.99    1.87
   0  -6   5   11.03    2.11
   0   6  -5   10.50    2.32
   0  -6  -5    9.68    2.14
   0   6   5    8.93    1.94
   1   6   5   28.87    2.75
  -1  -6  -5   29.35    2.76
   1  -6   5   25.48    2.54
  -1   6  -5   25.38    2.59
  -1  -6  -5   25.52    2.71
   1  -6   5   23.02    2.59
  -1   6  -5   23.47    2.81
  -1  -6  -5   24.55    2.64
   2   6   5    1.57    1.87
  -2  -6  -5    1.53    1.56
   2  -6   5    1.39    1.64
  -2   6  -5    0.64    1.77
  -2  -6  -5    0.90    2.11
   2  -6   5    1.75    1.92
  -2   6  -5    0.77    1.98
  -2  -6  -5    1.08    2.09
   3   6   5   25.88    3.28
  -3  -6  -5   22.76    2.88
   3  -6   5   24.37    3.14
  -3   6  -5   30.36    2.77
  -3  -6  -5   25.60    3.40
   3  -6   5   30.07    3.61
  -3   6  -5   26.63    3.52
  -3  -6  -5   30.32    2.89
   4   6   5    1.31    1.92
  -4  -6  -5    1.26    1.73
   4  -6   5   -0.15    1.58
  -4   6  -5    1.04    1.73
  -4  -6  -5    0.56    1.95
   4  -6   5    2.83    2.04
  -4   6  -5    0.77    1.98
  -4  -6  -5    1.41    1.78
   5   6   5   53.79    4.32
   5  -6   5   50.46    3.86
  -5   6  -5   61.61    4.14
  -5  -6  -5   56.87    4.00
   5  -6   5   56.38    4.15
  -5   6  -5   62.04    4.39
  -5  -6  -5   59.63    4.30
   6  -6   5   32.50    3.19
  -6   6  -5   26.17    2.90
  -6  -6  -5   28.39    2.89
   6  -6   5   30.59    3.04
  -6   6  -5   26.74    2.89
  -6  -6  -5   27.45    2.80
   7  -6   5    8.78    2.17
  -7   6  -5    9.46    2.39
  -7  -6  -5   10.32    2.33
   7  -6   5    9.32    2.53
  -7  -6  -5    9.08    2.30
   8  -6   5    0.74    2.04
  -8   6  -5    2.88    2.02
  -8  -6  -5    3.05    2.25
   8  -6   5    2.51    2.14
  -8  -6  -5    3.59    2.15
   9   6   5   -0.35    2.17
   9  -6   5   -0.06    2.02
  -9   6  -5    0.68    1.86
   9  -6   5    1.68    2.20
  -9  -6  -5    1.66    2.05
  10   6   5    2.42    2.10
  10  -6   5    2.51    2.16
  10  -6   5    3.08    2.14
 -10  -6  -5    2.89    2.41
  11   6   5   -1.40    2.25
  11  -6   5   -0.05    1.94
  11  -6   5    0.36    2.30
 -11  -6  -5    0.23    2.64
  12   6   5    0.68    2.22
  12  -6   5    0.97    2.20
  12  -6   5    4.61    2.53
 -12  -6  -5    2.05    2.21
  13   6   5    9.83    2.51
  13  -6   5    9.76    2.61
  13  -6   5   10.08    2.75
 -13  -6  -5    9.74    2.60
  14   6   5    7.68    2.54
  14  -6   5    8.77    2.64
  14  -6   5    6.16    2.72
 -14  -6  -5    7.45    2.80
  15   6   5   33.38    3.38
  15  -6   5   31.60    3.37
  15  -6   5   32.86    3.76
 -15  -6  -5   30.98    3.68
  16   6   5   32.90    3.35
  16  -6   5   32.71    3.44
  16  -6   5   35.98    3.69
 -16  -6  -5   33.81    3.79
  17   6   5    9.14    2.77
  17  -6   5    5.75    3.22
 -17  -6  -5    8.93    3.49
  18   6   5    7.70    3.22
  18  -6   5    3.81    3.46
 -18  -6  -5    6.91    3.71
  19   6   5    3.36    2.71
  19  -6   5    2.58    3.11
 -19  -6  -5    4.49    3.42
  20   6   5    2.32    2.81
  20  -6   5   -1.58    3.51
 -20  -6  -5    0.69    3.39
  23   7  -5    1.59    3.34
  23  -7  -5    1.65    3.45
 -23  -7   5    0.90    3.29
  22   7  -5  157.13    5.60
  22  -7  -5  164.87    6.13
 -22  -7   5  163.27    6.04
  21   7  -5   -0.59    2.97
  21  -7  -5   -0.04    2.63
 -21  -7   5    0.29    2.84
  20   7  -5   91.78    4.44
  20  -7  -5   86.88    4.86
 -20  -7   5   81.98    4.61
  19   7  -5    0.16    2.39
  19  -7  -5    3.01    3.10
 -19  -7   5    2.04    2.79
  18   7  -5  155.76    6.53
  18  -7  -5  172.30    7.43
 -18  -7   5  164.42    7.14
  17   7  -5    0.00    2.26
  17  -7  -5    1.26    2.52
 -17  -7   5    0.76    2.71
  16   7  -5  200.95    8.25
  16  -7  -5  187.04    8.80
 -16  -7   5  192.29    8.17
  15  -7  -5    3.38    2.42
 -15  -7   5    1.07    2.36
  14   7  -5  100.49    7.46
  14  -7  -5   90.90    7.03
 -14  -7   5   85.44    6.61
  13   7  -5    1.82    1.96
  13  -7  -5    2.92    2.21
 -13   7   5    1.98    2.05
 -13  -7   5    4.96    2.48
  12   7  -5  148.71    6.81
 -12   7   5  140.92   22.04
  12  -7  -5  140.70    7.24
 -12   7   5  132.65    6.47
 -12  -7   5  143.20    6.92
  11   7  -5   29.85    2.92
 -11   7   5   26.96    2.64
 -11   7   5   33.34   13.19
  11  -7  -5   39.82    3.31
 -11   7   5   39.58    3.21
 -11  -7   5   36.32    3.19
 -10   7   5  267.20    9.47
  10   7  -5  285.46   10.11
 -10   7   5  284.99   10.17
  10  -7  -5  260.62    9.79
 -10   7   5  266.41    9.79
 -10  -7   5  272.92   10.27
  10   7  -5  266.84    9.88
   9   7  -5   59.33    3.53
  -9   7   5   62.98    3.96
   9  -7  -5   77.08    4.45
   9  -7  -5   71.82    4.37
  -9   7   5   68.10    4.18
  -9  -7   5   70.03    4.57
   9   7  -5   68.77    4.31
  -8   7   5  206.41    8.11
   8  -7  -5  178.65    7.57
   8  -7  -5  197.47    8.13
  -8   7   5  184.31    7.49
  -8  -7   5  180.88    7.63
   8   7  -5  188.38    8.09
  -7   7   5   42.41    7.60
   7  -7  -5   46.26    3.66
   7  -7  -5   45.27    3.68
  -7   7   5   54.70    4.08
  -7  -7   5   58.65    4.24
   7   7  -5   52.76    4.32
  -6   7   5  148.74   11.60
   6  -7  -5  143.74    6.23
   6  -7  -5  144.10    6.53
  -6   7   5  130.48    5.86
  -6  -7   5  126.00    5.03
   6   7  -5  132.44    6.23
  -5   7   5  157.83    9.26
   5  -7  -5  150.46    5.82
   5  -7  -5  165.84    6.43
  -5  -7   5  168.87    5.78
  -5   7   5  159.93    6.07
   5   7  -5  167.78    6.06
  -4  -7   5   85.00    4.35
  -4   7   5   75.33   15.42
   4  -7  -5   79.39    4.22
  -4  -7   5   60.51    3.68
   4  -7  -5   60.22    3.82
  -4  -7   5   64.21    3.96
  -4   7   5   66.24    3.83
   4   7  -5   61.03    3.98
  -3   7   5  156.28    7.46
   3  -7  -5  150.58    5.78
  -3  -7   5  194.65    6.74
   3  -7  -5  186.45    7.07
  -3  -7   5  184.90    6.73
   3   7  -5  170.02    6.01
  -3   7   5  194.76    6.79
   2  -7  -5   19.42    2.86
  -2  -7   5    7.99    1.89
  -2  -7   5   11.73    2.49
   2  -7  -5    9.50    2.42
   2   7  -5    9.72    2.27
  -2   7   5    6.87    2.07
  -1  -7   5  260.21    7.85
  -1   7   5  278.65    8.42
   1  -7  -5  268.88    8.09
  -1  -7   5  289.46    8.59
  -1  -7   5  310.93    9.27
   1  -7  -5  299.67   10.24
   1   7  -5  303.88    9.26
  -1   7   5  293.12    8.70
   0  -7   5   -0.10    1.81
   0  -7  -5    0.62    1.69
   0  -7   5    1.04    1.72
   0  -7   5    2.51    1.93
   0  -7  -5    1.90    2.02
   0   7  -5    2.17    2.00
   0   7   5    1.38    1.89
   1  -7   5   71.80    3.92
   1   7   5   76.55   14.51
  -1  -7  -5   70.68    3.87
   1  -7   5   73.26    4.13
   1  -7   5   89.62    4.61
  -1   7  -5   84.15    4.54
  -1  -7  -5   83.36    4.87
   1   7   5   81.90    4.32
   2   7   5  202.51   10.56
  -2  -7  -5  196.61    6.81
   2  -7   5  195.85    6.85
  -2   7  -5  197.27    6.72
  -2  -7  -5  192.08    6.71
   2  -7   5  192.44    6.94
  -2   7  -5  192.56    6.93
  -2  -7  -5  192.62    6.93
   3   7   5  217.19    8.81
  -3  -7  -5  200.74    7.81
   3  -7   5  209.89    8.09
  -3   7  -5  213.02    7.97
  -3  -7  -5  210.98    8.05
   3  -7   5  217.49    8.41
  -3   7  -5  221.33    8.47
  -3  -7  -5  223.35    9.02
   4   7   5   37.54    5.25
   4  -7   5   39.52    3.37
  -4   7  -5   32.93    3.12
  -4  -7  -5   40.20    3.55
   4  -7   5   37.32    3.43
  -4   7  -5   34.20    3.47
  -4  -7  -5   32.07    3.48
   5   7   5  134.47    6.03
   5  -7   5  129.73    5.93
  -5   7  -5  147.82    6.12
  -5  -7  -5  139.73    6.16
   5  -7   5  138.47    6.23
  -5   7  -5  145.00    6.34
  -5  -7  -5  146.05    6.52
   6   7   5    4.52    1.95
   6  -7   5    5.56    1.96
  -6   7  -5    2.89    1.87
  -6  -7  -5    4.74    2.09
   6  -7   5    4.94    2.43
  -6  -7  -5    4.36    2.07
   7  -7   5  147.60    6.84
  -7   7  -5  158.27    6.80
  -7  -7  -5  153.73    6.69
   7  -7   5  152.18    6.92
  -7  -7  -5  155.55    7.18
   8  -7   5   45.58    3.64
  -8   7  -5   42.44    3.30
   8  -7   5   44.44    3.56
  -8  -7  -5   42.13    3.75
   9  -7   5   94.05    7.95
  -9   7  -5  102.63    5.07
   9  -7   5  105.47    5.18
  -9  -7  -5  102.22    5.64
  10   7   5    0.66    2.00
  10  -7   5   -0.47    2.13
  10  -7   5    2.37    2.49
 -10  -7  -5   -0.12    2.30
  11   7   5   21.27    2.82
  11  -7   5   18.53    2.61
  11  -7   5   27.08    3.68
 -11  -7  -5   25.15    3.56
  12   7   5    1.86    2.34
  12  -7   5    0.66    2.21
  12  -7   5    0.61    2.71
 -12  -7  -5    0.36    2.61
  13   7   5   44.33    3.69
  13  -7   5   41.99    3.46
  13  -7   5   51.81    3.88
 -13  -7  -5   50.45    4.09
  14   7   5    2.37    2.51
  14  -7   5    1.13    2.21
  14  -7   5    1.50    2.40
 -14  -7  -5    1.10    2.45
  15   7   5   37.94    3.55
  15  -7   5   37.89    3.33
  15  -7   5   45.45    4.02
 -15  -7  -5   44.17    4.27
  16   7   5   10.48    2.85
  16  -7   5    8.22    3.10
 -16  -7  -5   10.42    3.52
  17   7   5   29.81    3.33
  17  -7   5   35.88    3.92
 -17  -7  -5   35.48    3.88
  18   7   5    5.80    2.53
  18  -7   5    2.79    3.20
 -18  -7  -5    4.69    2.75
  19   7   5   22.12    3.23
  19  -7   5   21.34    3.84
 -19  -7  -5   24.29    3.73
  22   8  -5    4.73    3.95
  22  -8  -5    5.20    3.26
 -22  -8   5    4.11    3.14
  21   8  -5   14.69    2.93
  21  -8  -5   15.74    3.49
 -21  -8   5   13.88    3.24
  20   8  -5   39.17    3.58
  20  -8  -5   43.60    4.13
 -20  -8   5   46.95    4.05
  19   8  -5    4.14    2.36
  19  -8  -5    5.19    2.79
 -19  -8   5    5.41    3.15
  18   8  -5   98.19    5.08
  18  -8  -5  106.27    5.87
 -18  -8   5  106.58    5.60
  17   8  -5   -0.41    2.37
  17  -8  -5    0.98    2.40
 -17  -8   5    2.62    2.52
  16  -8  -5  182.36    7.95
 -16  -8   5  179.50    7.73
  15   8  -5    4.00    2.79
  15  -8  -5    4.93    2.45
 -15  -8   5    6.85    3.30
  14   8  -5   49.95    3.56
  14  -8  -5   57.50    4.39
 -14  -8   5   58.51    4.60
  13   8  -5    7.41    2.35
  13  -8  -5    7.66    2.28
 -13   8   5    7.39    2.33
 -13  -8   5    8.16    2.73
  12   8  -5   65.07    5.77
  12  -8  -5   75.95    6.93
 -12   8   5   73.76    6.52
 -12  -8   5   72.55    6.54
  11   8  -5   -1.03    1.49
  11  -8  -5    0.44    2.29
 -11   8   5    0.37    2.00
 -11  -8   5    0.61    2.12
  10   8  -5  311.12   11.88
 -10   8   5  319.93   12.12
  10  -8  -5  332.48   13.08
 -10   8   5  333.57   12.77
 -10  -8   5  335.42   12.78
   9   8  -5    8.53    1.85
  -9   8   5    8.35    2.06
   9  -8  -5   11.20    2.32
   9  -8  -5   10.04    2.37
  -9   8   5   10.16    2.19
  -9  -8   5    9.24    2.38
  -8   8   5  375.65   13.02
   8  -8  -5  371.07   12.82
   8  -8  -5  363.19   12.67
  -8   8   5  381.25   12.82
  -8  -8   5  380.83   13.53
   8   8  -5  369.83   12.84
  -7   8   5   94.03    6.31
   7  -8  -5   89.64    4.78
   7  -8  -5   89.52    4.93
  -7   8   5   81.90    4.68
  -7  -8   5   78.13    4.62
   7   8  -5   83.44    4.87
  -6   8   5  330.38   11.41
   6  -8  -5  324.35   11.27
   6  -8  -5  333.18   11.89
  -6  -8   5  347.06   12.10
  -6   8   5  318.49   11.17
   6   8  -5  319.25   11.63
  -5   8   5   68.52    4.48
   5  -8  -5   63.62    4.29
  -5  -8   5   70.40    4.47
   5  -8  -5   72.85    4.69
  -5  -8   5   73.08    4.87
  -5   8   5   68.85    4.42
   5   8  -5   68.03    4.90
  -4   8   5  251.30   12.34
   4  -8  -5  251.97    9.03
  -4  -8   5  260.61    9.93
   4  -8  -5  259.52    9.66
  -4  -8   5  262.99    9.57
  -4   8   5  255.99    9.25
   4   8  -5  242.82    9.54
  -3  -8   5  145.41    6.17
  -3   8   5  159.93    8.61
   3  -8  -5  160.21    6.66
  -3  -8   5  174.20    7.01
   3  -8  -5  163.83    7.21
  -3  -8   5  168.93    7.09
   3   8  -5  165.72    7.31
  -3   8   5  174.65    7.07
  -2  -8   5  164.12    6.68
  -2   8   5  167.29    9.02
   2  -8  -5  165.91    6.71
  -2  -8   5  162.45    6.72
  -2  -8   5  162.78    6.98
   2  -8  -5  161.17    7.17
   2   8  -5  154.40    6.85
  -2   8   5  163.67    6.86
  -1  -8   5   28.93    2.81
  -1   8   5   28.58    9.36
   1  -8  -5   29.66    2.92
  -1  -8   5   24.89    2.44
  -1  -8   5   24.73    2.78
   1  -8  -5   24.04    2.86
   1   8  -5   25.05    3.22
  -1   8   5   26.14    2.78
   0  -8   5  132.06    5.94
   0   8   5  131.43    5.94
   0  -8  -5  132.48    5.90
   0  -8   5  126.45    4.97
   0  -8   5  121.55    6.47
   0   8  -5  120.80    6.65
   0  -8  -5  126.77    5.24
   0   8   5  126.47    5.28
   1  -8   5   12.96    2.25
  -1  -8  -5   12.33    2.37
   1  -8   5   12.40    2.17
   1  -8   5   10.45    2.32
  -1   8  -5   12.73    2.69
  -1  -8  -5   12.59    2.49
   1   8   5   12.76    2.39
   2  -8   5   99.74    5.45
   2   8   5   94.85    5.74
  -2  -8  -5   98.71    5.69
   2  -8   5   91.78    5.30
   2  -8   5   92.82    5.55
  -2   8  -5   89.16    5.38
  -2  -8  -5   83.22    5.26
   2   8   5   90.39    5.26
   3  -8   5   74.38    4.15
   3   8   5   68.09    6.39
   3  -8   5   70.89    4.25
  -3  -8  -5   68.34    4.16
   3  -8   5   70.00    4.33
  -3   8  -5   67.14    4.45
  -3  -8  -5   68.55    4.42
   4   8   5  249.18   11.65
   4  -8   5  239.78    9.15
  -4   8  -5  239.92    9.02
  -4  -8  -5  244.18    9.20
   4  -8   5  237.23    9.18
  -4  -8  -5  238.12   10.31
   5   8   5   48.97    8.36
   5  -8   5   51.32    4.12
  -5   8  -5   35.79    3.00
  -5  -8  -5   45.24    3.81
   5  -8   5   44.16    4.03
  -5  -8  -5   36.34    3.25
   6   8   5  117.94    6.80
   6  -8   5  123.86    7.29
  -6   8  -5   99.78    6.14
  -6  -8  -5  118.69    6.94
   6  -8   5  119.26    7.18
  -6  -8  -5   96.26    6.19
   7   8   5    2.66    3.91
   7  -8   5    4.80    2.03
  -7   8  -5    1.62    1.91
   7  -8   5    3.55    2.37
  -7  -8  -5    3.55    2.52
   8  -8   5  216.62    7.89
  -8   8  -5  201.83    7.66
   8  -8   5  217.97    8.13
  -8  -8  -5  200.89    7.70
   9  -8   5    1.16    2.61
   9  -8   5    1.05    2.21
  -9  -8  -5    2.73    2.15
  10  -8   5  156.72    5.92
  10  -8   5  158.85    6.06
 -10  -8  -5  158.06    6.15
  11   8   5   32.02    2.87
  11  -8   5   25.68    2.93
  11  -8   5   31.61    3.81
 -11  -8  -5   32.83    3.37
  12   8   5   81.64    5.38
  12  -8   5   83.22    5.64
  12  -8   5   54.51    4.66
 -12  -8  -5   60.40    4.71
  13   8   5    0.06    2.28
  13  -8   5    0.22    2.14
  13  -8   5    2.20    3.08
 -13  -8  -5    2.03    2.60
  14   8   5   36.57    3.45
  14  -8   5   36.02    3.54
  14  -8   5   28.57    3.67
 -14  -8  -5   31.03    3.58
  15   8   5   -0.31    2.54
  15  -8   5    0.16    2.31
 -15  -8  -5    0.10    2.75
  16   8   5   34.91    3.57
  16  -8   5   25.62    3.49
 -16  -8  -5   28.94    3.59
  17   8   5   -0.11    2.68
  17  -8   5   -1.53    3.01
 -17  -8  -5    1.41    2.85
  18   8   5   33.63    3.64
  18  -8   5   20.27    3.54
 -18  -8  -5   27.49    3.80
  19   8   5    0.99    2.93
  19  -8   5    0.19    3.80
 -19  -8  -5    3.19    3.35
  22   9  -5   37.64    3.80
  22  -9  -5   32.87    3.94
 -22  -9   5   28.50    3.97
  21   9  -5    6.60    2.57
  21  -9  -5    7.29    3.26
 -21  -9   5    9.33    3.00
  20   9  -5   72.73    4.33
  20  -9  -5   70.22    4.70
 -20  -9   5   67.54    4.51
  19   9  -5    0.61    2.58
  19  -9  -5   -0.85    3.53
 -19  -9   5   -0.57    2.93
  18   9  -5  113.61    6.08
  18  -9  -5  108.56    6.34
 -18  -9   5  109.09    6.35
  17   9  -5    3.27    2.34
  17  -9  -5    2.24    2.75
 -17  -9   5    4.98    3.53
  16   9  -5  132.51    5.28
  16  -9  -5  133.60    5.64
 -16  -9   5  134.89    5.65
  15   9  -5    5.56    2.53
  15  -9  -5   10.94    2.59
 -15  -9   5    8.09    6.46
  14   9  -5  205.83    6.90
  14  -9  -5  187.17    7.20
 -14  -9   5  188.24    6.77
  13   9  -5   16.44    2.54
  13  -9  -5   13.58    2.69
 -13  -9   5   17.64    2.86
  12   9  -5  176.99    5.72
  12  -9  -5  159.63    6.78
 -12   9   5  161.21    6.34
 -12  -9   5  167.30    5.75
  11   9  -5    3.05    1.98
  11  -9  -5    3.74    2.47
 -11   9   5    2.76    2.18
 -11  -9   5    2.14    2.53
  10   9  -5  153.65    6.10
 -10   9   5  152.56    6.11
  10  -9  -5  140.32    6.15
 -10   9   5  141.09    5.96
 -10  -9   5  149.88    6.29
   9   9  -5    9.69    3.33
  -9   9   5   10.71    2.31
   9  -9  -5   14.51    2.51
   9  -9  -5   11.80    2.52
  -9   9   5   13.23    2.65
  -9  -9   5   15.30    2.77
  -8   9   5   41.66    3.12
   8  -9  -5   37.31    3.35
   8  -9  -5   40.72    3.43
  -8   9   5   26.80    3.09
  -8  -9   5   27.39    3.04
  -7   9   5   17.30    2.44
   7  -9  -5   14.20    2.49
   7  -9  -5   18.38    2.56
  -7  -9   5   23.84    2.98
  -7   9   5   27.09    2.93
  -6   9   5  178.03    7.37
   6  -9  -5  181.50    7.49
  -6  -9   5  169.08    7.02
   6  -9  -5  173.80    7.62
  -6  -9   5  162.69    7.14
  -6   9   5  161.38    6.86
  -5   9   5   47.38    6.98
   5  -9  -5   46.46    3.29
  -5  -9   5   51.13    3.32
   5  -9  -5   54.91    3.83
  -5  -9   5   53.24    3.77
  -5   9   5   50.66    3.52
   5   9  -5   51.37    3.77
  -4   9   5  236.66    8.91
   4  -9  -5  245.97    9.10
  -4  -9   5  209.70    8.14
   4  -9  -5  190.65    8.07
  -4  -9   5  217.13    8.71
  -4   9   5  215.63    8.39
   4   9  -5  200.05    8.76
  -3   9   5   11.75    2.16
   3  -9  -5    8.78    2.27
  -3  -9   5   15.98    2.38
   3  -9  -5   15.61    2.81
  -3  -9   5   13.61    2.42
   3   9  -5   14.29    2.71
  -3   9   5   15.90    2.49
  -2   9   5  205.92    8.07
  -2  -9   5  166.18    7.05
  -2  -9   5  188.19    7.78
   2  -9  -5  181.87    7.83
   2   9  -5  178.13    7.74
  -2   9   5  173.88    7.23
  -1   9   5    4.03    1.92
   1  -9  -5    3.25    1.93
  -1  -9   5    5.44    1.79
  -1  -9   5    6.76    2.22
   1  -9  -5    6.62    2.28
   1   9  -5    7.81    2.86
  -1   9   5    7.50    2.11
   0   9   5   76.58    9.49
   0  -9   5   61.02    3.92
   0  -9   5   57.59    3.76
   0  -9  -5   58.39    3.73
   0   9  -5   50.84    3.66
   0   9   5   67.49    4.14
   1   9   5   54.36    3.52
  -1  -9  -5   47.82    3.30
   1  -9   5   61.08    4.01
   1  -9   5   69.29    4.39
  -1  -9  -5   67.76    4.41
   1   9   5   63.67    4.12
   2  -9   5    0.51    1.80
   2  -9   5    1.28    2.08
   2  -9   5    1.43    1.98
  -2  -9  -5    1.02    2.00
   2   9   5    1.94    2.02
   3   9   5  131.58    6.10
   3  -9   5  143.87    6.38
   3  -9   5  159.35    7.04
  -3  -9  -5  163.60    7.15
   3   9   5  171.62    7.23
   4  -9   5   14.14    2.27
   4  -9   5    6.83    2.27
  -4  -9  -5    5.70    2.48
   4  -9   5    4.61    2.46
  -4  -9  -5    3.67    2.53
   5  -9   5   99.77    4.35
   5   9   5  109.57    4.79
   5  -9   5  102.55    4.77
  -5  -9  -5  107.02    4.69
   5  -9   5  115.44    4.93
  -5  -9  -5  126.74    5.34
   6  -9   5    0.38    1.91
   6   9   5    0.09    1.62
   6  -9   5    0.58    1.75
   6  -9   5    0.97    2.73
  -6  -9  -5    2.45    2.32
   7   9   5   37.92    3.23
   7  -9   5   34.69    3.40
   7  -9   5   35.08    3.03
  -7  -9  -5   45.03    4.78
   8   9   5   -0.12    2.28
   8  -9   5    1.32    2.39
   8  -9   5    1.55    2.35
  -8  -9  -5    1.23    2.16
   9  -9   5   11.92    2.63
   9  -9   5   14.46    2.86
  -9  -9  -5   20.20    3.08
  10  -9   5   25.06    2.96
  10  -9   5   19.90    3.28
 -10  -9  -5   15.30    3.10
  11  -9   5   54.52    4.28
  11  -9   5   72.53    5.40
 -11  -9  -5   76.34    5.38
  12   9   5    4.45    2.58
  12  -9   5    3.28    2.27
  12  -9   5    7.57    2.65
 -12  -9  -5   10.17    2.86
  13   9   5   82.99    4.42
  13  -9   5   83.52    4.37
  13  -9   5  101.60    5.56
 -13  -9  -5   96.17    5.47
  14   9   5   -0.54    2.51
  14  -9   5    1.18    2.47
 -14  -9  -5    0.13    2.99
  15   9   5   56.94    4.12
  15  -9   5   62.42    4.89
 -15  -9  -5   65.67    4.70
  16   9   5    4.70    2.84
  16  -9   5    8.31    3.16
 -16  -9  -5    8.55    3.71
  17   9   5   60.98    4.62
  17  -9   5   68.24    4.71
 -17  -9  -5   68.08    4.80
  18   9   5    0.74    2.86
  18  -9   5    2.23    3.07
 -18  -9  -5    1.12    3.13
  21  10  -5    0.93    3.12
  21 -10  -5    0.01    2.82
 -21 -10   5    1.85    3.28
  20  10  -5    2.26    2.66
  20 -10  -5    0.62    2.64
 -20 -10   5    1.58    2.84
  19  10  -5    3.71    2.57
  19 -10  -5    4.15    2.78
 -19 -10   5    1.96    2.89
  18  10  -5    3.03    2.79
  18 -10  -5    0.80    2.56
 -18 -10   5    1.90    3.01
  17  10  -5    4.98    2.77
  17 -10  -5    3.06    2.91
 -17 -10   5    1.80    2.99
  16  10  -5    5.55    2.88
  16 -10  -5    3.42    2.69
 -16 -10   5    2.37    2.77
  15  10  -5   -1.31    2.61
  15 -10  -5    0.18    2.76
 -15 -10   5   -0.01    2.67
  14  10  -5    4.26    2.57
  14 -10  -5    6.41    2.74
 -14 -10   5    3.72    2.88
  13  10  -5    0.53    2.46
  13 -10  -5    0.12    2.45
 -13 -10   5    0.88    2.73
  12  10  -5   12.48    2.54
  12 -10  -5   12.09    2.65
 -12 -10   5   12.69    2.88
  11  10  -5   12.43    2.42
  11 -10  -5   13.70    2.57
 -11  10   5   12.83    2.78
 -11 -10   5   15.34    2.96
  10  10  -5   26.23    3.16
  10 -10  -5   26.04    3.42
 -10  10   5   28.78    3.78
 -10 -10   5   29.99    3.90
  -9  10   5    0.33    2.12
   9 -10  -5    0.11    1.92
  -9  10   5    1.76    2.45
  -9 -10   5    2.08    2.52
  -8  10   5  136.42    6.42
   8 -10  -5  129.41    5.20
   8 -10  -5  140.57    6.94
  -8 -10   5  153.73    7.23
  -8  10   5  154.04    7.13
  -7  10   5    3.45    1.86
   7 -10  -5    3.53    1.98
   7 -10  -5    5.76    2.34
  -7 -10   5    7.66    2.44
  -7  10   5    7.11    2.51
  -6  10   5   18.17    2.64
   6 -10  -5   18.18    2.55
  -6 -10   5   19.86    2.48
   6 -10  -5   19.26    2.68
  -6 -10   5   20.35    2.88
  -6  10   5   18.59    2.56
  -5  10   5   33.31    2.99
   5 -10  -5   32.45    3.13
  -5 -10   5   35.90    3.10
   5 -10  -5   39.88    3.49
  -5 -10   5   39.59    3.45
  -5  10   5   35.57    3.03
  -4  10   5   36.64    3.14
   4 -10  -5   34.98    2.92
  -4 -10   5   42.58    3.14
   4 -10  -5   42.59    3.44
  -4 -10   5   42.56    3.48
  -4  10   5   42.49    3.15
  -3  10   5   37.41    6.69
   3 -10  -5   35.17    3.05
  -3 -10   5   46.25    3.77
   3 -10  -5   46.04    4.38
  -3 -10   5   43.91    4.04
  -3  10   5   45.68    3.87
  -2  10   5   67.08    4.71
   2 -10  -5   64.87    4.54
  -2 -10   5   76.35    5.08
  -2 -10   5   76.24    5.26
   2 -10  -5   69.64    5.07
  -2  10   5   75.30    5.12
  -1  10   5   25.38    2.80
   1 -10  -5   25.05    2.69
  -1 -10   5   25.82    2.76
  -1 -10   5   27.96    3.04
   1 -10  -5   26.69    3.13
  -1  10   5   26.48    2.93
   0  10   5   94.54    5.94
   0 -10  -5   97.46    5.93
   0 -10   5   97.09    6.02
   0 -10   5  100.34    6.33
   0 -10  -5   92.63    6.13
   0  10   5   93.52    5.99
   1  10   5    9.40    2.24
   1 -10   5   12.35    2.50
   1 -10   5   15.84    2.64
  -1 -10  -5   15.22    2.66
   1  10   5   13.24    2.43
   2  10   5  145.90    7.63
   2 -10   5  145.24    6.46
   2 -10   5  138.29    6.36
  -2 -10  -5  133.20    6.31
   2  10   5  140.53    6.39
   3  10   5   43.05    5.49
   3 -10   5   48.02    3.43
   3 -10   5   50.01    3.73
  -3 -10  -5   49.19    3.56
   3  10   5   46.62    3.52
   4  10   5  100.35    5.44
   4 -10   5   94.51    4.47
   4 -10   5  102.42    5.03
  -4 -10  -5   96.83    4.73
   5  10   5   14.45    2.98
   5 -10   5   13.81    2.96
   5 -10   5   17.68    2.67
  -5 -10  -5   15.66    2.79
   6  10   5   18.51    2.74
   6 -10   5   21.00    2.76
   6 -10   5   17.96    2.84
  -6 -10  -5   17.88    2.85
   7  10   5   22.18    2.74
   7 -10   5   23.58    2.90
   7 -10   5   21.83    3.12
  -7 -10  -5   21.38    3.21
   8  10   5    1.45    2.19
   8 -10   5    0.56    2.09
   8 -10   5   -0.35    2.37
  -8 -10  -5    0.35    2.25
   9  10   5   14.35    3.77
   9 -10   5   16.86    2.87
   9 -10   5   14.97    3.17
  -9 -10  -5   11.25    2.99
  10 -10   5   56.09    4.39
  10 -10   5   51.19    3.87
 -10 -10  -5   48.38    3.69
  11 -10   5   24.18    2.99
  11 -10   5   20.48    2.75
 -11 -10  -5   15.69    2.98
  12 -10   5   48.38    4.44
  12 -10   5   42.13    4.22
 -12 -10  -5   40.39    4.09
  13  10   5    1.81    2.32
  13 -10   5    3.20    3.22
 -13 -10  -5    7.41    2.93
  14  10   5   22.22    3.34
  14 -10   5   13.13    3.16
 -14 -10  -5   13.14    2.90
  15  10   5    3.43    2.68
  15 -10   5    2.03    2.79
 -15 -10  -5    0.62    3.05
  16  10   5    0.09    2.78
  16 -10   5    1.98    2.88
 -16 -10  -5   -1.12    2.99
  17  10   5    0.66    3.15
  17 -10   5   -1.43    3.71
 -17 -10  -5    0.64    3.50
  18  10   5    2.11    2.83
  18 -10   5   -0.60    3.49
 -18 -10  -5    0.97    3.58
  20  11  -5    6.42    2.90
  20 -11  -5    4.18    3.02
 -20 -11   5    8.09    3.36
  19  11  -5   10.34    3.01
  19 -11  -5   11.87    2.91
 -19 -11   5   13.93    3.31
  18  11  -5   15.76    2.86
  18 -11  -5   13.57    3.36
 -18 -11   5   14.78    3.22
  17  11  -5   12.62    2.79
  17 -11  -5   14.84    2.94
 -17 -11   5   11.69    3.07
  16  11  -5    5.50    2.58
  16 -11  -5    6.60    2.71
 -16 -11   5    3.88    2.92
  15  11  -5    2.91    2.45
  15 -11  -5    5.87    3.04
 -15 -11   5    4.43    3.40
  14  11  -5   -0.16    2.51
  14 -11  -5   -0.68    2.20
 -14 -11   5    0.80    2.70
  13  11  -5   -2.00    2.51
  13 -11  -5    0.30    2.46
 -13 -11   5   -0.38    2.41
  12  11  -5    2.87    1.79
  12 -11  -5    3.65    2.36
 -12 -11   5    1.94    2.56
  11  11  -5    3.78    2.05
  11 -11  -5    2.08    2.57
 -11 -11   5    1.64    2.69
  10 -11  -5    0.74    2.20
 -10 -11   5    0.68    2.39
  -9  11   5   70.15    5.60
   9 -11  -5   76.38    6.32
  -9  11   5   82.89    6.48
  -9 -11   5   82.02    6.44
  -8  11   5   11.13    2.45
   8 -11  -5   10.70    2.67
  -8  11   5   10.41    2.67
  -8 -11   5   11.16    2.92
  -7  11   5   16.49    2.45
   7 -11  -5   21.99    2.81
  -7 -11   5   18.60    2.59
  -7  11   5   20.92    3.02
  -6  11   5   22.01    2.53
   6 -11  -5   20.31    2.61
  -6 -11   5   23.98    2.46
   6 -11  -5   26.78    3.01
  -6 -11   5   25.17    3.17
  -6  11   5   24.35    3.07
  -5  11   5   77.92    4.06
   5 -11  -5   77.13    4.06
  -5 -11   5   73.78    3.92
   5 -11  -5   75.53    4.37
  -5 -11   5   76.11    4.40
  -5  11   5   72.25    4.09
  -4  11   5    0.07    1.74
   4 -11  -5   -0.53    1.93
  -4 -11   5    0.52    1.91
   4 -11  -5    1.60    2.64
  -4 -11   5    0.40    2.32
  -4  11   5    0.35    2.20
  -3  11   5   33.40    2.87
   3 -11  -5   33.00    2.90
  -3 -11   5   36.69    3.05
   3 -11  -5   33.15    3.35
  -3 -11   5   34.49    3.49
  -3  11   5   34.13    3.02
  -2  11   5    0.24    2.11
   2 -11  -5    0.28    1.90
  -2 -11   5    1.64    2.09
  -2 -11   5    1.78    2.43
   2 -11  -5   -0.28    1.94
  -2  11   5   -0.59    1.89
  -1  11   5   17.84    3.09
   1 -11  -5   16.75    2.47
  -1 -11   5   21.71    2.65
  -1 -11   5   20.05    2.78
   1 -11  -5   19.12    3.00
  -1  11   5   19.67    2.94
   0  11   5    4.84    2.09
   0 -11   5    5.46    1.96
   0 -11   5    7.96    2.41
   0 -11  -5    4.84    2.46
   0  11   5    5.77    2.18
   1  11   5   45.37    3.38
   1 -11   5   36.54    3.08
   1 -11   5   37.35    3.32
  -1 -11  -5   40.26    3.44
   1  11   5   42.23    3.51
   2  11   5    3.08    2.14
   2 -11   5    4.94    2.26
   2 -11   5    5.14    2.52
  -2 -11  -5    8.18    2.67
   2  11   5    3.55    2.64
   3  11   5   27.21    3.24
   3 -11   5   27.67    2.93
   3 -11   5   24.60    2.95
  -3 -11  -5   26.27    3.02
   4  11   5    2.92    3.21
   4 -11   5    2.49    1.91
   4 -11   5    3.72    2.62
  -4 -11  -5    5.03    2.19
   5  11   5   15.90    2.66
   5 -11   5   19.90    2.69
   5 -11   5   18.50    2.90
  -5 -11  -5   20.62    2.97
   6  11   5    4.87    3.33
   6 -11   5    4.09    2.14
   6 -11   5    7.58    2.25
  -6 -11  -5    7.04    2.47
   7  11   5   12.56    3.28
   7 -11   5   12.87    2.58
   7 -11   5   12.45    2.77
  -7 -11  -5   11.59    2.84
   8  11   5   14.45    2.70
   8 -11   5    9.57    2.60
   8 -11   5   13.51    2.77
  -8 -11  -5   16.00    2.96
   9  11   5    2.59    2.33
   9 -11   5    3.75    2.54
   9 -11   5    3.70    2.46
  -9 -11  -5    2.85    2.50
  10  11   5   23.10    3.07
  10 -11   5   17.62    3.14
  10 -11   5   20.32    2.77
 -10 -11  -5   22.01    3.23
  11 -11   5    0.18    2.61
  11 -11   5    0.23    2.63
 -11 -11  -5   -0.46    2.92
  12 -11   5    0.77    2.61
 -12 -11  -5    1.83    2.71
  13 -11   5    4.49    2.93
 -13 -11  -5    5.49    3.29
  14  11   5   18.18    3.04
  14 -11   5   18.25    3.46
 -14 -11  -5   23.64    3.50
  15  11   5    1.82    3.01
  15 -11   5    5.52    3.57
 -15 -11  -5    4.28    3.22
  16  11   5    4.38    3.01
  16 -11   5    7.01    3.47
 -16 -11  -5    4.49    3.65
  17  11   5    1.93    3.23
  17 -11   5    2.68    3.69
 -17 -11  -5    2.70    3.29
  19  12  -5    9.03    2.95
  19 -12  -5   12.19    3.09
 -19 -12   5   11.76    3.87
  18  12  -5   74.33    4.63
  18 -12  -5   88.89    5.20
 -18 -12   5   86.25    4.82
  17  12  -5    0.44    2.69
  17 -12  -5    2.33    3.29
  16  12  -5   29.87    3.52
  16 -12  -5   43.07    4.08
 -16 -12   5   39.24    3.84
  15  12  -5   -0.67    2.57
  15 -12  -5   -0.72    2.61
 -15 -12   5    0.25    3.16
  14  12  -5   29.92    3.08
  14 -12  -5   37.96    3.75
 -14 -12   5   34.86    3.46
  13  12  -5    2.09    1.95
  13 -12  -5    3.68    3.50
 -13 -12   5    4.26    3.36
  12  12  -5   42.02    4.01
  12 -12  -5   40.30    4.30
 -12 -12   5   45.57    4.33
  11 -12  -5   19.61    3.05
 -11 -12   5   17.16    2.85
  10 -12  -5  116.87    6.19
 -10 -12   5  115.39    5.93
   9 -12  -5   11.06    2.85
  -9 -12   5    9.83    2.70
   8  12  -5  406.16   10.81
  -8  12   5  409.39   10.58
   8 -12  -5  412.73    9.36
  -8 -12   5  420.44    8.97
  -7  12   5    6.83    2.22
   7 -12  -5    5.86    2.43
  -7 -12   5    7.28    2.57
  -6  12   5   14.50    2.53
  -6 -12   5   17.77    2.46
   6 -12  -5   15.75    2.74
  -6 -12   5   18.76    2.99
  -6  12   5   15.15    2.79
  -5  12   5   34.60    3.60
  -5 -12   5   28.72    3.36
   5 -12  -5   27.94    3.57
  -5 -12   5   33.07    3.75
  -5  12   5   31.50    3.64
  -4  12   5   48.45    4.71
   4 -12  -5   45.23    4.66
  -4 -12   5   44.95    4.58
   4 -12  -5   45.61    4.98
  -4 -12   5   47.62    4.87
  -4  12   5   47.21    4.73
  -3  12   5    6.38    2.08
   3 -12  -5    7.75    2.31
  -3 -12   5    2.06    2.22
   3 -12  -5    4.88    2.59
  -3 -12   5    4.99    2.42
  -3  12   5    4.00    2.27
  -2  12   5   12.85    2.27
   2 -12  -5   13.72    2.35
  -2 -12   5   12.22    2.47
  -2 -12   5   12.57    2.48
   2 -12  -5   12.95    2.69
  -2  12   5   11.95    2.53
  -1  12   5   -1.28    1.88
  -1 -12   5    1.12    2.12
  -1 -12   5   -0.56    2.39
   1 -12  -5    0.75    2.21
  -1  12   5    0.70    2.22
   0  12   5   36.63    3.00
   0 -12   5   35.70    3.22
   0 -12   5   36.80    3.43
   0 -12  -5   35.83    3.53
   0  12   5   35.02    3.30
   1  12   5    0.02    1.89
   1 -12   5    1.42    2.49
   1 -12   5    0.34    2.75
  -1 -12  -5    0.56    2.34
   2  12   5   65.85    5.36
   2 -12   5   62.12    5.19
   2 -12   5   57.87    3.84
  -2 -12  -5   62.37    5.38
   3  12   5    0.07    2.19
   3 -12   5   -0.85    1.97
   3 -12   5    1.53    2.33
  -3 -12  -5    0.22    2.73
   4  12   5   23.44    2.85
   4 -12   5   20.68    2.73
   4 -12   5   19.55    2.98
  -4 -12  -5   15.17    2.87
   5  12   5    0.77    1.89
   5 -12   5    1.41    2.32
   5 -12   5    2.26    2.45
  -5 -12  -5    1.36    2.71
   6  12   5    1.71    2.09
   6 -12   5    3.30    2.44
   6 -12   5    1.69    2.41
  -6 -12  -5    2.02    2.25
   7  12   5   -0.25    2.33
   7 -12   5   -0.94    2.52
   7 -12   5   -2.46    2.10
  -7 -12  -5   -1.43    2.35
   8  12   5    2.37    2.37
   8 -12   5    2.41    2.95
   8 -12   5   -0.60    2.40
  -8 -12  -5    0.84    2.25
   9  12   5    3.53    2.68
   9 -12   5    2.90    4.81
   9 -12   5    2.52    2.84
  -9 -12  -5    3.84    2.81
  10  12   5   60.45    3.93
  10 -12   5   60.11    4.06
  10 -12   5   55.45    3.92
 -10 -12  -5   65.62    4.37
  11  12   5    5.35    2.84
  11 -12   5    6.16    3.30
 -11 -12  -5    4.67    4.02
  12 -12   5   33.10    3.88
 -12 -12  -5   30.58    3.68
  13 -12   5    5.59    3.20
 -13 -12  -5    6.36    2.90
  14 -12   5    9.11    3.35
 -14 -12  -5   11.26    3.07
  15  12   5   -1.27    2.88
  15 -12   5    1.39    3.37
 -15 -12  -5    1.64    3.30
  16  12   5    1.12    2.68
  16 -12   5    1.27    3.83
 -16 -12  -5   -1.91    2.89
  19  13  -5    0.55    2.74
 -19 -13   5    2.81    3.23
  18  13  -5  107.49    5.13
  18 -13  -5  106.24    5.19
 -18 -13   5  109.38    5.14
  17  13  -5    0.99    2.63
  17 -13  -5    2.15    3.23
  16  13  -5  113.37    5.02
  16 -13  -5   99.03    5.26
 -16 -13   5   99.17    5.36
  15  13  -5   -1.83    2.45
  15 -13  -5    0.61    3.20
  14  13  -5  143.00    6.99
  14 -13  -5  139.58    7.22
 -14 -13   5  132.91    6.96
  13  13  -5    1.63    2.63
  13 -13  -5    1.41    2.80
  12 -13  -5  119.68    6.15
 -12 -13   5  114.98    5.82
  11 -13  -5   41.01    4.27
 -11 -13   5   37.71    4.07
  10 -13  -5  192.05    6.43
 -10 -13   5  177.96    6.13
   9 -13  -5   17.77    2.87
  -9 -13   5   18.69    2.96
   8  13  -5   10.19    3.20
   8 -13  -5    6.45    2.94
  -8 -13   5    2.57    2.56
  -7  13   5   59.44    4.19
   7 -13  -5   69.06    4.96
  -7 -13   5   69.56    4.95
  -6  13   5   24.42    2.75
  -6 -13   5   18.93    2.81
   6 -13  -5   20.66    3.24
  -6 -13   5   19.80    2.92
  -5  13   5   46.50    3.35
  -5 -13   5   55.10    4.32
   5 -13  -5   57.04    4.61
  -5 -13   5   55.68    4.37
  -4  13   5  209.98    6.94
  -4 -13   5  198.32    6.80
   4 -13  -5  189.57    7.14
  -4 -13   5  200.15    7.07
  -3  13   5   43.63    4.08
   3 -13  -5   43.21    4.04
  -3 -13   5   49.77    4.65
   3 -13  -5   52.39    5.03
  -3 -13   5   49.32    4.88
  -2  13   5   23.71    3.36
  -2 -13   5   21.42    2.71
   2 -13  -5   21.17    3.23
  -2 -13   5   22.23    2.92
  -1  13   5   43.22    5.29
  -1 -13   5   52.17    4.74
  -1 -13   5   53.53    4.83
   1 -13  -5   52.47    5.11
   0  13   5   37.23    4.01
   0 -13   5   33.73    3.08
   0 -13   5   34.03    3.41
   0 -13  -5   34.42    3.55
   1  13   5   53.75    4.20
   1 -13   5   55.12    4.14
   1 -13   5   59.10    4.58
  -1 -13  -5   59.31    4.55
   2  13   5   20.17    2.94
   2 -13   5   16.79    2.75
   2 -13   5   15.70    3.08
  -2 -13  -5   18.20    2.90
   3  13   5  145.70    5.96
   3 -13   5  148.35    5.89
   3 -13   5  157.67    6.31
  -3 -13  -5  160.25    6.44
   4  13   5    4.14    2.31
   4 -13   5    3.65    2.48
   4 -13   5    2.85    2.76
  -4 -13  -5    0.96    2.63
   5  13   5  109.57    6.18
   5 -13   5  110.25    5.72
   5 -13   5  119.75    6.07
  -5 -13  -5  122.79    6.24
   6  13   5   13.89    4.08
   6 -13   5   13.60    2.52
   6 -13   5   11.85    3.06
  -6 -13  -5    9.05    3.15
   7  13   5   24.57    3.21
   7 -13   5   22.83    3.71
   7 -13   5   28.16    3.38
  -7 -13  -5   28.61    3.37
   8  13   5   11.84    2.75
   8 -13   5   11.62    2.86
   8 -13   5    9.56    2.85
  -8 -13  -5   12.43    3.30
   9  13   5   45.12    3.40
   9 -13   5   48.11    3.62
   9 -13   5   47.41    3.80
  -9 -13  -5   48.09    3.78
  10  13   5   30.00    3.44
  10 -13   5   27.40    3.72
 -10 -13  -5   28.71    6.70
  11  13   5   37.40    3.91
  11 -13   5   40.43    3.89
 -11 -13  -5   43.08    3.91
  12  13   5    1.12    3.02
  12 -13   5    3.66    3.03
 -12 -13  -5   -2.18    4.49
  13 -13   5   33.45    4.15
 -13 -13  -5   37.86    3.78
  14 -13   5    0.53    3.96
 -14 -13  -5    2.31    3.65
  15 -13   5   33.69    4.27
 -15 -13  -5   34.38    3.99
  17  14  -5    2.60    2.45
  17 -14  -5    1.58    3.24
 -17 -14   5    1.96    3.86
  16  14  -5   78.80    4.68
  16 -14  -5   80.06    4.92
 -16 -14   5   88.62    4.71
  15  14  -5    0.29    2.81
  15 -14  -5    0.65    3.26
  14  14  -5   66.11    4.16
  14 -14  -5   70.84    4.61
 -14 -14   5   64.98    4.22
  13 -14  -5    4.82    2.92
  12 -14  -5   63.38    4.45
 -12 -14   5   63.98    4.17
  11 -14  -5    0.10    2.92
 -11 -14   5    0.69    2.59
  10  14  -5  105.69    5.42
  10 -14  -5  111.86    6.08
 -10 -14   5  120.99    5.92
   9  14  -5   18.12    3.14
   9 -14  -5   17.31    3.21
  -9 -14   5   21.96    3.22
   8  14  -5    9.25    2.59
   8 -14  -5    9.43    2.78
  -8 -14   5    7.68    2.62
   7 -14  -5   52.32    3.90
  -7 -14   5   51.62    3.97
  -6  14   5  102.13    6.11
  -6 -14   5  101.65    7.75
   6 -14  -5  101.49    6.57
  -6 -14   5  101.37    6.34
  -5  14   5   37.81    3.18
  -5 -14   5   39.40    3.06
   5 -14  -5   40.09    3.82
  -5 -14   5   37.96    3.61
  -4  14   5   51.90    3.54
   4 -14  -5   58.42    4.72
  -4 -14   5   52.65    3.88
  -3  14   5   18.21    2.50
  -3 -14   5   18.68    2.94
   3 -14  -5   19.62    3.05
  -3 -14   5   18.23    3.17
  -2  14   5  106.99    5.38
  -2 -14   5  103.83    6.17
   2 -14  -5  101.17    6.41
  -2 -14   5  109.40    5.84
  -1  14   5   23.39    5.24
  -1 -14   5   25.96    2.92
  -1 -14   5   28.98    3.21
   1 -14  -5   25.32    3.07
   0  14   5   44.12    4.60
   0 -14   5   37.04    3.24
   0 -14   5   36.70    3.46
   0 -14  -5   40.83    3.87
   1  14   5   33.75    3.02
   1 -14   5   37.19    3.41
   1 -14   5   35.27    3.32
  -1 -14  -5   34.51    3.60
   2  14   5   14.78    2.75
   2 -14   5   12.47    2.47
   2 -14   5   11.98    2.79
  -2 -14  -5   10.30    2.88
   3  14   5   23.31    2.90
   3 -14   5   24.64    3.07
   3 -14   5   24.59    3.28
  -3 -14  -5   24.29    3.39
   4  14   5   70.09    6.17
   4 -14   5   63.30    5.77
   4 -14   5   63.57    6.13
  -4 -14  -5   69.54    6.43
   5  14   5    6.16    2.45
   5 -14   5    5.82    2.71
   5 -14   5    8.16    2.80
  -5 -14  -5    7.21    2.75
   6  14   5   87.49    4.39
   6 -14   5   85.45    4.38
   6 -14   5   83.93    7.46
  -6 -14  -5   83.13    4.76
   7  14   5   22.94    3.64
   7 -14   5   25.24    2.93
   7 -14   5   22.85    3.47
  -7 -14  -5   23.99    3.43
   8  14   5   18.53    3.00
   8 -14   5   17.20    2.84
   8 -14   5   17.49    3.36
  -8 -14  -5   16.09    3.05
   9  14   5    6.72    2.67
   9 -14   5    9.84    3.35
  -9 -14  -5    8.16    3.17
  10  14   5    6.79    3.38
  10 -14   5    4.91    2.89
 -10 -14  -5    3.20    3.14
  11  14   5    5.63    2.93
  11 -14   5    5.40    3.16
 -11 -14  -5    6.81    4.64
  12  14   5   38.83    3.56
  12 -14   5   38.49    3.91
 -12 -14  -5   30.68    3.65
  13  14   5    1.75    2.96
  13 -14   5    3.38    3.61
 -13 -14  -5    0.45    3.02
  14 -14   5   14.03    3.46
 -14 -14  -5   12.76    3.79
  16  15  -5   51.87    4.02
 -16 -15   5   45.47    5.26
  15  15  -5   -0.38    2.99
  15 -15  -5    1.49    3.36
  14 -15  -5   -2.35    2.69
 -14 -15   5    1.17    3.46
  13 -15  -5    1.95    3.07
 -13 -15   5    2.82    2.89
  12 -15  -5   47.31    3.85
 -12 -15   5   41.02    3.93
  11 -15  -5   -0.05    2.61
 -11 -15   5    0.03    4.07
  10  15  -5   39.72    3.49
  10 -15  -5   39.60    3.80
 -10 -15   5   33.63    3.66
   9  15  -5    0.34    2.61
   9 -15  -5   -0.03    2.91
  -9 -15   5   -0.54    2.68
   8  15  -5   52.97    3.72
   8 -15  -5   53.13    4.06
  -8 -15   5   50.85    3.97
  -7 -15   5    3.49    2.83
   7 -15  -5    2.42    2.55
  -7 -15   5    1.36    2.69
  -6 -15   5   21.96    2.84
   6 -15  -5   26.16    3.40
  -6 -15   5   26.45    3.38
  -5  15   5    0.99    2.20
  -5 -15   5    0.44    2.21
   5 -15  -5    3.28    2.69
  -5 -15   5    1.10    2.86
  -4  15   5   17.00    2.72
  -4 -15   5   13.83    2.85
   4 -15  -5   11.97    2.93
  -4 -15   5   14.40    2.87
  -3  15   5   26.35    2.84
  -3 -15   5   26.16    3.07
   3 -15  -5   25.41    3.36
  -3 -15   5   25.01    3.27
  -2  15   5   15.92    2.59
  -2 -15   5    8.43    2.73
   2 -15  -5   12.39    3.06
  -2 -15   5    9.90    2.92
  -1  15   5   10.05    2.64
  -1 -15   5   12.29    2.46
  -1 -15   5   11.99    2.95
   1 -15  -5   10.98    2.89
   0  15   5    0.67    2.44
   0 -15   5    6.31    2.67
   0 -15   5    5.13    2.50
   0 -15  -5    6.05    2.77
   1  15   5    0.75    2.53
   1 -15   5    1.44    2.46
   1 -15   5    1.05    2.77
  -1 -15  -5   -0.19    2.73
   2  15   5    7.11    2.58
   2 -15   5    6.48    2.53
   2 -15   5    6.81    3.00
  -2 -15  -5    5.00    2.71
   3  15   5    0.34    2.36
   3 -15   5    1.54    2.36
   3 -15   5    1.38    3.09
  -3 -15  -5   -0.80    2.99
   4  15   5   14.18    2.79
   4 -15   5   10.31    2.65
   4 -15   5    9.52    3.26
  -4 -15  -5   12.06    3.03
   5  15   5    0.55    2.90
   5 -15   5    1.54    2.54
   5 -15   5    0.66    3.44
  -5 -15  -5    2.51    2.65
   6  15   5   14.89    3.04
   6 -15   5   14.23    2.77
   6 -15   5   20.51    3.29
  -6 -15  -5   25.44    3.62
   7  15   5   -0.24    2.81
   7 -15   5    1.76    2.88
   7 -15   5   -0.16    2.40
  -7 -15  -5    2.34    2.69
   8  15   5    0.77    2.55
   8 -15   5    0.80    3.49
  -8 -15  -5    1.32    2.64
   9  15   5    8.04    2.72
   9 -15   5   11.77    2.96
  -9 -15  -5   11.26    2.81
  10  15   5    4.37    2.79
  10 -15   5    4.88    3.57
 -10 -15  -5    6.09    3.34
  11  15   5   22.25    3.34
  11 -15   5   25.71    3.61
 -11 -15  -5   24.35    3.71
  12  15   5    0.15    2.83
  12 -15   5    0.26    3.59
 -12 -15  -5    1.16    3.00
  13  15   5    5.27    3.40
  13 -15   5    4.95    3.35
 -13 -15  -5    4.59    3.53
 -15 -16   5    4.65    3.13
  14 -16  -5   -0.24    3.20
 -14 -16   5   -0.77    3.67
  13 -16  -5    5.21    2.92
 -13 -16   5    4.48    3.16
  12  16  -5   18.02    3.24
  12 -16  -5   18.63    3.82
 -12 -16   5   17.06    3.23
  11  16  -5   12.23    2.78
  11 -16  -5   15.37    3.65
 -11 -16   5   13.87    3.45
  10  16  -5    2.54    2.71
  10 -16  -5    5.19    3.28
 -10 -16   5    3.65    3.00
   9  16  -5   18.66    3.07
   9 -16  -5   15.97    3.85
  -9 -16   5   14.92    3.45
   8 -16  -5    1.77    2.70
  -8 -16   5    0.26    2.70
  -7 -16   5    0.26    2.45
   7 -16  -5    0.90    3.19
  -7 -16   5    1.00    2.95
  -6 -16   5    1.24    2.27
   6 -16  -5    0.42    3.10
  -6 -16   5    1.70    3.09
  -5 -16   5   10.89    2.95
   5 -16  -5    8.62    2.92
  -5 -16   5    7.32    3.16
  -4  16   5    2.87    2.83
  -4 -16   5    5.79    2.77
   4 -16  -5    4.44    3.13
  -4 -16   5    6.50    3.11
  -3  16   5   13.94    2.82
  -3 -16   5   15.10    2.91
   3 -16  -5   13.27    3.25
  -3 -16   5   13.50    2.92
  -2  16   5    3.66    2.36
  -2 -16   5    3.68    2.28
   2 -16  -5    3.48    2.93
  -2 -16   5    0.41    2.73
  -1  16   5   25.49    3.00
  -1 -16   5   26.90    3.46
  -1 -16   5   27.75    3.47
   1 -16  -5   27.34    3.89
   0  16   5    5.75    2.87
   0 -16   5    4.82    2.33
   0 -16   5    5.49    2.54
   0 -16  -5    5.05    3.12
   1  16   5   33.62    3.47
   1 -16   5   35.74    3.46
   1 -16   5   39.48    3.69
  -1 -16  -5   36.25    3.95
   2  16   5    8.94    5.03
   2 -16   5   11.04    3.34
   2 -16   5    8.84    2.97
  -2 -16  -5   10.00    3.04
   3  16   5   21.86    3.32
   3 -16   5   24.33    3.39
   3 -16   5   25.95    3.38
  -3 -16  -5   24.65    3.53
   4  16   5    2.21    2.39
   4 -16   5    0.89    2.53
   4 -16   5    0.81    2.94
  -4 -16  -5    0.09    2.89
   5  16   5    7.90    2.90
   5 -16   5    7.42    2.85
   5 -16   5    7.23    3.13
  -5 -16  -5    7.44    3.05
   6  16   5   -0.57    2.42
   6 -16   5   -0.27    2.46
   6 -16   5    0.49    2.96
  -6 -16  -5    0.21    2.91
   7  16   5    4.16    2.78
   7 -16   5    5.56    3.41
  -7 -16  -5    6.61    3.14
   8  16   5   -0.88    2.93
   8 -16   5   -1.15    2.96
  -8 -16  -5   -0.81    3.01
   9  16   5   34.96    3.53
   9 -16   5   37.64    3.53
  -9 -16  -5   35.48    3.76
  10  16   5    0.01    2.90
  10 -16   5    1.52    3.13
  11  16   5    5.00    2.88
  11 -16   5    1.42    3.36
 -11 -16  -5    3.28    3.18
  13  17  -5    2.85    3.60
 -13 -17   5    6.46    3.45
  12  17  -5   27.16    3.43
  12 -17  -5   24.68    3.49
 -12 -17   5   29.40    3.99
  11  17  -5   -1.16    3.45
  11 -17  -5    1.53    3.14
 -11 -17   5    1.91    3.36
  10  17  -5   19.66    2.94
  10 -17  -5   17.66    3.31
 -10 -17   5   17.54    3.27
   9  17  -5   -2.02    2.59
   9 -17  -5    0.38    2.94
  -9 -17   5   -1.67    2.91
  -8 -17   5    2.26    2.88
   8 -17  -5    2.44    3.06
  -8 -17   5    3.30    3.29
  -7 -17   5    4.56    2.80
   7 -17  -5    3.70    3.18
  -7 -17   5    3.86    3.05
  -6 -17   5    4.19    5.36
   6 -17  -5    6.34    3.27
  -6 -17   5    4.35    3.04
  -5 -17   5   15.56    3.00
   5 -17  -5   16.91    3.36
  -5 -17   5   14.94    3.15
  -4 -17   5   37.12    3.42
   4 -17  -5   32.80    3.71
  -4 -17   5   35.60    3.73
  -3 -17   5   20.41    3.21
   3 -17  -5   16.45    3.39
  -3 -17   5   18.24    3.44
  -2  17   5   27.91    3.21
  -2 -17   5   28.68    3.50
   2 -17  -5   32.43    3.52
  -2 -17   5   32.42    3.84
  -1  17   5   15.10    3.02
  -1 -17   5   20.70    3.07
  -1 -17   5   22.72    3.48
   1 -17  -5   19.74    3.54
   0  17   5    9.31    3.06
   0 -17   5    5.59    3.12
   0 -17   5    3.14    2.92
   0 -17  -5    4.46    3.41
   1  17   5   22.04    3.51
   1 -17   5   27.72    3.17
   1 -17   5   28.29    3.83
  -1 -17  -5   26.65    3.45
   2  17   5   11.51    2.95
   2 -17   5   13.56    2.96
   2 -17   5   10.32    3.11
  -2 -17  -5   14.66    3.39
   3  17   5   15.78    3.44
   3 -17   5   20.76    3.29
   3 -17   5   20.00    3.79
  -3 -17  -5   20.77    3.47
   4  17   5   14.45    3.44
   4 -17   5   13.63    2.93
   4 -17   5   11.55    3.35
  -4 -17  -5   12.69    3.34
   5  17   5   10.27    3.24
   5 -17   5   15.97    3.41
  -5 -17  -5   16.92    3.40
   6  17   5    4.97    2.79
   6 -17   5    6.10    2.94
  -6 -17  -5    5.55    3.26
   7  17   5   26.91    3.45
   7 -17   5   26.20    3.78
  -7 -17  -5   31.57    3.70
   8  17   5   15.57    3.10
   8 -17   5   18.20    3.77
  -8 -17  -5   17.47    4.15
   9  17   5   20.65    3.30
   9 -17   5   23.29    3.87
  -9 -17  -5   24.62    3.55
  11  18  -5    6.57    3.14
 -11 -18   5    6.35    3.43
  10  18  -5   61.46    4.11
  10 -18  -5   63.77    4.64
 -10 -18   5   66.49    4.53
   9 -18  -5    0.42    3.11
  -9 -18   5    0.73    3.06
  -8 -18   5   71.96    4.26
   8 -18  -5   70.49    4.89
  -8 -18   5   69.77    4.46
   7 -18  -5    1.65    3.07
  -7 -18   5    2.98    2.96
  -6 -18   5   57.44    4.08
   6 -18  -5   58.25    4.81
  -6 -18   5   53.77    4.51
  -5 -18   5    0.67    4.59
   5 -18  -5   -1.28    3.34
  -5 -18   5   -2.27    3.25
  -4 -18   5   52.38    4.03
   4 -18  -5   50.58    4.12
  -4 -18   5   48.31    4.21
  -3 -18   5    0.16    2.95
   3 -18  -5    0.59    2.69
  -3 -18   5   -1.90    3.11
  -2 -18   5  116.49    5.04
   2 -18  -5  113.31    5.32
  -2 -18   5  114.27    5.38
  -1  18   5    1.37    2.51
  -1 -18   5    2.25    2.65
  -1 -18   5    1.56    2.81
   1 -18  -5    1.58    3.07
   0  18   5   21.30    3.10
   0 -18   5   19.52    3.29
   0 -18   5   14.18    3.46
   0 -18  -5   22.52    3.87
   1  18   5    0.64    4.06
   1 -18   5    0.08    2.74
   1 -18   5    0.61    2.98
  -1 -18  -5   -0.22    3.25
   2  18   5   35.98    3.80
   2 -18   5   33.22    3.86
   2 -18   5   34.87    4.13
  -2 -18  -5   33.70    3.67
   3  18   5   -0.25    3.63
   3 -18   5    0.86    2.66
   3 -18   5    0.88    2.85
  -3 -18  -5    0.45    3.02
   4  18   5   61.58    3.94
   4 -18   5   62.29    4.67
  -4 -18  -5   66.96    4.58
   5  18   5   -1.42    2.66
   5 -18   5   -1.43    2.88
  -5 -18  -5    0.14    3.35
   6  18   5   56.65    4.08
   6 -18   5   53.97    4.45
  -6 -18  -5   50.29    4.14
   7  18   5    0.93    3.73
   7 -18   5   -2.14    3.36
  -7 -18  -5   -0.04    3.03
   7 -19  -5   -0.66    3.37
  -7 -19   5   -2.49    3.38
  -6 -19   5   50.17    3.95
   6 -19  -5   56.71    4.62
  -6 -19   5   51.34    4.26
  -5 -19   5   -2.28    3.31
   5 -19  -5    1.00    3.06
  -5 -19   5    1.05    2.97
  -4 -19   5   17.69    3.42
   4 -19  -5   18.35    3.39
  -4 -19   5   20.70    3.86
  -3 -19   5    4.91    3.15
   3 -19  -5    5.86    3.21
  -3 -19   5    4.15    3.40
  -2 -19   5    4.77    3.03
  -2 -19   5    3.76    3.34
   2 -19  -5    3.43    3.18
  -1 -19   5    6.73    3.18
  -1 -19   5    6.04    3.38
   1 -19  -5    6.51    3.27
   0 -19   5   13.91    3.16
   0 -19   5   17.66    3.60
   0 -19  -5   17.26    3.42
   1  19   5   13.01    3.74
   1 -19   5   19.17    3.20
   1 -19   5   19.41    3.61
  -1 -19  -5   16.87    3.68
   2  19   5   14.69    2.94
   2 -19   5    5.65    3.33
  -2 -19  -5    9.75    3.50
   3 -19   5    6.93    3.64
  -3 -19  -5    4.80    3.29
   4  19   5   28.27    3.67
   4 -19   5   22.44    3.97
  -4 -19  -5   22.23    3.58
 -24   0   6   78.19    5.45
 -23   0   6   19.15    3.43
 -22   0   6  143.06    5.79
 -21   0   6    7.69    2.85
 -20   0   6  155.49    6.82
 -19   0   6    3.10    2.91
 -19   0   6    0.71    2.63
 -18   0   6  161.52    7.93
 -18   0   6  161.45    7.29
 -17   0   6   55.23   13.26
 -17   0   6   51.24    3.75
 -16   0   6  389.15    8.02
 -16   0   6  390.43    9.03
 -16   0   6  393.29   11.26
 -15   0   6    8.41    2.15
 -15   0   6   15.84    2.67
 -15   0   6   12.46    2.49
 -14   0   6  416.30   15.08
 -14   0   6  366.73   14.89
 -14   0   6  366.07   13.71
 -14   0   6  375.42   14.19
 -13   0   6   35.26    3.01
 -13   0   6   52.79   15.92
 -13   0   6   56.85    3.65
 -13   0   6   48.43    3.58
 -12   0   6  324.69   10.86
 -12   0   6  275.75    9.88
 -12   0   6  270.74    9.90
 -12   0   6  292.65   10.47
 -11   0   6    7.79    2.02
 -11   0   6   19.47    2.62
 -11   0   6   23.43    3.77
 -11   0   6   16.50    2.55
 -10   0   6  300.39   10.35
 -10   0   6  274.29    9.87
 -10   0   6  294.12   10.39
  -9   0   6   77.86    4.22
  -8   0   6  189.98    6.73
  -8   0   6  152.14    6.02
  -8   0   6  158.72    6.13
  -7   0   6  150.16    5.62
   7   0  -6  153.29    5.90
  -7   0   6  167.45    6.29
  -7   0   6  150.52    5.69
  -6   0   6  140.49    5.22
   6   0  -6  111.13    8.61
  -6   0   6  110.53   12.61
  -6   0   6  101.44    8.09
   5   0  -6  344.69    8.79
  -5   0   6  350.92    9.83
  -4   0   6   81.90    5.08
   4   0  -6   49.66    3.78
  -4   0   6   59.57    4.36
  -4   0   6   72.65    4.79
   3   0  -6  360.78   12.22
   3   0  -6  349.91   12.33
   2   0  -6  260.56    9.33
  -2   0   6  241.58   49.44
   2   0  -6  269.96   10.58
   1   0  -6  473.10   14.43
   1   0  -6  500.54   15.63
   0   0  -6  225.43    7.05
   0   0   6  192.34    6.79
   0   0  -6  237.83    7.41
   1   0   6 2553.71   38.98
  -1   0  -6 2604.75   22.09
   2   0   6    0.77    2.10
  -2   0  -6    1.18    1.94
   3   0   6   16.14    2.31
   3   0   6   32.21    3.93
  -3   0  -6   30.39    2.88
   4   0   6    3.29    1.63
  -4   0  -6    2.24    1.75
   4   0   6   -0.17    1.79
  -4   0  -6    0.61    1.86
   5   0   6  312.53   10.79
  -5   0  -6  314.54   11.48
   5   0   6  357.30   12.16
  -5   0  -6  340.88   11.35
   6   0   6   14.91    2.23
   6   0   6   16.31    2.56
  -6   0  -6   15.99    2.57
   7   0   6  357.63   12.26
   7   0   6  376.62   13.07
  -7   0  -6  371.79   12.63
   8   0   6   11.83    2.77
   8   0   6   10.88    2.55
  -8   0  -6   11.40    2.35
   9   0   6  173.61    7.82
   9   0   6  186.43   10.42
  10   0   6    9.28    2.22
  10   0   6    8.99    2.79
  11   0   6  411.02    8.87
  11   0   6  437.19    9.52
  12   0   6    5.60    2.47
  12   0   6    4.26    2.58
  13   0   6  261.93    8.23
  13   0   6  270.27    8.67
  14   0   6   12.88    2.67
  14   0   6   12.19    2.88
  15   0   6  176.57    7.21
  15   0   6  178.29    7.60
  16   0   6    1.52    2.63
  16   0   6    2.33    2.54
  17   0   6   60.38    4.08
  17   0   6   57.76    4.27
  18   0   6    5.46    3.03
  18   0   6    5.53    3.07
  19   0   6  114.54    5.03
  19   0   6  117.09    5.58
  20   0   6   15.95    3.19
  20   0   6   14.62    3.96
 -24  -1   6   30.28    3.98
 -24   1   6   30.92    3.99
 -23  -1   6    1.38    3.51
 -23   1   6    0.00    2.83
 -22  -1   6   63.52    4.53
 -22   1   6   66.28    4.52
 -21  -1   6    5.86    2.73
 -21   1   6    5.10    2.64
 -20  -1   6   59.56    3.69
 -20  -1   6   64.89    4.37
 -20   1   6   63.89    4.12
 -19   1   6    9.22    3.47
 -19  -1   6   11.75    2.75
 -19  -1   6   11.03    2.99
 -19   1   6   10.25    2.73
 -18   1   6   79.77    5.29
 -18  -1   6   74.29    5.04
 -18  -1   6   73.49    5.45
 -18   1   6   73.62    5.29
 -17  -1   6    6.46    4.91
 -17  -1   6   10.01    2.79
 -17   1   6    8.54    2.63
 -16   1   6   86.46    7.15
 -16  -1   6   82.90    7.74
 -16  -1   6   84.44    6.69
 -16   1   6   84.26    6.58
 -15  -1   6   22.27    2.58
 -15   1   6   22.13    2.65
 -15  -1   6   25.31   10.18
 -15  -1   6   25.26    3.28
 -15   1   6   23.59    2.99
 -15  -1   6   24.56    3.29
 -15   1   6   25.92    3.27
 -14   1   6  269.65   10.58
 -14  -1   6  273.79   10.90
 -14   1   6  334.19   13.21
 -14  -1   6  320.77   12.93
 -14  -1   6  324.97   12.64
 -14   1   6  304.54   12.07
 -14  -1   6  304.56   12.31
 -14   1   6  321.01   12.45
 -13   1   6   13.88    2.32
 -13  -1   6   13.59    2.35
 -13  -1   6   15.67    2.67
 -13   1   6   14.90    2.55
 -13  -1   6   14.87    2.60
 -13   1   6   14.03    2.41
 -12   1   6  421.35   13.42
 -12  -1   6  435.73   13.84
 -12   1   6  472.21   15.00
 -12  -1   6  482.46   15.83
 -12  -1   6  465.02   14.83
 -12   1   6  479.44   15.33
 -12  -1   6  459.86   14.85
 -12   1   6  471.78   15.84
 -11   1   6   82.79    4.37
 -11  -1   6   82.24    4.78
 -11   1   6   94.56    4.83
 -11  -1   6   99.82    5.00
 -11  -1   6   99.38    5.04
 -11   1   6   97.53    5.03
 -11  -1   6   92.38    4.91
 -11   1   6   95.21    4.97
 -10   1   6  326.12   10.92
 -10   1   6  372.56   12.20
 -10  -1   6  393.72   12.60
 -10  -1   6  376.00   12.33
 -10   1   6  383.86   12.61
 -10  -1   6  380.36   12.60
 -10   1   6  378.04   12.54
  -9   1   6  167.18    6.78
  -9  -1   6  167.42    6.98
  -9   1   6  187.44    7.42
  -9  -1   6  190.68    7.59
  -9  -1   6  183.35    7.37
  -9   1   6  190.45    7.66
  -9  -1   6  188.67    8.18
  -9   1   6  184.46    7.75
  -8   1   6  250.41    7.69
  -8  -1   6  250.35    7.98
  -8   1   6  268.23    8.34
  -8  -1   6  275.74    8.38
  -8  -1   6  269.24    8.49
  -8   1   6  283.03    8.67
  -8  -1   6  273.62    8.51
  -8   1   6  282.59    8.95
  -7  -1   6    0.68    1.81
  -7   1   6   -0.02    1.65
  -7  -1   6    1.52    2.01
   7  -1  -6    0.73    1.68
  -7  -1   6    0.40    1.48
  -7   1   6    0.69    1.63
  -7  -1   6    0.96    1.64
  -7   1   6    0.03    1.92
  -6   1   6  359.05    9.06
  -6  -1   6  358.77    9.21
   6  -1  -6  339.83    8.81
   6   1  -6  337.01    8.85
  -6  -1   6  361.54    9.42
  -6   1   6  345.26    9.48
  -6  -1   6  331.96    8.92
  -5   1   6    4.19    2.05
  -5  -1   6    4.35    1.90
   5  -1  -6    3.85    1.90
   5   1  -6    2.32    1.57
  -5  -1   6    3.56    1.76
  -4   1   6  523.03   11.53
  -4  -1   6  519.81   11.50
   4  -1  -6  519.17   11.43
   4   1  -6  497.53   11.30
  -4  -1   6  490.17   11.51
   4   1  -6  519.88   12.07
  -3   1   6   88.05    5.23
  -3  -1   6   90.84    5.35
   3  -1  -6   84.19    5.14
   3   1  -6   76.90    4.91
  -3  -1   6   84.90    5.15
   3   1  -6   82.45    5.62
  -2   1   6  246.67    8.93
  -2  -1   6  245.57    8.84
   2  -1  -6  221.87    8.49
   2   1  -6  203.55    7.78
  -2  -1   6  231.61    8.66
   2   1  -6  219.82    8.54
  -1   1   6  317.64   10.68
   1  -1  -6  298.47   10.45
   1   1  -6  259.09    9.47
  -1   1   6  298.58   10.75
  -1  -1   6  283.45   10.07
   1  -1  -6  263.27    9.98
   0   1   6  629.02   13.09
   0  -1  -6  616.20   13.29
   0   1  -6  563.66   12.17
   0   1   6  598.33   13.57
   0  -1   6  562.05   12.46
   0  -1  -6  550.09   12.20
   0   1  -6  580.03   12.84
  -1  -1  -6    2.44    1.75
   1   1   6    4.65    1.74
  -1  -1  -6    7.36    1.87
   2  -1   6  508.13   11.37
  -2  -1  -6  521.67   11.56
   2   1   6  504.61   11.86
  -2  -1  -6  495.87   11.33
  -2   1  -6  455.00   10.72
   3  -1   6    5.03    1.63
  -3   1  -6    4.83    2.22
   3   1   6    4.82    1.88
   3  -1   6    2.32    1.83
  -3  -1  -6    4.39    1.69
  -3   1  -6    2.46    1.92
   4   1   6   45.18    3.36
   4  -1   6   45.25    3.33
  -4   1  -6   42.42    3.42
   4   1   6   33.18    2.97
  -4  -1  -6   37.72    3.10
  -4   1  -6   26.29    3.33
   5   1   6   -0.51    1.65
   5  -1   6    0.87    1.49
  -5  -1  -6    0.68    1.66
  -5   1  -6    0.89    1.79
   5   1   6    2.86    1.88
   5  -1   6    8.48    2.30
  -5  -1  -6    3.18    1.90
  -5   1  -6    2.93    1.80
   6   1   6   69.39    4.46
   6  -1   6   74.05    5.40
   6   1   6   58.67    4.22
   6  -1   6   43.94    3.76
  -6  -1  -6   60.62    4.30
  -6   1  -6   54.56    4.07
   7   1   6   -0.20    1.94
   7  -1   6    1.04    1.93
   7   1   6    0.67    2.24
   7  -1   6    1.90    1.95
  -7  -1  -6    1.14    1.88
  -7   1  -6    1.01    2.00
   8   1   6  100.89    6.19
   8  -1   6  102.34    6.34
   8   1   6   96.02    6.47
   8  -1   6   81.60    5.56
  -8  -1  -6   87.38    5.66
  -8   1  -6   96.17    6.00
   9   1   6    2.62    2.09
   9  -1   6    2.80    1.73
   9   1   6    2.47    1.98
   9  -1   6    3.99    2.16
  10   1   6   67.96    6.16
  10  -1   6   66.75    6.10
  10   1   6   66.49    6.23
  10  -1   6   51.35    5.19
  11   1   6    2.78    2.22
  11  -1   6    3.97    2.39
  11   1   6    5.38    2.37
  11  -1   6    4.23    2.26
  12   1   6   20.66    2.98
  12  -1   6   21.33    2.91
  12   1   6   20.13    2.96
  12  -1   6   17.84    2.83
  13   1   6    1.90    2.46
  13  -1   6    3.53    3.04
  13   1   6    3.85    2.66
  13  -1   6    4.78    2.43
  14   1   6   43.05    3.63
  14  -1   6   41.94    3.38
  14   1   6   43.80    3.73
  14  -1   6   39.71    3.54
  15   1   6    5.85    2.75
  15  -1   6    7.52    2.49
  15   1   6    7.42    2.55
  15  -1   6    9.22    2.76
  16  -1   6    6.01    2.57
  16   1   6    7.81    2.93
  16   1   6    7.15    2.80
  16  -1   6    5.76    3.02
  17   1   6   14.49    8.20
  17  -1   6   11.70    3.34
  17   1   6   18.20    3.41
  17  -1   6   16.32    3.16
  18  -1   6    2.52    2.62
  18   1   6    0.19    2.57
  18   1   6    1.31    2.94
  18  -1   6    1.50    2.90
  19   1   6    3.05    3.05
  19  -1   6    1.71    3.10
  20  -1   6    2.33    2.88
  20   1   6    2.44    3.41
  20  -1   6    2.38    3.02
 -24  -2   6   26.27    3.93
 -24   2   6   28.53    4.23
 -23  -2   6    3.47    2.97
 -23   2   6    5.11    3.34
 -22  -2   6   34.74    3.87
 -22   2   6   35.79    4.08
 -21  -2   6    1.81    2.47
 -21  -2   6    5.55    2.78
 -21   2   6    6.87    2.68
 -20  -2   6   45.91    3.66
 -20  -2   6   50.85    4.08
 -19  -2   6   11.23    2.78
 -19  -2   6   11.47    3.15
 -18   2   6   32.58    4.55
 -18  -2   6   31.46    3.31
 -18  -2   6   35.00    3.37
 -17   2   6    4.75    5.39
 -17  -2   6    4.13    2.34
  17  -2  -6    4.33    2.21
 -17  -2   6    3.33    2.40
 -16   2   6   17.65    2.61
 -16  -2   6   16.30    2.60
  16  -2  -6   17.28    2.68
 -16   2   6   17.07    2.74
 -16  -2   6   17.07    2.95
 -15   2   6    3.80    1.99
  15  -2  -6    3.20    2.57
 -15   2   6    3.97    2.39
 -15  -2   6    3.62    2.76
 -14   2   6   78.56    6.66
 -14   2   6   78.94    7.39
 -14  -2   6   70.78    6.52
  14  -2  -6   78.80    6.87
 -14  -2   6   75.45    6.75
 -14   2   6   79.74    6.86
 -14  -2   6   74.81    6.78
 -13   2   6    5.07    2.12
 -13  -2   6    4.48    1.99
 -13   2   6    5.42    2.49
  13  -2  -6    6.48    2.18
 -13  -2   6    6.82    2.25
 -13   2   6    4.73    2.11
 -13  -2   6    7.52    2.62
 -12   2   6   66.27    4.66
 -12  -2   6   65.24    4.61
 -12   2   6   59.40    4.55
 -12  -2   6   47.12    7.03
 -12  -2   6   49.31    4.05
 -12   2   6   57.23    4.46
 -12  -2   6   44.88    4.13
 -11   2   6   17.30    2.23
 -11  -2   6   17.03    2.35
 -11   2   6   18.33    2.39
 -11  -2   6   18.66    2.60
 -11  -2   6   20.22    2.58
 -11   2   6   19.23    2.68
 -11  -2   6   20.07    2.56
 -10   2   6   51.16    3.71
 -10  -2   6   54.13    3.95
 -10   2   6   49.36    3.81
 -10  -2   6   45.83    3.68
 -10  -2   6   45.67    3.67
 -10   2   6   47.79    3.93
 -10  -2   6   41.70    3.42
 -10   2   6   43.39    3.62
  -9   2   6    3.91    1.90
  -9  -2   6    2.10    1.84
  -9   2   6    4.14    1.75
  -9  -2   6   11.74    2.27
  -9  -2   6    7.11    1.97
  -9   2   6    7.64    1.85
  -9  -2   6   11.14    2.25
  -9   2   6    9.46    2.31
  -8  -2   6  195.77    6.78
  -8   2   6  184.47    6.61
  -8  -2   6  163.49    6.22
   8  -2  -6  162.75    6.09
  -8  -2   6  183.94    6.76
  -8   2   6  168.67    5.79
  -8  -2   6  164.12    6.27
  -8   2   6  164.18    6.30
  -7  -2   6  211.33    7.13
   7  -2  -6  211.48    7.27
  -7  -2   6  186.48    6.76
  -7  -2   6  206.88    7.27
  -7   2   6  220.69    7.54
  -6  -2   6   98.40    7.75
  -6   2   6   98.26    7.78
  -6  -2   6   78.74    6.51
   6  -2  -6   64.19    5.61
  -6  -2   6   62.13    5.48
   6   2  -6   73.29    6.26
  -5   2   6   79.80    6.60
  -5  -2   6   85.47    6.88
   5  -2  -6   84.85    6.91
   5   2  -6   83.95    6.84
  -5  -2   6   81.51    6.72
   5   2  -6   85.31    7.02
  -4   2   6   -0.35    1.46
  -4  -2   6   -0.33    1.47
   4  -2  -6    0.99    1.71
   4   2  -6    0.33    1.87
  -4  -2   6    0.64    1.49
   4   2  -6    0.57    1.76
  -3   2   6   98.95    7.81
  -3  -2   6  114.63    8.80
   3  -2  -6  123.20    9.40
   3   2  -6  145.87    5.61
  -3  -2   6  140.69    5.36
   3   2  -6  129.85    9.95
  -2   2   6    0.54    1.32
   2  -2  -6    1.26    1.67
   2   2  -6    1.86    1.72
  -2  -2   6    1.40    1.44
   2   2  -6    1.49    1.92
  -1   2   6  615.40   12.88
   1  -2  -6  627.37   13.03
   1   2  -6  650.27   13.99
  -1  -2   6  618.49   13.12
   1   2  -6  606.74   13.20
   0   2   6   23.41    2.57
   0  -2  -6   21.14    2.59
   0  -2   6   18.42    2.32
   0  -2  -6   17.31    2.37
   0   2  -6   15.85    2.53
   0  -2  -6   16.48    2.49
   1   2   6   32.35    2.75
   1  -2   6   31.69    2.70
  -1  -2  -6   34.84    3.04
   1  -2   6   32.60    2.82
  -1  -2  -6   33.35    2.82
  -1   2  -6   32.26    2.89
   2  -2   6    8.87    1.93
  -2  -2  -6    6.75    2.13
  -2   2  -6    8.57    2.28
   2   2   6    8.23    2.06
   2  -2   6    9.03    2.01
  -2  -2  -6    7.75    2.02
  -2   2  -6    9.11    2.25
   3  -2   6  168.93    5.57
  -3  -2  -6  164.08    6.12
  -3   2  -6  183.79    6.96
   3   2   6  176.22    7.39
   3  -2   6  190.75    7.25
  -3  -2  -6  179.36    6.57
  -3   2  -6  193.50    6.82
   4  -2   6    0.23    1.75
  -4   2  -6   -0.30    1.90
   4   2   6   -0.22    1.46
   4  -2   6    1.69    1.79
  -4  -2  -6    0.04    1.83
  -4   2  -6   -0.52    2.49
   5   2   6  314.56   11.86
   5  -2   6  334.48   11.26
  -5   2  -6  336.05   12.01
   5   2   6  329.81   11.29
   5  -2   6  319.08   11.03
  -5  -2  -6  321.01   10.96
  -5   2  -6  332.91   11.19
   6   2   6   34.19    3.16
   6  -2   6   33.86    2.97
   6   2   6   34.76    3.18
   6  -2   6   33.32    3.03
  -6  -2  -6   33.35    3.13
  -6   2  -6   35.47    3.04
   7   2   6  153.67    5.54
   7  -2   6  152.17    6.47
   7   2   6  157.33    7.09
   7  -2   6  158.81    7.17
  -7  -2  -6  152.26    6.52
  -7   2  -6  157.08    6.83
   8   2   6    4.48    2.06
   8  -2   6    5.21    2.14
   8   2   6    3.61    2.27
   8  -2   6    4.50    2.17
  -8  -2  -6    3.10    2.20
  -8   2  -6    2.80    2.01
   9   2   6  108.43    4.74
   9  -2   6  110.02    4.76
   9   2   6  105.40    4.79
   9  -2   6  109.90    5.03
  10   2   6    0.44    1.95
  10  -2   6    2.79    2.13
  10   2   6    0.47    2.34
  10  -2   6    1.49    2.37
  11   2   6   21.08    2.92
  11  -2   6   21.08    2.93
  11   2   6   22.42    2.93
  11  -2   6   19.74    3.18
  12   2   6    1.37    2.17
  12  -2   6    1.47    2.15
  12   2   6    2.10    2.41
  12  -2   6    3.23    2.12
  13   2   6   39.57    3.43
  13  -2   6   37.97    3.30
  13   2   6   42.31    3.62
  13  -2   6   38.66    3.87
  14   2   6   -0.54    1.76
  14  -2   6   -1.51    2.37
  14   2   6    1.41    2.72
  14  -2   6    0.50    2.42
  15   2   6   15.26    3.05
  15  -2   6   17.05    2.98
  15   2   6   16.72    3.17
  15  -2   6   16.45    3.20
  16   2   6    9.11    2.85
  16  -2   6    8.24    2.60
  16   2   6   11.38    3.23
  16  -2   6    9.38    3.03
  17   2   6   35.17    3.72
  17  -2   6   36.17    3.39
  17   2   6   38.38    3.67
  17  -2   6   39.18    3.75
  18   2   6    4.17    2.81
  18  -2   6    4.74    2.70
  18   2   6    4.88    3.18
  18  -2   6    3.83    3.33
  19  -2   6    9.88    2.77
  19   2   6    8.99    3.59
  19  -2   6   11.69    3.31
  20   2   6    4.30    2.93
  20   2   6    7.29    3.39
  20  -2   6    5.46    3.30
 -24  -3   6   15.64    3.53
 -24   3   6   14.88    3.39
 -23  -3   6   23.17    3.52
 -22  -3   6   13.26    2.97
  22  -3  -6   12.57    3.25
 -22  -3   6   14.10    3.22
 -21  -3   6   -0.47    2.77
  21  -3  -6   -0.30    2.48
 -21  -3   6   -0.89    3.04
 -20  -3   6    3.23    2.66
  20  -3  -6    1.48    2.76
 -20  -3   6    2.41    2.81
 -19  -3   6    3.07    2.38
  19  -3  -6    4.06    2.65
 -19  -3   6    3.73    2.59
 -18  -3   6   11.23    4.97
  18  -3  -6   11.61    2.73
 -18  -3   6   10.87    2.82
 -17   3   6   81.35    5.67
 -17  -3   6   76.48    5.17
  17  -3  -6   80.27    5.50
 -17  -3   6   73.43    5.36
 -16   3   6   18.72    7.03
 -16  -3   6   17.06    2.88
  16  -3  -6   19.53    2.77
 -16   3   6   18.74    2.76
 -16  -3   6   16.68    2.77
 -15  -3   6    1.76    2.59
  15  -3  -6    0.89    2.16
 -15   3   6    0.37    2.25
 -15  -3   6   -0.46    2.16
 -14   3   6   25.79    2.65
 -14   3   6   25.54    3.05
 -14  -3   6   23.55    3.53
  14  -3  -6   25.23    3.02
 -14  -3   6   24.00    3.18
 -14   3   6   24.80    2.77
 -14  -3   6   22.31    3.04
 -13   3   6    9.50    2.18
 -13   3   6    9.68    5.15
 -13  -3   6    7.48    5.24
  13  -3  -6   10.05    2.48
 -13  -3   6    8.49    2.51
 -13   3   6    9.59    2.16
 -13  -3   6   10.38    2.59
 -12   3   6   20.42    2.57
 -12   3   6   21.18    2.78
 -12  -3   6   21.81    2.85
  12  -3  -6   20.60    2.55
 -12  -3   6   20.24    2.68
 -12   3   6   22.46    2.69
 -12  -3   6   19.95    2.94
 -11   3   6   12.28    2.24
 -11  -3   6   11.58    2.33
 -11   3   6   13.07    2.31
 -11  -3   6   15.52    2.48
  11  -3  -6   13.20    2.31
 -11  -3   6   14.39    2.51
 -11   3   6   13.88    2.20
 -11  -3   6   14.00    2.49
 -10   3   6    2.99    1.68
 -10  -3   6    3.93    1.83
 -10   3   6    2.26    1.98
 -10  -3   6   -0.87    1.91
  10  -3  -6    2.03    1.90
 -10  -3   6    1.74    2.09
 -10   3   6    2.10    1.92
 -10  -3   6    2.17    1.93
  -9  -3   6    3.96    1.79
  -9   3   6    3.57    2.07
  -9  -3   6    1.01    1.89
  -9  -3   6    2.78    1.94
  -9   3   6    2.72    1.90
  -9  -3   6    2.39    1.81
  -8  -3   6    0.04    1.73
  -8   3   6    0.50    1.79
  -8  -3   6    0.13    1.49
   8  -3  -6    0.27    1.75
  -8  -3   6    0.44    1.97
   8  -3  -6    0.89    1.71
  -8   3   6    0.00    1.59
  -8  -3   6    1.57    1.75
  -7  -3   6  246.40    7.74
  -7   3   6  253.40    7.91
  -7  -3   6  261.76    8.07
   7  -3  -6  259.19    8.03
  -7   3   6  247.95    7.96
  -7  -3   6  245.80    7.88
   7   3  -6  262.94    8.38
  -7   3   6  259.14    8.31
  -6  -3   6   42.92    2.98
  -6   3   6   40.03    3.10
  -6  -3   6   44.12    3.27
   6  -3  -6   43.49    3.21
  -6  -3   6   44.10    3.31
   6   3  -6   43.13    3.45
  -5  -3   6   55.83    4.88
  -5   3   6   57.31    5.17
   5  -3  -6   49.00    4.59
  -5  -3   6   51.61    4.85
  -5  -3   6   47.25    4.53
   5   3  -6   49.52    4.77
  -4   3   6   18.44    2.53
  -4  -3   6   18.12    2.32
   4  -3  -6   20.29    2.45
   4   3  -6   22.02    2.63
  -4  -3   6   20.28    2.54
   4   3  -6   22.13    2.63
  -3   3   6   18.93    2.42
   3  -3  -6   18.45    2.37
   3   3  -6   17.93    2.58
  -3  -3   6   17.62    2.34
   3   3  -6   16.93    2.65
  -2   3   6   33.71    2.81
   2  -3  -6   37.76    4.03
   2   3  -6   53.80    4.83
  -2  -3   6   53.20    4.93
   2   3  -6   51.95    5.06
  -1   3   6  106.48    8.32
   1  -3  -6  108.46    8.50
   1  -3  -6  116.28    9.24
  -1  -3   6  124.66    9.54
   1   3  -6  126.11    9.75
   1  -3  -6  113.81    9.18
   0   3   6   83.53    6.79
   0  -3   6   81.81    6.67
   0  -3  -6   84.17    6.78
   0  -3  -6   97.25    7.78
   0  -3   6   91.89    7.41
   0   3  -6   98.40    7.95
   0  -3  -6  108.10    8.56
   1   3   6   45.51    4.41
  -1  -3  -6   46.46    4.40
   1  -3   6   42.02    4.14
  -1   3  -6   53.16    4.85
  -1  -3  -6   52.23    4.93
   1  -3   6   45.68    4.38
  -1   3  -6   51.87    4.94
   2   3   6  166.52    6.28
   2  -3   6  162.28    6.20
  -2  -3  -6  162.71    6.42
  -2   3  -6  161.02    6.08
  -2  -3  -6  157.56    6.12
   2  -3   6  156.12    6.11
  -2   3  -6  157.26    6.13
  -2  -3  -6  159.01    6.24
  -3  -3  -6    0.44    1.76
   3  -3   6    0.92    1.57
  -3   3  -6   -0.59    2.07
  -3  -3  -6    0.95    1.86
   3  -3   6    0.20    1.54
  -3   3  -6    1.19    1.86
  -3  -3  -6    1.60    1.64
   4  -3   6    3.35    1.71
  -4  -3  -6    1.85    1.98
  -4   3  -6    5.75    2.08
  -4  -3  -6    7.20    2.15
   4  -3   6    5.62    2.08
  -4   3  -6    7.21    2.40
  -4  -3  -6    6.21    2.29
   5  -3   6    5.27    2.08
  -5   3  -6    4.30    2.01
   5  -3   6    3.29    1.87
  -5  -3  -6    3.07    2.02
  -5   3  -6    3.15    2.19
   6   3   6    5.38    1.95
   6  -3   6    6.19    2.11
   6   3   6    4.55    2.08
  -6  -3  -6    5.70    2.49
   6  -3   6    4.59    2.09
  -6   3  -6    4.16    2.08
   7   3   6    0.07    1.98
   7  -3   6    0.13    1.72
   7   3   6   -0.16    2.10
   7  -3   6    0.01    1.88
  -7  -3  -6    0.52    1.80
  -7   3  -6    1.03    1.84
   8   3   6    1.37    1.92
   8  -3   6    0.74    1.98
   8   3   6    0.23    2.08
   8  -3   6    1.26    2.03
  -8  -3  -6    1.63    1.95
   9   3   6    3.15    1.66
   9  -3   6    4.97    2.11
   9   3   6    3.96    1.99
   9  -3   6    3.65    2.14
  10   3   6   40.47    4.35
  10  -3   6   40.81    4.31
  10   3   6   42.34    4.47
  10  -3   6   38.71    3.42
  11   3   6    2.86    2.04
  11  -3   6   -0.08    2.19
  11   3   6    2.49    2.46
  11  -3   6    1.15    2.27
  12   3   6   55.51    4.19
  12  -3   6   59.77    4.50
  12   3   6   60.89    4.55
  12  -3   6   50.64    3.75
  13   3   6    0.21    2.18
  13  -3   6    0.50    2.05
  13   3   6    0.99    2.32
  13  -3   6   -1.05    2.23
  14   3   6   30.90    3.13
  14  -3   6   28.63    3.11
  14   3   6   30.20    3.43
  14  -3   6   24.23    3.12
  15   3   6    1.79    2.15
  15  -3   6    0.77    2.37
  15   3   6    2.14    2.86
  15  -3   6    0.83    2.55
  16   3   6    4.15    2.61
  16  -3   6    4.59    2.67
  16   3   6    5.99    2.77
  16  -3   6    4.62    2.79
  17   3   6    3.92    2.85
  17  -3   6    6.00    5.46
  17  -3   6    5.23    3.25
  18   3   6   -0.63    3.44
  18  -3   6   -0.81    2.70
  18  -3   6   -0.31    3.03
 -18  -3  -6   -0.68    3.11
  19   3   6    4.84    2.94
  19  -3   6    1.63    3.19
 -19  -3  -6    4.24    3.26
  23  -4  -6    2.71    2.66
 -23  -4   6    7.34    2.93
 -22  -4   6   32.77    3.63
  22  -4  -6   35.20    3.81
 -22  -4   6   36.47    3.82
 -21  -4   6    0.22    2.36
  21  -4  -6    0.54    3.00
 -21  -4   6    3.24    3.12
 -20  -4   6   50.05    3.74
  20  -4  -6   56.01    4.25
 -20  -4   6   54.23    4.19
 -19  -4   6    1.59    2.32
  19  -4  -6    2.27    2.41
 -19  -4   6    2.60    2.75
 -18  -4   6   39.21    3.85
  18  -4  -6   36.49    3.95
 -18  -4   6   41.57    4.31
 -17  -4   6    9.15    2.86
  17  -4  -6    7.51    2.76
 -17  -4   6   10.85    2.84
 -16   4   6   19.36    4.41
 -16  -4   6   20.55    3.41
  16  -4  -6   19.71    3.13
 -16  -4   6   18.52    3.22
 -15   4   6   11.88    8.83
 -15  -4   6   15.04    4.15
  15  -4  -6   13.41    2.68
 -15   4   6   13.91    2.61
 -15  -4   6   17.00    2.71
 -14   4   6   86.06    7.20
 -14   4   6   89.09    8.14
 -14  -4   6   78.15    8.47
  14  -4  -6   81.38    7.13
 -14   4   6   77.73    6.80
 -14  -4   6   74.38    6.64
 -13   4   6   20.67    2.43
 -13   4   6   23.44    3.82
 -13  -4   6   25.42    5.07
  13  -4  -6   23.34    2.89
 -13  -4   6   22.91    2.96
 -13   4   6   23.12    2.88
 -13  -4   6   23.55    2.92
 -12   4   6  119.72    4.77
 -12   4   6  128.72    7.09
 -12  -4   6  124.01    5.00
 -12  -4   6  123.43    5.19
  12  -4  -6  127.11    6.35
 -12   4   6  127.32    5.10
 -12  -4   6  126.12    5.17
 -11   4   6    2.89    2.00
 -11  -4   6    4.68    4.89
  11  -4  -6    4.16    2.24
 -11  -4   6    4.74    2.11
 -11   4   6    6.19    2.02
 -11  -4   6    6.40    2.53
 -10   4   6  154.19    5.20
 -10   4   6  154.02    5.52
 -10  -4   6  149.46    7.45
 -10  -4   6  157.50    6.93
  10  -4  -6  155.54    5.99
 -10   4   6  144.51    6.15
 -10  -4   6  147.28    6.41
  -9  -4   6    3.30    1.96
  -9   4   6    1.53    1.78
  -9  -4   6    1.02    1.63
   9  -4  -6    0.87    1.88
  -9  -4   6    1.71    1.79
  -9   4   6    0.67    1.73
  -9  -4   6    0.97    1.93
  -8  -4   6   63.75    4.14
  -8   4   6   59.19    4.01
   8  -4  -6   49.16    3.74
  -8  -4   6   48.46    3.71
   8  -4  -6   52.17    3.95
  -8   4   6   50.25    3.79
  -8  -4   6   49.41    3.95
   8   4  -6   52.30    4.06
  -7  -4   6   18.68    2.73
  -7   4   6   17.06    2.55
  -7  -4   6   19.55    2.68
   7  -4  -6   20.55    2.93
   7  -4  -6   18.28    2.70
  -7   4   6   18.38    2.86
  -7  -4   6   17.95    2.95
   7   4  -6   18.70    2.82
  -6  -4   6   27.81    3.29
  -6   4   6   26.33    3.24
   6  -4  -6   27.15    3.55
  -6  -4   6   26.13    3.26
   6  -4  -6   27.96    4.04
  -6  -4   6   27.13    3.43
  -6   4   6   26.74    4.13
   6   4  -6   29.05    3.68
  -5  -4   6   20.83    2.93
  -5   4   6   20.80    3.01
   5  -4  -6   17.07    2.65
  -5  -4   6   16.44    2.59
  -5  -4   6   14.32    2.47
   5   4  -6   14.55    2.67
  -4  -4   6   28.38    2.81
  -4   4   6   29.55    2.79
   4  -4  -6   28.07    2.72
  -4  -4   6   22.49    3.53
   4   4  -6   23.63    2.69
  -3   4   6   57.10    5.15
   3  -4  -6   59.72    5.31
   3   4  -6   70.90    6.04
  -3  -4   6   76.37    7.18
   3   4  -6   68.70    6.14
  -2   4   6   95.88    7.65
   2  -4  -6   93.50    7.50
  -2  -4   6   74.36    6.33
   2  -4  -6   65.76    6.27
   2   4  -6   70.32    6.14
  -1   4   6   88.04    7.08
   1  -4  -6   87.89    7.04
  -1  -4   6   93.92    7.49
  -1  -4   6  123.35    9.48
   1  -4  -6  129.20   10.04
   1   4  -6  124.80    9.89
   0  -4   6  176.96    6.23
   0  -4   6  150.66    5.87
   0   4  -6  137.45    5.33
   1   4   6   19.84    2.86
  -1  -4  -6   20.51    2.93
   1  -4   6   20.24    2.84
  -1   4  -6   10.98    2.42
  -1  -4  -6   10.33    2.51
   1  -4   6   15.54    2.53
  -1   4  -6   10.84    2.53
   2   4   6   51.08    3.56
  -2  -4  -6   47.11    3.44
   2  -4   6   58.58    3.75
  -2   4  -6   65.71    4.22
  -2  -4  -6   69.56    4.30
   2  -4   6   53.34    3.55
  -2   4  -6   63.53    3.94
  -2  -4  -6   64.07    4.13
   3   4   6    1.26    1.85
  -3  -4  -6    0.39    1.81
   3  -4   6    0.28    1.40
  -3   4  -6    0.73    2.10
  -3  -4  -6    1.98    2.06
   3  -4   6    0.93    1.68
  -3   4  -6    1.85    1.89
  -3  -4  -6    1.09    1.93
   4  -4   6   11.90    2.20
  -4   4  -6   14.50    2.44
  -4  -4  -6   17.59    2.41
   4  -4   6   13.51    2.18
  -4   4  -6   18.53    2.63
  -4  -4  -6   16.56    2.47
  -5  -4  -6   44.25    3.33
   5  -4   6   32.08    2.93
  -5   4  -6   45.05    3.32
  -5  -4  -6   32.41    3.18
   6  -4   6   12.34    2.42
  -6  -4  -6    4.91    2.72
   6  -4   6    4.29    2.34
  -6   4  -6    4.87    2.31
  -6  -4  -6    5.39    2.13
   7   4   6   37.98    3.13
  -7  -4  -6   61.28    4.61
   7  -4   6   57.91    4.57
  -7   4  -6   55.94    4.30
  -7  -4  -6   51.96    4.46
   8   4   6    0.53    1.65
   8  -4   6    1.02    2.06
   8  -4   6    0.10    1.84
  -8  -4  -6    0.05    2.43
  -8  -4  -6    0.33    2.31
   9   4   6  133.89    5.88
   9  -4   6  123.58    5.59
   9  -4   6  160.87    6.90
  -9  -4  -6  155.17    7.18
  10   4   6   -0.68    2.16
  10  -4   6   -0.02    2.01
  10  -4   6    1.67    2.27
 -10  -4  -6    2.06    2.60
  11   4   6   68.83    5.65
  11  -4   6   64.53    5.38
  11  -4   6   97.03    7.33
 -11  -4  -6   89.26    6.99
  12   4   6    2.45    2.12
  12  -4   6    0.16    2.42
  12  -4   6    5.02    2.40
 -12  -4  -6    2.90    3.03
  13   4   6   41.27    3.53
  13  -4   6   41.60    3.53
  13  -4   6   51.28    3.70
 -13  -4  -6   54.00    4.66
  14   4   6   27.41    3.29
  14  -4   6   27.94    3.05
  14  -4   6   30.36    3.27
 -14  -4  -6   31.08    3.52
  15   4   6   28.32    3.17
  15  -4   6   26.49    3.49
  15  -4   6   30.75    3.41
 -15  -4  -6   37.66    3.70
  16   4   6    8.02    2.74
  16  -4   6    9.29    6.63
  16  -4   6    8.48    3.18
 -16  -4  -6    8.97    3.27
  17   4   6   49.97    3.92
  17  -4   6   47.80    3.87
  17  -4   6   51.01    3.94
 -17  -4  -6   59.52    4.31
  18   4   6    1.28    2.53
  18  -4   6    0.39    2.99
 -18  -4  -6    1.07    2.84
  19   4   6   28.96    3.53
  19  -4   6   28.66    3.75
 -19  -4  -6   30.77    4.16
 -23  -5   6   35.65    3.98
  22  -5  -6   41.89    3.87
 -22  -5   6   48.03    4.10
  21  -5  -6    1.72    2.82
 -21  -5   6    4.09    2.82
  20  -5  -6   53.26    3.96
 -20  -5   6   53.86    4.16
  19  -5  -6    0.66    2.69
 -19  -5   6    2.19    3.07
  18  -5  -6   69.54    6.35
 -18  -5   6   76.87    6.80
  17  -5  -6    3.12    2.61
 -17  -5   6    2.09    2.43
  16  -5  -6   80.82    5.26
 -16  -5   6   95.14    5.78
  15  -5  -6    1.18    2.10
 -15   5   6    0.60    2.33
 -15  -5   6    1.39    2.43
 -14   5   6  135.41    5.16
 -14  -5   6  151.09    5.47
  14  -5  -6  143.05    5.49
 -14   5   6  151.53    5.42
 -14  -5   6  158.72    5.93
 -13   5   6    4.04    1.92
  13  -5  -6    4.95    1.93
 -13   5   6    3.45    2.14
 -13  -5   6    4.77    2.22
 -12   5   6  142.92    6.56
 -12   5   6  153.78    7.65
 -12  -5   6  178.08    7.80
 -12  -5   6  158.83    7.58
  12  -5  -6  169.64    8.15
 -12   5   6  177.65    8.15
 -12  -5   6  175.52    7.87
 -11   5   6    8.08    2.24
 -11  -5   6    2.73    2.26
 -11  -5   6    6.69    2.07
  11  -5  -6    6.08    1.95
 -11   5   6    3.90    2.06
 -11  -5   6    5.18    2.27
 -10   5   6  202.45    7.74
 -10   5   6  211.39    8.23
 -10  -5   6  247.72    9.14
 -10  -5   6  224.61    8.66
  10  -5  -6  221.74   13.29
 -10   5   6  240.73    9.04
 -10  -5   6  236.31    8.92
  -9  -5   6   24.47    3.14
   9  -5  -6   24.66    2.80
  -9   5   6   22.29    2.60
  -9  -5   6   23.75    2.72
   9   5  -6   21.39    2.75
  -8   5   6  199.11    7.70
  -8  -5   6  222.35    8.27
   8  -5  -6  216.70    8.45
  -8   5   6  210.70    8.10
  -8  -5   6  218.69    8.47
   8   5  -6  210.11    8.20
  -7   5   6  100.83    7.68
   7  -5  -6   99.95    5.60
  -7  -5   6  109.37    5.81
   7  -5  -6  109.01    6.04
  -7   5   6  104.11    5.78
  -7  -5   6   97.89    5.60
   7   5  -6  104.42    5.87
  -6  -5   6  370.43   12.38
  -6   5   6  373.19   12.18
   6  -5  -6  389.92   12.80
  -6  -5   6  432.88   13.60
   6  -5  -6  430.62   13.86
  -6  -5   6  413.70   13.27
  -6   5   6  392.40   12.65
   6   5  -6  421.00   13.60
  -5  -5   6    1.28    1.81
  -5   5   6    0.27    1.78
   5  -5  -6    1.05    2.13
   5  -5  -6    0.65    1.76
  -5  -5   6    0.21    1.77
   5   5  -6    1.59    2.29
  -5   5   6    0.88    1.92
  -4   5   6  253.66    7.95
   4  -5  -6  250.67    7.91
   4  -5  -6  260.24    8.32
  -4  -5   6  261.81    8.22
   4   5  -6  259.57    8.48
  -4   5   6  267.58    8.52
  -3   5   6   10.84    2.37
   3  -5  -6    8.46    2.35
   3  -5  -6    6.36    2.17
   3  -5  -6    6.30    2.06
  -3  -5   6    6.84    1.93
   3   5  -6    6.42    2.11
  -2   5   6  341.63    9.69
   2  -5  -6  343.90    9.65
  -2  -5   6  321.25    9.39
   2  -5  -6  346.88    9.95
  -2  -5   6  330.46    9.62
   2  -5  -6  330.25   10.10
   2   5  -6  330.69    9.74
  -1   5   6    3.37    1.94
   1  -5  -6    2.77    1.94
  -1  -5   6    2.73    1.49
   1   5  -6    3.92    1.91
  -1  -5   6    3.16    1.90
   1  -5  -6    4.00    2.03
   1   5  -6    6.11    2.34
   0   5   6  547.47   13.30
   0  -5  -6  541.57   13.22
   0  -5   6  527.20   13.14
   0   5  -6  557.11   13.47
   0  -5  -6  551.97   14.50
   0  -5   6  524.90   13.08
   0   5  -6  552.72   13.74
   1   5   6    6.13    2.05
  -1  -5  -6    4.71    1.77
   1  -5   6    5.34    1.94
  -1   5  -6    3.77    1.86
  -1  -5  -6    4.83    2.53
   1  -5   6    5.15    2.01
  -1   5  -6    4.86    2.22
  -1  -5  -6    6.61    2.21
   2   5   6  406.40   13.15
  -2  -5  -6  403.39   13.27
   2  -5   6  395.07   12.88
  -2   5  -6  381.34   12.29
  -2  -5  -6  391.38   12.73
   2  -5   6  388.20   12.67
  -2   5  -6  385.29   12.58
  -2  -5  -6  348.40   12.76
   3   5   6    3.73    1.96
   3  -5   6    2.13    1.75
  -3   5  -6    3.04    2.31
  -3  -5  -6    3.26    3.29
   3  -5   6    2.15    2.16
  -3   5  -6    4.08    2.21
  -3  -5  -6    7.00    2.76
   4   5   6  353.59   12.12
   4  -5   6  346.50   11.95
  -4   5  -6  314.15   11.63
  -4  -5  -6  333.26   11.64
   4  -5   6  339.44   11.96
  -4   5  -6  329.48   11.48
  -4  -5  -6  319.08   11.48
   5  -5   6   10.94    2.25
  -5  -5  -6    7.44    5.84
   5  -5   6    9.46    2.68
  -5   5  -6    8.78    2.41
  -5  -5  -6    9.42    2.33
   6  -5   6  409.46   13.52
  -6  -5  -6  388.50   12.90
   6  -5   6  401.48   14.17
  -6   5  -6  366.24   13.21
  -6  -5  -6  384.29   13.02
   7  -5   6    0.28    2.04
   7  -5   6    2.17    2.10
  -7  -5  -6    0.71    2.08
   8   5   6  255.00   10.21
   8  -5   6  265.68   10.70
  -8  -5  -6  223.94    9.39
   8  -5   6  220.36    9.36
  -8  -5  -6  237.15   11.40
   9   5   6    8.68    2.40
   9  -5   6    6.11    2.29
   9  -5   6   15.23    2.53
  -9  -5  -6   11.28    2.70
  10   5   6  120.03    4.88
 -10  -5  -6   99.27    7.46
  11   5   6   14.39    2.64
  11  -5   6   17.46    2.90
  11  -5   6    8.59    2.55
 -11  -5  -6   11.08    2.90
  12   5   6   34.15    3.04
  12  -5   6   36.50    3.50
  12  -5   6   15.20    2.80
 -12  -5  -6   20.33    2.98
  13   5   6    2.62    2.32
  13  -5   6    2.69    2.51
  13  -5   6    0.02    2.26
 -13  -5  -6    0.36    2.83
  14   5   6   23.32    3.15
  14  -5   6   19.02    2.91
  14  -5   6   10.20    2.94
 -14  -5  -6    8.29    2.73
  15   5   6    2.42    2.71
  15  -5   6    2.72    4.87
  15  -5   6    5.96    2.74
 -15  -5  -6    5.70    3.34
  16   5   6   55.42    4.08
  16  -5   6   52.24    3.85
  16  -5   6   38.69    3.83
 -16  -5  -6   44.12    4.38
  17   5   6    1.27    2.70
  17  -5   6   -1.68    2.96
  17  -5   6    3.21    2.89
 -17  -5  -6    3.98    3.28
  18   5   6    5.48    2.65
  18  -5   6    2.79    3.02
 -18  -5  -6    2.40    3.38
  19   5   6   16.71    3.29
  19  -5   6   16.22    3.51
 -19  -5  -6   22.91    3.92
 -23  -6   6   18.77    3.68
 -22  -6   6   92.47    4.90
  21  -6  -6   -1.45    2.92
 -21  -6   6   -0.26    2.80
  20   6  -6   75.80    3.98
  20  -6  -6   77.70    4.55
 -20  -6   6   72.70    4.54
  19   6  -6    0.21    2.28
  19  -6  -6    0.10    2.85
 -19  -6   6   -0.15    2.77
  18   6  -6  104.04    5.20
  18  -6  -6  105.49    5.60
 -18  -6   6   97.26    5.37
  17  -6  -6    2.15    2.47
 -17  -6   6    2.12    2.59
  16  -6  -6  138.78    6.64
 -16  -6   6  127.16    6.25
  15  -6  -6   29.96    3.12
 -15  -6   6   27.18    3.17
 -14   6   6  116.10    4.79
 -14  -6   6  117.65    5.04
  14  -6  -6  115.47    5.15
 -14   6   6  112.44    5.67
 -14  -6   6  113.19    5.15
 -13  -6   6    3.08    2.22
  13  -6  -6    0.98    2.06
 -13   6   6    1.26    1.92
 -13  -6   6    4.09    2.50
 -12   6   6   92.18    7.62
 -12   6   6   92.47    7.74
 -12  -6   6   85.59    7.27
  12  -6  -6   83.30    7.34
 -12   6   6   77.06    6.82
 -12  -6   6   86.38    7.46
 -11   6   6    1.33    1.87
 -11  -6   6    1.64    2.09
  11  -6  -6    3.04    2.23
 -11   6   6    4.13    2.17
 -11  -6   6    2.11    1.98
 -10   6   6  103.64   11.69
 -10  -6   6   90.46    6.27
  10  -6  -6   90.61    5.67
  10  -6  -6   86.29    5.76
 -10   6   6   90.73    5.86
 -10  -6   6   89.01    5.82
  10   6  -6   93.24    6.08
   9  -6  -6   54.58    4.25
  -9  -6   6   55.94    4.11
   9  -6  -6   56.90    4.37
  -9   6   6   52.20    4.22
  -9  -6   6   55.48    4.36
   9   6  -6   51.71    4.31
  -8   6   6  271.02   11.53
   8  -6  -6  233.57    8.90
  -8  -6   6  241.00    9.07
  -8   6   6  236.49    9.00
  -8  -6   6  230.61    8.95
   8   6  -6  237.90    9.40
   7  -6  -6   18.40    2.57
  -7  -6   6   25.45    2.45
  -7   6   6   24.83    2.95
  -7  -6   6   25.42    3.08
   7   6  -6   20.71    2.83
  -6   6   6  266.79   12.66
   6  -6  -6  241.90    8.90
  -6  -6   6  220.25    8.39
  -6   6   6  226.51    8.48
   6   6  -6  213.60    8.39
  -5   6   6   36.44    9.09
   5  -6  -6   37.76    3.26
   5  -6  -6   41.36    3.39
  -5  -6   6   53.29    4.05
   5   6  -6   55.92    4.40
  -5   6   6   56.26    4.00
  -4   6   6   35.91    3.50
   4  -6  -6   23.35    2.59
  -4  -6   6   22.48    2.85
   4   6  -6   19.65    2.89
  -4   6   6   19.34    2.50
  -3   6   6    9.25    2.77
   3  -6  -6    6.57    2.38
  -3  -6   6   15.37    2.11
   3  -6  -6   22.72    2.71
  -3  -6   6   15.30    2.27
   3   6  -6   14.50    2.77
  -3   6   6   14.53    2.54
  -2  -6   6    6.29    1.90
  -2   6   6    7.21    5.50
   2  -6  -6    5.97    1.95
  -2  -6   6   14.25    2.24
  -2  -6   6   19.15    2.54
   2   6  -6   15.46    3.09
  -1   6   6   38.50    3.37
   1  -6  -6   36.10    3.33
  -1  -6   6   45.28    3.49
   1  -6  -6   38.84    3.43
  -1  -6   6   55.09    4.07
   1   6  -6   50.79    4.05
   0   6   6   16.11    2.45
   0  -6  -6   18.14    2.50
   0  -6   6   14.07    2.42
   0   6  -6    9.68    2.26
   0  -6  -6   15.23    2.58
   0  -6   6    8.95    2.34
   0   6  -6    7.39    2.46
   0  -6  -6    8.46    2.03
   1   6   6   39.39    3.62
  -1  -6  -6   34.52    3.23
   1  -6   6   37.58    3.33
  -1   6  -6   61.82    4.18
  -1  -6  -6   43.95    3.57
   1  -6   6   54.89    4.06
  -1   6  -6   58.99    4.29
  -1  -6  -6   51.26    4.01
   2   6   6   40.35    3.48
  -2  -6  -6   45.42    3.40
   2  -6   6   44.67    3.42
  -2  -6  -6   30.83    3.09
   2  -6   6   32.45    3.27
  -2   6  -6   24.67    2.95
  -2  -6  -6   24.43    2.93
   3   6   6  118.43    5.54
  -3  -6  -6  140.74    6.20
   3  -6   6  125.90    5.87
  -3   6  -6  151.15    6.51
   4   6   6   16.55    2.40
   4  -6   6   22.51    2.70
  -4  -6  -6    8.35    2.28
   4  -6   6   14.72    2.48
  -4   6  -6    7.52    2.61
  -4  -6  -6    4.93    2.28
   5   6   6  100.10    6.17
   5  -6   6   95.15    5.95
  -5  -6  -6  121.24    7.08
   5  -6   6  101.45    6.57
  -5   6  -6  125.04    7.25
  -5  -6  -6  133.35    6.72
   6  -6   6    3.78    2.13
  -6  -6  -6   -0.25    2.20
   6  -6   6    1.85    2.19
  -6  -6  -6    1.57    2.41
   7  -6   6   82.54    4.35
  -7  -6  -6  106.22    4.68
   7  -6   6  103.45    4.74
  -7  -6  -6  103.71    4.88
   8  -6   6    3.29    2.17
   8  -6   6    8.88    2.57
  -8  -6  -6    6.99    2.34
   9   6   6   79.92    6.24
   9  -6   6   75.39    6.03
   9  -6   6  106.28    7.92
  -9  -6  -6   96.70    7.99
  10   6   6   44.71    4.33
  10  -6   6   38.20    4.07
  10  -6   6   55.11    5.23
 -10  -6  -6   51.49    4.91
  11   6   6   68.92    4.70
  11  -6   6   65.63    4.84
  11  -6   6   85.49    5.62
 -11  -6  -6   79.41    5.27
  12   6   6    6.06    2.26
  12  -6   6    6.48    2.61
  12  -6   6    7.97    2.96
 -12  -6  -6    5.46    2.57
  13   6   6  109.55    4.89
  13  -6   6  111.39    5.02
  13  -6   6  127.47    5.51
 -13  -6  -6  124.27    5.53
  14   6   6    2.46    2.54
  14  -6   6    2.81    2.41
  14  -6   6    1.95    2.89
 -14  -6  -6    4.12    2.80
  15   6   6  103.93    5.89
  15  -6   6   99.96    6.08
  15  -6   6  104.01    5.99
 -15  -6  -6  112.46    7.52
  16   6   6    1.66    2.66
  16  -6   6    1.44    2.46
  16  -6   6    2.14    2.78
 -16  -6  -6    3.13    3.23
  17   6   6   54.36    3.90
  17  -6   6   56.18    4.24
 -17  -6  -6   59.72    4.50
  18   6   6    0.02    2.91
  18  -6   6   -0.17    3.12
 -18  -6  -6   -0.40    3.58
  19   6   6   61.72    5.68
  19  -6   6   61.37    4.84
 -19  -6  -6   62.90    5.28
  22   7  -6    0.36    2.98
 -22  -7   6   -0.82    3.22
  21   7  -6    3.55    2.82
 -21  -7   6    3.12    2.97
  20   7  -6   38.05    3.30
  20  -7  -6   41.08    3.86
 -20  -7   6   40.08    3.63
  19   7  -6    3.14    2.68
  19  -7  -6    2.20    2.96
 -19  -7   6    1.17    2.83
  18   7  -6   65.28    4.05
  18  -7  -6   73.09    4.23
 -18  -7   6   71.05    4.36
  17   7  -6    1.96    2.42
  17  -7  -6    0.47    2.43
 -17  -7   6    0.69    2.62
  16   7  -6   77.46    5.18
  16  -7  -6   85.99    5.75
 -16  -7   6   85.89    6.01
  15  -7  -6    6.75    2.27
 -15  -7   6    5.94    2.59
  14  -7  -6    8.07    2.54
 -14  -7   6    7.86    2.49
 -13   7   6    2.83    3.13
  13  -7  -6    4.42    2.29
 -13   7   6    2.86    2.17
 -13  -7   6    2.75    2.52
 -12   7   6   19.75    2.86
 -12  -7   6   23.37    2.93
  12  -7  -6   24.83    3.21
 -12   7   6   21.57    2.62
 -12  -7   6   24.34    3.22
 -11   7   6    0.78    1.76
 -11   7   6    0.35    2.07
 -11  -7   6    0.44    2.20
  11  -7  -6    1.67    2.20
 -11   7   6    1.60    2.32
 -11  -7   6    0.94    2.27
 -10   7   6   37.64    3.07
  10  -7  -6   41.90    3.42
 -10  -7   6   42.52    3.15
  10  -7  -6   44.90    3.54
 -10   7   6   40.01    3.41
 -10  -7   6   41.46    3.43
  10   7  -6   40.65    3.52
   9  -7  -6   22.86    2.72
  -9  -7   6   23.44    2.64
   9  -7  -6   23.52    2.87
  -9   7   6   22.82    2.77
  -9  -7   6   23.62    2.93
   9   7  -6   21.72    2.94
  -8   7   6  117.99    8.23
   8  -7  -6  124.47    7.27
  -8  -7   6  125.17    7.11
   8  -7  -6  124.87    7.34
  -8   7   6  133.65    6.20
  -8  -7   6  130.68    6.16
   8   7  -6  129.82    6.29
   7  -7  -6   18.91    2.74
  -7  -7   6   21.75    2.86
  -7   7   6   20.39    2.89
   7   7  -6   22.44    3.04
  -6   7   6  290.19   12.11
   6  -7  -6  272.51   10.00
  -6  -7   6  295.97   10.64
  -6   7   6  285.97   10.28
   6   7  -6  287.73   10.69
   5  -7  -6   14.36    2.44
  -5  -7   6   14.54    2.37
   5   7  -6   15.41    2.75
  -5   7   6   15.97    2.45
  -4   7   6  211.64   10.32
   4  -7  -6  216.57    8.41
  -4  -7   6  197.83    7.88
  -4  -7   6  208.23    8.44
   4   7  -6  196.89    8.28
  -4   7   6  204.24    8.23
  -3   7   6   37.81    8.52
   3  -7  -6   35.87    3.38
  -3  -7   6   40.40    3.38
  -3  -7   6   40.72    3.50
   3   7  -6   36.86    3.54
  -3   7   6   40.63    3.58
  -2   7   6   36.82    3.93
   2  -7  -6   38.23    3.34
  -2  -7   6   34.33    3.27
  -2  -7   6   37.90    3.35
   2   7  -6   37.34    3.55
  -2   7   6   37.07    3.31
   1  -7  -6    5.30    2.28
  -1  -7   6    3.34    1.78
  -1  -7   6    3.10    2.13
   1  -7  -6    2.89    2.23
   1   7  -6    3.64    2.64
  -1   7   6    3.84    2.12
   0   7   6   42.88    3.34
   0  -7  -6   40.68    3.39
   0  -7   6   43.53    3.25
   0  -7  -6   41.83    3.20
   0  -7   6   42.27    3.41
   0  -7  -6   40.78    3.24
   0   7  -6   37.14    3.29
  -1  -7  -6    1.46    1.98
   1  -7   6    1.28    2.05
  -1  -7  -6    0.98    1.89
   1  -7   6    2.42    2.18
  -1   7  -6    2.93    2.25
  -1  -7  -6    2.72    2.19
   2   7   6   51.08    3.85
   2  -7   6   49.74    3.30
  -2  -7  -6   48.47    3.41
   2  -7   6   47.13    3.41
  -2   7  -6   46.94    3.67
  -2  -7  -6   47.06    3.59
   3   7   6   56.69    3.95
   3  -7   6   55.92    3.62
  -3  -7  -6   52.16    3.54
   3  -7   6   49.19    3.67
  -3   7  -6   47.17    3.69
  -3  -7  -6   50.89    3.56
   4   7   6   69.88    4.96
   4  -7   6   72.79    5.04
  -4  -7  -6   69.12    4.94
   4  -7   6   67.01    4.92
  -4  -7  -6   58.39    4.53
   5   7   6   18.71    2.92
   5  -7   6   22.87    2.75
  -5  -7  -6   15.76    2.46
   5  -7   6   17.58    2.72
  -5  -7  -6   11.77    2.59
   6   7   6   63.64    4.01
   6  -7   6   66.55    3.92
  -6  -7  -6   55.35    3.68
   6  -7   6   60.01    3.89
  -6  -7  -6   46.98    3.51
   7  -7   6   -1.33    2.03
  -7  -7  -6    0.55    2.11
   7  -7   6   -1.11    2.13
  -7  -7  -6    1.19    2.44
   8  -7   6   89.11    7.65
   8  -7   6   78.99    7.07
  -8  -7  -6   74.70    6.78
   9  -7   6   50.80    4.67
   9  -7   6   49.06    4.62
  -9  -7  -6   48.14    4.81
  10   7   6    9.99    2.36
  10  -7   6   12.50    2.64
  10  -7   6    5.27    2.58
 -10  -7  -6    8.98    2.63
  11   7   6   19.60    2.77
  11  -7   6   17.97    2.93
  11  -7   6   28.64    3.13
 -11  -7  -6   23.40    3.21
  12   7   6   12.21    2.81
  12  -7   6   11.74    2.82
  12  -7   6    3.99    2.82
 -12  -7  -6    7.31    2.82
  13   7   6    4.95    3.07
  13  -7   6    2.54    2.45
  13  -7   6    2.37    2.71
 -13  -7  -6    5.10    2.71
  14   7   6   16.49    2.99
  14  -7   6   17.94    3.03
  14  -7   6   13.63    3.14
 -14  -7  -6   12.22    2.96
  15   7   6    0.12    2.57
  15  -7   6    1.11    3.01
  15  -7   6    1.16    2.68
 -15  -7  -6   -0.33    3.36
  16   7   6    3.65    2.89
  16  -7   6   -0.91    3.03
 -16  -7  -6    0.51    3.08
  17   7   6   -0.72    2.69
  17  -7   6   -1.60    3.03
 -17  -7  -6    0.79    3.31
  18   7   6    7.09    3.08
  18  -7   6   -0.85    3.52
 -18  -7  -6    3.12    3.24
  22   8  -6    6.18    2.91
 -22  -8   6    4.33    3.47
 -21  -8   6    2.05    3.19
  20   8  -6    0.18    2.60
 -20  -8   6    1.41    3.02
  19   8  -6    0.63    2.65
  19  -8  -6    1.22    2.77
 -19  -8   6    1.56    2.83
  18   8  -6    2.41    2.50
  18  -8  -6   -0.23    2.31
 -18  -8   6    1.30    2.60
  17   8  -6    6.01    2.27
  17  -8  -6    5.62    2.77
 -17  -8   6    4.77    2.50
  16   8  -6    8.47    2.75
  16  -8  -6    7.41    2.57
 -16  -8   6    6.05    2.65
  15  -8  -6   23.75    3.08
 -15  -8   6   22.30    2.95
  14  -8  -6    4.16    2.23
 -14  -8   6    3.30    2.38
  13  -8  -6   20.75    2.71
 -13  -8   6   19.40    2.82
 -12   8   6    3.11    2.58
 -12  -8   6    4.54    2.22
  12  -8  -6    3.17    2.24
 -12   8   6    2.97    2.64
 -12  -8   6    2.73    2.59
 -11   8   6   12.64    2.28
 -11  -8   6   13.18    2.44
  11  -8  -6   10.31    2.14
 -11   8   6   10.05    2.42
 -11  -8   6   12.75    2.89
 -10   8   6   24.31    2.71
 -10  -8   6   25.89    2.57
  10  -8  -6   25.10    3.06
 -10   8   6   26.29    3.15
 -10  -8   6   25.17    3.10
  -9   8   6    3.52    2.11
   9  -8  -6    2.09    2.26
  -9  -8   6    2.05    1.91
   9  -8  -6    3.30    2.05
  -9   8   6    2.23    2.21
  -9  -8   6    2.75    2.15
  -8   8   6   14.90    2.56
   8  -8  -6   16.61    2.55
   8  -8  -6   16.86    2.55
  -8   8   6   17.70    2.84
  -8  -8   6   18.78    2.78
   8   8  -6   18.62    3.09
  -7   8   6    5.46    1.98
   7  -8  -6    4.45    2.20
   7  -8  -6    5.19    1.99
  -7  -8   6    5.57    2.30
  -7   8   6    5.14    2.33
   7   8  -6    3.89    2.45
  -6   8   6    7.63    1.97
   6  -8  -6    7.79    2.04
   6  -8  -6    7.39    2.12
  -6  -8   6    8.39    2.28
  -6   8   6    6.77    2.24
   6   8  -6    5.56    2.56
  -5   8   6    1.55    1.91
   5  -8  -6    1.86    1.91
  -5  -8   6    2.94    1.58
   5  -8  -6    2.27    2.00
  -5  -8   6    2.23    2.18
  -5   8   6    1.66    1.99
   5   8  -6    2.64    2.64
  -4   8   6    2.16    2.12
   4  -8  -6    2.13    1.90
  -4  -8   6    3.56    1.73
   4  -8  -6    5.05    2.20
  -4  -8   6    3.49    2.18
   4   8  -6    3.93    2.54
  -4   8   6    3.91    2.05
  -3   8   6    0.58    1.79
   3  -8  -6    1.26    1.70
  -3  -8   6    1.15    2.08
   3  -8  -6    1.77    1.84
  -3  -8   6    1.03    1.94
   3   8  -6    1.20    2.42
  -3   8   6    1.35    1.93
  -2   8   6   -0.30    1.65
   2  -8  -6    0.30    1.95
  -2  -8   6   -0.45    1.58
  -2  -8   6    0.54    2.02
   2  -8  -6    1.00    2.08
   2   8  -6   -0.97    2.15
  -2   8   6   -0.09    2.46
  -1   8   6    1.66    2.16
   1  -8  -6    1.99    2.19
  -1  -8   6    1.13    1.96
  -1  -8   6    0.44    1.91
   1  -8  -6    0.83    2.05
   1   8  -6    2.48    2.35
  -1   8   6    2.34    2.05
   0   8   6    4.46    2.14
   0  -8  -6    5.19    2.23
   0  -8   6    4.66    2.14
   0  -8   6    3.78    2.45
   0  -8  -6    5.16    2.00
   0   8  -6    3.13    2.61
   0   8   6    5.18    1.93
   1   8   6    2.58    1.89
   1  -8   6    3.31    2.09
  -1  -8  -6    3.27    2.00
   1  -8   6    5.94    2.09
  -1   8  -6    4.29    2.32
  -1  -8  -6    5.05    2.23
   2   8   6   -0.09    2.25
   2  -8   6    1.08    1.92
  -2  -8  -6    0.70    1.80
   2  -8   6    1.50    2.07
  -2  -8  -6    0.07    1.94
   3   8   6   11.23    3.38
   3  -8   6   10.63    2.36
  -3  -8  -6   10.29    2.17
   3  -8   6   11.08    2.61
  -3  -8  -6   10.32    2.60
   4   8   6   19.09    6.03
   4  -8   6   15.71    2.62
  -4  -8  -6   18.81    2.76
   4  -8   6   17.80    2.87
  -4  -8  -6   19.23    2.85
   5   8   6   25.15    2.94
   5  -8   6   28.82    3.04
  -5  -8  -6   23.78    3.20
   5  -8   6   24.23    3.13
  -5  -8  -6   25.88    3.03
   6   8   6    6.84    2.57
   6  -8   6    4.88    2.32
  -6  -8  -6    5.58    2.53
   6  -8   6    5.05    2.39
  -6  -8  -6    5.63    2.43
   7   8   6   -0.44    2.06
   7  -8   6   -0.02    1.88
   7  -8   6    0.84    2.33
  -7  -8  -6   -1.13    1.99
   8   8   6   17.43    2.54
   8  -8   6   12.65    2.88
   8  -8   6   16.07    2.77
  -8  -8  -6   16.15    2.77
   9  -8   6   21.65    2.81
   9  -8   6   26.75    3.19
  -9  -8  -6   23.74    3.14
  10  -8   6    0.13    2.35
  10  -8   6   -0.06    2.27
 -10  -8  -6    0.80    2.82
  11   8   6    0.15    2.28
  11  -8   6   -1.15    2.32
  11  -8   6   -1.16    2.59
 -11  -8  -6    0.17    2.84
  12   8   6   -0.25    2.31
  12  -8   6    0.60    2.46
  12  -8   6   -0.13    2.73
 -12  -8  -6    0.76    2.44
  13   8   6    0.68    2.42
  13  -8   6   -0.76    2.64
  13  -8   6    2.86    2.91
 -13  -8  -6    1.04    2.75
  14   8   6   -0.47    2.36
  14  -8   6    0.61    3.02
  14  -8   6    1.73    2.80
 -14  -8  -6   -0.70    2.85
  15   8   6   -0.44    2.61
  15  -8   6    0.34    3.46
 -15  -8  -6    0.88    2.88
  16   8   6   -1.80    2.61
  16  -8   6    3.37    2.95
 -16  -8  -6    2.32    3.44
  17   8   6    2.80    3.17
  17  -8   6    0.51    3.02
 -17  -8  -6    0.63    3.47
  18   8   6    8.66    3.24
  18  -8   6   12.59    3.83
 -18  -8  -6   14.66    4.06
  21   9  -6    3.92    2.85
 -21  -9   6    7.44    3.61
  20   9  -6   14.52    3.03
 -20  -9   6   21.44    3.85
  19   9  -6   -0.66    2.69
  19  -9  -6    0.46    2.65
 -19  -9   6    1.00    3.19
  18   9  -6   31.39    3.30
  18  -9  -6   39.69    3.71
 -18  -9   6   36.58    3.83
  17   9  -6    0.93    2.38
  17  -9  -6   -0.06    2.57
 -17  -9   6   -0.91    3.09
  16   9  -6   36.90    3.35
  16  -9  -6   40.68    3.39
 -16  -9   6   38.06    3.52
  15   9  -6    1.08    2.29
  15  -9  -6   -0.22    2.26
 -15  -9   6    0.45    2.33
  14   9  -6    0.75    2.06
  14  -9  -6    2.97    2.08
 -14  -9   6    3.58    2.61
  13  -9  -6    2.75    2.09
 -13  -9   6    0.47    2.19
  12  -9  -6    9.18    2.70
 -12  -9   6    6.37    2.74
 -11   9   6   -0.56    2.20
 -11  -9   6    0.07    2.27
  11  -9  -6    0.68    2.40
 -11   9   6    0.10    2.57
 -11  -9   6   -0.94    2.46
 -10   9   6    9.21    2.32
 -10  -9   6   13.21    2.68
  10  -9  -6   11.17    2.44
 -10   9   6   11.22    2.48
 -10  -9   6   13.61    2.64
  -9   9   6    7.33    2.11
   9  -9  -6    7.95    2.27
  -9   9   6    7.78    2.57
  -9  -9   6    8.71    2.57
  -8   9   6   22.14    2.68
   8  -9  -6   25.82    2.92
   8  -9  -6   25.52    2.91
  -8  -9   6   29.13    3.26
  -8   9   6   27.82    2.97
  -7   9   6   15.06    8.38
   7  -9  -6   15.10    2.63
   7  -9  -6   14.49    2.53
  -7  -9   6   13.38    2.83
  -7   9   6   16.28    2.99
  -6   9   6  238.37    9.69
   6  -9  -6  240.81    9.73
  -6  -9   6  247.94    9.93
   6  -9  -6  252.01   10.33
  -6  -9   6  244.59   10.03
  -6   9   6  249.83   10.17
  -5   9   6    0.55    1.97
   5  -9  -6    0.15    2.21
  -5  -9   6    0.71    1.97
   5  -9  -6    1.13    2.02
  -5  -9   6    0.66    2.24
  -5   9   6    0.89    2.22
  -4   9   6  153.18    6.94
   4  -9  -6  157.84    6.69
  -4  -9   6  154.86    6.71
   4  -9  -6  158.70    7.01
  -4  -9   6  157.34    7.43
  -4   9   6  142.20    6.34
  -3   9   6    8.62    4.22
   3  -9  -6    8.67    2.24
  -3  -9   6    7.91    2.24
   3  -9  -6    8.88    2.75
  -3  -9   6    6.98    2.21
  -3   9   6    8.42    2.62
  -2   9   6   37.44    3.43
   2  -9  -6   36.93    3.22
  -2  -9   6   35.86    2.84
  -2  -9   6   40.83    3.51
   2  -9  -6   36.06    3.35
  -2   9   6   37.86    3.30
  -1   9   6   19.56   10.27
   1  -9  -6   22.42    2.67
  -1  -9   6   21.37    2.59
  -1  -9   6   20.43    2.71
   1  -9  -6   19.95    2.96
  -1   9   6   20.72    2.43
   0   9   6   64.05    4.57
   0  -9   6   66.26    4.80
   0  -9   6   73.46    5.12
   0  -9  -6   66.16    4.99
   0   9   6   68.48    4.86
   1  -9   6    0.47    2.15
   1  -9   6    0.93    2.00
  -1  -9  -6    0.74    2.10
   1   9   6    0.18    1.97
   2   9   6   77.41    4.13
   2  -9   6   75.65    5.02
  -2  -9  -6   73.30    3.99
   2  -9   6   75.18    4.12
  -2  -9  -6   75.03    4.34
   3  -9   6    1.69    2.60
  -3  -9  -6    3.09    2.48
   3  -9   6    1.94    2.06
  -3  -9  -6    2.66    2.67
   4   9   6   96.91    4.53
   4  -9   6   96.61    4.49
  -4  -9  -6   96.07    8.04
   4  -9   6   94.19    8.08
  -4  -9  -6   94.56    8.01
   5   9   6    5.32    4.19
   5  -9   6    5.53    2.19
  -5  -9  -6    5.55    2.36
   5  -9   6    6.27    2.49
  -5  -9  -6    4.99    2.59
   6   9   6  108.75    7.89
   6  -9   6  113.28    5.08
   6  -9   6  105.88    7.84
  -6  -9  -6   98.07    7.61
   7   9   6   16.40    4.83
   7  -9   6   17.33    2.75
   7  -9   6   14.08    2.65
  -7  -9  -6   18.54    2.77
   8   9   6  123.81    5.23
   8  -9   6  125.56    5.46
   8  -9   6  119.29    5.47
  -8  -9  -6   98.86    4.95
   9   9   6   24.47    2.99
   9  -9   6   26.46    3.34
   9  -9   6   23.44    3.00
  -9  -9  -6   20.51    3.11
  10  -9   6   25.30    3.12
  10  -9   6   20.73    3.10
 -10  -9  -6   16.86    3.07
  11  -9   6   30.65    3.47
  11  -9   6   34.89    3.79
 -11  -9  -6   39.35    4.02
  12   9   6    6.92    2.52
  12  -9   6    7.70    2.71
  12  -9   6    7.07    2.89
 -12  -9  -6    3.84    2.83
  13   9   6    0.84    2.42
  13  -9   6    0.94    2.42
  13  -9   6    3.78    3.15
 -13  -9  -6   -0.44    2.54
  14   9   6   17.59    3.00
  14  -9   6   11.52    3.04
 -14  -9  -6   14.93    3.36
  15   9   6    2.25    2.65
  15  -9   6    5.75    3.37
 -15  -9  -6    2.89    3.39
  16   9   6   10.00    3.10
  16  -9   6    8.35    3.52
 -16  -9  -6    5.74    3.36
  17   9   6    2.60    3.10
  17  -9   6    2.67    3.03
 -17  -9  -6    2.57    3.21
 -21 -10   6    3.55    3.68
  20  10  -6   48.12    3.87
 -20 -10   6   48.48    4.15
  19  10  -6    2.65    2.52
 -19 -10   6   -0.18    2.98
  18  10  -6   87.68    4.41
 -18 -10   6   89.80    4.74
  17  10  -6    0.54    2.52
  17 -10  -6    2.45    2.98
 -17 -10   6   -1.09    2.84
  16  10  -6  120.48    6.23
  16 -10  -6  112.66    6.19
 -16 -10   6  110.04    6.07
  15  10  -6    6.29    2.43
  15 -10  -6    8.83    2.92
 -15 -10   6    9.99    2.88
  14  10  -6   77.33    6.54
  14 -10  -6   79.89    7.04
 -14 -10   6   75.51    6.66
  13  10  -6    2.40    2.54
  13 -10  -6    1.42    2.17
 -13 -10   6    0.92    2.47
  12 -10  -6   72.07    5.43
 -12 -10   6   70.47    5.12
 -11 -10   6    3.09    2.61
  11 -10  -6    3.31    2.07
 -11 -10   6    4.90    2.63
 -10  10   6    9.29    2.33
  10 -10  -6    7.88    2.64
 -10 -10   6    6.16    2.86
  -9  10   6   12.31    2.65
   9 -10  -6   12.06    2.57
  -9  10   6   16.21    2.75
  -9 -10   6   17.05    2.70
  -8  10   6  103.21    7.41
   8 -10  -6  105.54    7.75
  -8 -10   6   87.18    6.84
  -8  10   6   84.26    6.48
  -7  10   6    8.21    2.66
   7 -10  -6    5.97    2.29
  -7 -10   6   13.29    2.44
   7 -10  -6   10.32    2.81
  -7 -10   6   13.86    3.22
  -7  10   6   12.23    2.54
  -6  10   6  143.89    6.00
   6 -10  -6  146.28    6.09
  -6 -10   6  119.20    5.43
   6 -10  -6  130.90    6.03
  -6 -10   6  130.40    5.80
  -6  10   6  126.39    5.49
  -5  10   6   82.70    7.60
   5 -10  -6   78.32    6.94
  -5 -10   6  103.78    4.95
   5 -10  -6  104.30    5.39
  -5 -10   6   99.60    5.23
  -5  10   6   96.61    4.50
  -4  10   6   15.92    2.68
   4 -10  -6   20.61    2.81
  -4 -10   6    9.05    2.22
   4 -10  -6   10.23    2.61
  -4 -10   6   13.09    2.77
  -4  10   6   11.47    2.55
  -3  10   6    9.36    2.26
   3 -10  -6    7.78    2.26
  -3 -10   6   13.74    2.45
   3 -10  -6   14.09    2.56
  -3 -10   6   11.57    2.68
  -3  10   6   14.52    2.73
  -2  10   6   25.99    2.66
   2 -10  -6   30.44    2.91
  -2 -10   6   17.77    2.64
  -2 -10   6   21.96    2.97
   2 -10  -6   22.04    3.13
  -2  10   6   20.14    2.60
  -1  10   6    0.41    1.83
  -1 -10   6    1.95    2.08
  -1 -10   6    3.18    2.22
   1 -10  -6    3.05    2.29
  -1  10   6    2.37    2.18
   0 -10   6    1.73    2.01
   0 -10   6   -1.49    2.11
   0 -10  -6    1.15    2.14
   0  10   6    0.26    2.34
   1  10   6   25.23    5.33
   1 -10   6   32.04    3.17
   1 -10   6   41.10    4.25
  -1 -10  -6   40.63    4.57
   1  10   6   35.79    3.33
   2  10   6   47.19    9.73
   2 -10   6   39.26    5.95
   2 -10   6   32.96    3.34
  -2 -10  -6   28.38    2.99
   3  10   6  126.35    6.46
   3 -10   6  125.70    5.69
  -3 -10  -6  130.07    5.82
   3 -10   6  140.32    6.20
  -3 -10  -6  152.79    6.45
   4  10   6   16.16    5.16
   4 -10   6   16.59    2.68
  -4 -10  -6   14.18    2.67
   4 -10   6   13.05    2.71
  -4 -10  -6   12.10    2.90
   5  10   6  108.33    7.88
   5 -10   6  108.33    7.81
   5 -10   6  120.36    5.07
  -5 -10  -6  134.08    5.49
   6  10   6    4.36    2.85
   6 -10   6    7.95    2.73
   6 -10   6    5.98    2.55
  -6 -10  -6    4.27    2.49
   7  10   6   51.22    4.32
   7 -10   6   48.30    3.63
   7 -10   6   49.79    3.49
  -7 -10  -6   61.88    4.75
   8  10   6   18.10    2.68
   8 -10   6   18.09    4.57
   8 -10   6   19.79    3.11
  -8 -10  -6   28.02    3.37
   9  10   6   11.13    2.63
   9 -10   6   10.50    2.69
   9 -10   6   14.19    2.85
  -9 -10  -6   19.63    2.88
  10  10   6    4.02    2.62
  10 -10   6    2.79    2.70
  10 -10   6    4.30    2.83
 -10 -10  -6    3.88    2.51
  11 -10   6   95.78    5.32
  11 -10   6  115.89    5.97
 -11 -10  -6  121.14    6.23
  12 -10   6    2.98    3.19
  12 -10   6    2.23    2.98
 -12 -10  -6    1.11    2.67
  13  10   6   49.72    4.20
  13 -10   6   65.98    4.30
 -13 -10  -6   66.59    4.46
  14  10   6    4.85    2.87
  14 -10   6    6.15    3.11
 -14 -10  -6    5.09    3.91
  15  10   6   91.95    4.59
  15 -10   6  108.82    5.97
 -15 -10  -6  119.15    6.07
  16  10   6    1.11    2.93
  16 -10   6   -0.03    3.10
 -16 -10  -6    2.34    3.12
  20  11  -6   30.98    3.61
 -20 -11   6   35.07    3.68
  19  11  -6    1.89    2.83
 -19 -11   6    2.11    2.88
  18  11  -6   34.45    3.55
 -18 -11   6   37.30    4.21
  17  11  -6    4.90    3.07
 -17 -11   6    3.04    3.93
  16  11  -6   61.08    4.09
  16 -11  -6   69.01    5.13
 -16 -11   6   65.74    4.31
  15  11  -6    5.05    2.39
  15 -11  -6    5.86    2.92
 -15 -11   6    8.23    2.91
  14  11  -6   60.11    4.09
  14 -11  -6   66.58    4.20
 -14 -11   6   66.38    4.22
  13  11  -6    7.90    2.39
  13 -11  -6   11.81    2.53
 -13 -11   6   11.72    2.86
  12 -11  -6   73.02    6.65
 -12 -11   6   73.50    6.56
  11 -11  -6    5.66    2.26
 -11 -11   6    5.20    2.84
  10 -11  -6  109.19    5.55
 -10 -11   6  113.18    5.33
  -9  11   6   11.15    2.55
   9 -11  -6   11.91    2.95
  -9 -11   6    7.38    2.57
  -8  11   6  217.46    7.07
  -8 -11   6  230.98    7.53
   8 -11  -6  222.92    7.64
  -8 -11   6  238.69    7.76
  -7  11   6   97.25    7.17
  -7 -11   6  111.83    4.66
   7 -11  -6  109.27    5.07
  -7 -11   6  114.27    5.04
  -7  11   6  106.93    7.61
  -6  11   6   66.31    5.37
  -6 -11   6   67.79    5.38
   6 -11  -6   68.51    5.83
  -6 -11   6   69.38    5.83
  -6  11   6   65.31    5.42
  -5  11   6   55.17    7.26
   5 -11  -6   55.93    4.79
  -5 -11   6   53.23    4.74
   5 -11  -6   54.21    4.94
  -5 -11   6   54.82    5.09
  -5  11   6   54.66    4.86
  -4  11   6  171.28    6.59
   4 -11  -6  171.56    6.79
  -4 -11   6  180.58    6.79
  -4 -11   6  183.46    7.11
  -4  11   6  203.63    7.35
   3 -11  -6   -0.18    2.26
  -3 -11   6    0.58    2.42
   3 -11  -6    0.88    2.35
  -3 -11   6    0.31    2.37
  -3  11   6    1.40    2.13
  -2  11   6  253.45    9.26
  -2 -11   6  243.16    8.27
  -2 -11   6  256.44    8.73
   2 -11  -6  244.50    8.81
  -2  11   6  246.13    8.47
  -1 -11   6    5.63    2.34
  -1 -11   6    8.22    2.66
   1 -11  -6    6.65    2.57
  -1  11   6    6.07    2.62
   0  11   6  139.46    6.00
   0 -11   6  139.07    6.02
   0 -11   6  133.40    5.94
   0 -11  -6  138.65    6.27
   0  11   6  140.49    6.07
   1 -11   6    0.98    2.13
   1 -11   6    0.51    2.14
  -1 -11  -6    0.65    2.13
   1  11   6    0.18    2.07
   2  11   6  268.38    7.14
   2 -11   6  272.90    7.35
   2 -11   6  245.83    6.95
  -2 -11  -6  254.89    7.32
   2  11   6  266.31    7.17
   3 -11   6    6.83    2.32
   3 -11   6    4.25    2.37
  -3 -11  -6    6.67    2.39
   4  11   6  236.83    7.94
   4 -11   6  227.92    7.51
   4 -11   6  211.69    7.41
  -4 -11  -6  196.56    7.09
   5 -11   6    1.52    3.65
   5 -11   6    2.16    2.60
  -5 -11  -6    2.14    2.33
   6  11   6   91.73    5.79
   6 -11   6   94.57    5.98
   6 -11   6   87.32    5.84
  -6 -11  -6   82.90    6.01
   7  11   6    3.00    5.09
   7 -11   6    5.85    2.52
   7 -11   6    6.72    2.48
  -7 -11  -6    1.66    2.65
   8  11   6  124.32    5.26
   8 -11   6  133.39    5.40
   8 -11   6  126.34    5.42
  -8 -11  -6  110.24    5.51
   9  11   6   12.75    2.52
   9 -11   6   11.54    6.62
   9 -11   6   15.86    3.01
  -9 -11  -6   18.98    3.12
  10  11   6   55.89    3.74
  10 -11   6   59.84    3.91
  10 -11   6   50.20    3.95
 -10 -11  -6   39.77    3.62
  11  11   6    1.65    2.69
  11 -11   6    2.94    4.35
  11 -11   6   -0.29    2.61
 -11 -11  -6    0.17    2.68
  12 -11   6   72.01    4.58
 -12 -11  -6   67.47    4.43
  13 -11   6    2.08    3.26
 -13 -11  -6    3.52    3.23
  14  11   6   30.58    3.68
  14 -11   6   16.60    3.58
 -14 -11  -6   16.35    3.35
  15  11   6    1.87    3.07
  15 -11   6    2.13    3.25
 -15 -11  -6   -1.27    3.06
  16  11   6    5.09    2.86
  16 -11   6    1.38    3.28
 -16 -11  -6    0.69    3.87
  19  12  -6    1.26    2.55
 -19 -12   6    2.89    3.36
  18  12  -6   29.73    3.22
 -18 -12   6   28.55    3.54
  17  12  -6   -0.49    2.57
  16  12  -6   30.51    3.09
 -16 -12   6   26.34    3.63
  15  12  -6    0.77    2.41
  15 -12  -6   -0.75    2.70
 -15 -12   6    4.16    2.95
  14  12  -6   32.64    3.47
  14 -12  -6   26.85    3.50
 -14 -12   6   28.89    3.44
  13  12  -6    0.89    1.99
  13 -12  -6    0.80    2.97
 -13 -12   6    1.02    2.47
  12 -12  -6   43.17    3.80
 -12 -12   6   38.28    3.74
  11 -12  -6    2.76    2.30
 -11 -12   6    6.08    2.51
  10 -12  -6   55.12    4.38
 -10 -12   6   51.35    4.11
  -9 -12   6    2.40    2.36
   9 -12  -6    4.85    2.22
  -9 -12   6    0.84    2.33
  -8  12   6    1.75    2.14
  -8 -12   6    6.99    2.10
   8 -12  -6    4.30    2.38
  -8 -12   6    7.82    2.69
  -7  12   6    7.85    2.78
  -7 -12   6    9.48    2.36
   7 -12  -6    7.96    2.69
  -7 -12   6    7.75    2.59
  -6  12   6    2.21    2.12
  -6 -12   6    4.88    2.22
   6 -12  -6    3.94    2.44
  -6 -12   6    2.85    2.34
  -5  12   6    0.22    2.17
  -5 -12   6    3.69    2.28
   5 -12  -6    3.04    2.80
  -5 -12   6   -0.71    2.42
  -4  12   6   57.04    4.11
  -4 -12   6   39.25    3.29
   4 -12  -6   36.92    3.37
  -4 -12   6   45.41    3.71
  -4  12   6   43.24    3.34
  -3  12   6    2.02    1.95
  -3 -12   6    7.81    2.30
   3 -12  -6    5.58    2.27
  -3 -12   6    4.20    2.09
  -3  12   6    6.08    2.68
  -2  12   6    1.71    2.29
  -2 -12   6    1.19    2.52
  -2 -12   6   -0.48    2.05
   2 -12  -6    0.68    2.31
  -2  12   6    0.12    2.12
  -1  12   6    1.88    2.35
  -1 -12   6    1.80    2.24
  -1 -12   6    1.81    2.31
   1 -12  -6    0.77    2.28
  -1  12   6    1.34    2.40
   0  12   6    3.05    2.08
   0 -12   6    3.04    2.17
   0 -12   6    3.45    2.76
   0 -12  -6    3.80    2.62
   0  12   6    2.63    2.29
   1  12   6    1.41    1.99
   1 -12   6    3.77    2.31
   1 -12   6    6.62    2.34
  -1 -12  -6    3.46    2.32
   2 -12   6    6.36    2.38
   2 -12   6    7.85    2.55
  -2 -12  -6    8.61    2.88
   3  12   6   23.26    2.81
   3 -12   6   22.67    3.05
   3 -12   6   31.65    3.42
  -3 -12  -6   34.63    3.63
   4  12   6   12.20    4.08
   4 -12   6   14.28    2.63
   4 -12   6   20.69    2.85
  -4 -12  -6   24.13    3.08
   5  12   6   17.69    2.82
   5 -12   6   15.74    2.74
   5 -12   6   22.84    3.01
  -5 -12  -6   23.46    3.14
   6  12   6    2.06    2.31
   6 -12   6   -0.31    2.35
   6 -12   6   -0.93    2.30
  -6 -12  -6    0.08    2.43
   7  12   6   15.69    2.89
   7 -12   6   14.06    3.06
   7 -12   6   19.29    3.27
  -7 -12  -6   21.41    3.24
   8  12   6    0.77    2.93
   8 -12   6   -0.07    2.57
   8 -12   6    1.25    2.85
  -8 -12  -6    1.79    2.67
   9  12   6   44.80    3.75
   9 -12   6   43.18    3.70
   9 -12   6   47.44    3.80
  -9 -12  -6   56.28    4.28
  10  12   6    3.39    2.78
  10 -12   6    3.42    2.91
  10 -12   6    1.61    2.54
 -10 -12  -6    2.28    2.68
  11  12   6   33.25    3.43
  11 -12   6   38.89    3.60
 -11 -12  -6   40.75    3.77
  12  12   6    0.80    2.79
  12 -12   6    1.57    3.10
 -12 -12  -6   -0.12    3.24
  13 -12   6   16.40    3.57
 -13 -12  -6   18.07    3.37
  14 -12   6   16.88    3.76
  15  12   6    8.02    3.03
  15 -12   6   14.00    4.10
 -15 -12  -6   14.87    3.44
  18  13  -6   -0.70    3.36
 -18 -13   6    1.61    3.07
  17  13  -6    0.35    2.65
 -17 -13   6    3.92    3.42
  16  13  -6    5.81    2.65
 -16 -13   6    2.99    2.81
  15  13  -6    6.65    2.73
 -15 -13   6   10.57    3.09
  14  13  -6    7.19    2.48
 -14 -13   6    5.75    2.87
  13  13  -6   12.24    2.74
  13 -13  -6   11.63    2.99
 -13 -13   6   11.36    3.03
  12 -13  -6    4.64    2.87
 -12 -13   6    5.36    3.05
  11 -13  -6   15.62    2.94
 -11 -13   6   20.29    3.17
 -10 -13   6   33.19    2.96
  10 -13  -6   29.51    3.26
 -10 -13   6   31.77    3.52
  -9 -13   6   39.15    4.09
   9 -13  -6   37.33    3.84
  -9 -13   6   41.74    4.25
  -8 -13   6    3.30    2.49
   8 -13  -6    1.20    2.50
  -8 -13   6    3.05    2.87
  -7  13   6    4.15    2.40
  -7 -13   6    1.71    2.56
   7 -13  -6    3.16    2.40
  -7 -13   6    4.11    2.31
  -6  13   6    0.59    2.21
  -6 -13   6    1.94    2.34
   6 -13  -6   -0.91    2.47
  -6 -13   6   -1.07    2.47
  -5  13   6   14.33    2.73
  -5 -13   6   19.52    2.62
   5 -13  -6   21.26    2.98
  -5 -13   6   17.30    2.93
  -4  13   6    5.36    2.43
  -4 -13   6    4.68    2.33
   4 -13  -6    5.51    2.72
  -4 -13   6    4.73    2.55
  -3  13   6   30.52    3.09
  -3 -13   6   28.78    3.10
   3 -13  -6   26.77    3.51
  -3 -13   6   28.28    3.22
  -2  13   6   14.55    2.56
  -2 -13   6   12.42    2.78
  -2 -13   6   14.14    2.59
   2 -13  -6   14.79    3.17
  -1  13   6   20.85    2.65
  -1 -13   6   19.38    2.74
  -1 -13   6   18.97    3.06
   1 -13  -6   19.49    2.99
   0  13   6    4.03    2.17
   0 -13   6    4.50    2.35
   0 -13   6    1.08    2.28
   0 -13  -6    3.82    2.39
   1  13   6    4.38    2.39
   1 -13   6    3.66    2.25
   1 -13   6    4.57    2.53
  -1 -13  -6    4.32    2.73
   2  13   6    0.01    2.08
   2 -13   6    1.56    2.37
   2 -13   6    0.58    2.36
  -2 -13  -6    0.05    2.59
   3  13   6    5.06    2.38
   3 -13   6    4.25    2.38
   3 -13   6    3.79    2.64
  -3 -13  -6    4.00    3.03
   4  13   6    3.10    2.32
   4 -13   6    2.13    2.40
   4 -13   6    1.37    3.10
  -4 -13  -6    4.81    2.80
   5  13   6    1.39    2.51
   5 -13   6    1.90    2.50
   5 -13   6    0.51    2.93
  -5 -13  -6    1.46    2.56
   6  13   6   25.40    3.08
   6 -13   6   24.87    3.35
   6 -13   6   22.37    3.06
  -6 -13  -6   20.02    3.10
   7  13   6    0.66    2.44
   7 -13   6   -0.58    2.39
   7 -13   6   -0.63    3.05
  -7 -13  -6    0.03    2.85
   8  13   6    2.95    3.12
   8 -13   6    3.13    2.50
   8 -13   6    2.84    2.84
  -8 -13  -6    5.91    3.21
   9  13   6   25.74    3.11
   9 -13   6   27.45    3.36
   9 -13   6   26.33    3.45
  -9 -13  -6   28.13    4.00
  10  13   6    0.52    2.70
  10 -13   6    3.34    3.48
 -10 -13  -6    3.29    3.30
  11  13   6   -0.68    2.93
  11 -13   6    2.45    2.98
 -11 -13  -6    2.05    2.79
  12  13   6    1.84    3.06
  12 -13   6    0.49    2.83
 -12 -13  -6    2.67    3.16
  13  13   6   -1.23    3.09
  13 -13   6    3.28    2.98
 -13 -13  -6    0.45    3.08
  14 -13   6   -0.36    2.91
 -14 -13  -6   -0.90    3.06
  17  14  -6    0.88    3.33
 -17 -14   6    2.28    3.33
  16  14  -6   14.62    3.39
 -16 -14   6   16.01    3.47
  15  14  -6    7.22    2.94
 -15 -14   6   10.59    5.65
  14  14  -6   29.96    3.57
 -14 -14   6   29.85    3.63
  13  14  -6    3.40    2.75
 -13 -14   6   -1.68    2.93
 -12 -14   6    7.78    3.23
 -11 -14   6   11.83    3.01
  11 -14  -6    9.41    2.72
 -11 -14   6    9.87    3.44
 -10 -14   6    9.07    2.90
  10 -14  -6    7.46    2.93
 -10 -14   6   10.48    3.40
  -9 -14   6    1.98    2.33
   9 -14  -6    0.00    2.67
  -9 -14   6    1.71    2.64
  -8 -14   6   25.78    3.17
   8 -14  -6   26.51    3.13
  -8 -14   6   25.90    3.28
  -7 -14   6   42.67    4.06
   7 -14  -6   44.55    4.41
  -7 -14   6   43.09    4.18
  -6  14   6   44.02    3.94
  -6 -14   6   45.09    4.30
   6 -14  -6   44.17    4.25
  -6 -14   6   43.56    4.43
  -5  14   6   32.27    3.52
  -5 -14   6   34.78    3.75
   5 -14  -6   37.10    4.14
  -5 -14   6   33.53    3.73
  -4  14   6   38.86    3.86
  -4 -14   6   39.73    3.95
   4 -14  -6   43.13    4.09
  -4 -14   6   40.88    4.28
  -3  14   6   10.84    2.39
  -3 -14   6    7.48    2.62
   3 -14  -6    8.14    2.65
  -3 -14   6    7.91    2.69
  -2  14   6   32.17    3.49
  -2 -14   6   33.49    3.55
  -2 -14   6   35.48    3.85
   2 -14  -6   34.55    4.00
  -1  14   6    0.76    2.45
  -1 -14   6    0.91    2.39
  -1 -14   6    1.99    2.63
   1 -14  -6    1.75    2.48
   0  14   6   16.83    2.91
   0 -14   6   19.86    2.84
   0 -14   6   17.00    2.90
   0 -14  -6   18.21    3.23
   1  14   6   -0.09    2.37
   1 -14   6    1.70    2.16
   1 -14   6    0.54    2.80
  -1 -14  -6    1.45    2.59
   2  14   6   17.39    3.09
   2 -14   6   19.25    2.86
   2 -14   6   20.13    3.35
  -2 -14  -6   19.87    3.25
   3  14   6   50.31    4.10
   3 -14   6   49.88    3.89
   3 -14   6   51.10    3.96
  -3 -14  -6   57.22    4.24
   4 -14   6    0.63    2.48
   4 -14   6    1.61    2.86
  -4 -14  -6    1.62    2.69
   5  14   6   27.83    3.15
   5 -14   6   28.35    3.20
   5 -14   6   32.57    3.65
  -5 -14  -6   32.37    3.46
   6  14   6   58.33    4.40
   6 -14   6   53.95    3.84
   6 -14   6   58.48    4.46
  -6 -14  -6   54.99    4.29
   7  14   6   22.19    3.24
   7 -14   6   21.60    3.23
   7 -14   6   28.79    3.49
  -7 -14  -6   31.89    3.43
   8  14   6   -1.21    3.13
   8 -14   6    0.30    2.85
   8 -14   6   -0.16    3.73
  -8 -14  -6   -1.84    2.85
   9  14   6    7.13    3.01
   9 -14   6    5.46    3.02
  -9 -14  -6    6.22    3.04
  10  14   6    4.48    2.73
  10 -14   6    2.80    3.42
 -10 -14  -6    5.95    2.96
  11  14   6   15.35    3.28
  11 -14   6   12.63    3.50
 -11 -14  -6   12.52    3.59
  12  14   6   18.69    3.29
  12 -14   6   18.86    3.39
 -12 -14  -6   16.50    3.66
  15  15  -6    0.02    3.04
  14  15  -6   18.29    3.28
 -14 -15   6   21.07    3.69
 -12 -15   6   84.35    4.83
 -11 -15   6    4.65    4.07
 -11 -15   6    2.04    3.06
 -10 -15   6   56.11    3.85
 -10 -15   6   52.64    4.06
  -9 -15   6   -0.06    2.52
   9 -15  -6    0.14    2.74
  -9 -15   6    2.19    2.84
  -8 -15   6   12.02    2.67
   8 -15  -6   11.58    2.88
  -8 -15   6   11.41    3.21
  -7 -15   6    3.56    4.06
   7 -15  -6    2.85    2.71
  -7 -15   6    1.55    2.83
  -6 -15   6   71.30    4.06
   6 -15  -6   73.60    4.55
  -6 -15   6   68.66    4.48
  -5 -15   6    6.35    2.45
   5 -15  -6    5.73    2.56
  -5 -15   6    7.20    2.99
  -4  15   6   64.20    3.80
  -4 -15   6   72.76    4.18
   4 -15  -6   74.43    4.35
  -4 -15   6   70.06    4.36
  -3  15   6   -0.58    2.51
  -3 -15   6   -1.06    2.68
   3 -15  -6   -0.21    2.71
  -3 -15   6    1.88    2.69
  -2  15   6   57.61    4.09
  -2 -15   6   61.80    4.06
  -2 -15   6   60.10    4.07
   2 -15  -6   58.08    4.21
  -1 -15   6    5.60    2.64
  -1 -15   6    2.14    2.98
   1 -15  -6    2.52    2.65
   0  15   6  101.81    5.12
   0 -15   6  102.28    5.26
   0 -15   6  102.38    5.48
   0 -15  -6  103.50    5.64
   1  15   6    0.68    2.19
   1 -15   6    0.89    2.48
   1 -15   6    0.41    2.77
  -1 -15  -6    1.67    2.63
   2  15   6   72.57    4.18
   2 -15   6   75.77    4.33
   2 -15   6   73.87    4.68
  -2 -15  -6   73.58    4.77
   3  15   6   -0.32    2.31
   3 -15   6   -0.15    2.26
   3 -15   6   -1.22    2.57
  -3 -15  -6    0.06    2.73
   4  15   6   56.85    3.96
   4 -15   6   55.39    3.93
   4 -15   6   56.48    4.39
  -4 -15  -6   55.74    4.33
   5  15   6    2.36    2.46
   5 -15   6    4.13    2.51
   5 -15   6    5.01    2.84
  -5 -15  -6    3.83    2.43
   6  15   6   96.33    4.85
   6 -15   6   96.01    4.93
   6 -15   6   93.40    4.95
  -6 -15  -6   91.46    4.93
   7 -15   6    1.68    2.50
   7 -15   6    0.10    3.23
  -7 -15  -6    2.60    3.10
   8  15   6   37.39    3.60
   8 -15   6   33.24    4.04
  -8 -15  -6   29.84    3.71
   9  15   6    2.68    2.49
   9 -15   6    3.03    3.50
  -9 -15  -6    4.13    2.87
  10  15   6   13.39    3.08
  10 -15   6    9.83    3.27
 -10 -15  -6    7.42    3.40
  11  15   6   -2.13    2.83
  11 -15   6    1.65    3.04
 -11 -15  -6    1.20    4.16
 -14 -16   6   21.41    3.93
 -13 -16   6   12.45    3.06
 -12 -16   6   69.07    4.39
 -12 -16   6   64.14    4.57
 -11 -16   6    5.22    4.73
 -11 -16   6    6.59    3.22
 -10 -16   6   40.63    3.77
 -10 -16   6   39.67    4.27
  -9 -16   6    2.22    3.57
  -9 -16   6    5.83    3.36
  -8 -16   6   11.21    2.89
  -8 -16   6    9.29    3.30
  -7 -16   6    7.49    3.17
   7 -16  -6    3.44    3.26
  -7 -16   6    3.90    2.94
  -6 -16   6   10.95    3.05
   6 -16  -6    9.35    3.34
  -6 -16   6    9.00    3.11
  -5 -16   6   12.96    2.76
   5 -16  -6   12.48    3.07
  -5 -16   6   11.28    2.86
  -4 -16   6   35.05    3.36
   4 -16  -6   35.48    3.81
  -4 -16   6   36.77    3.52
  -3  16   6   23.14    3.05
  -3 -16   6   28.51    3.63
  -3 -16   6   24.57    3.47
   3 -16  -6   28.80    3.62
  -2  16   6   34.69    3.83
  -2 -16   6   27.57    3.25
   2 -16  -6   29.40    3.82
  -2 -16   6   28.65    3.65
  -1  16   6   18.70    3.65
  -1 -16   6   27.23    3.43
  -1 -16   6   27.97    3.37
   1 -16  -6   25.48    3.62
   0  16   6   24.44    5.00
   0 -16   6   17.52    2.84
   0 -16   6   15.50    3.55
   0 -16  -6   16.55    3.11
   1  16   6   68.37    4.30
   1 -16   6   77.51    5.08
   1 -16   6   83.72    5.48
  -1 -16  -6   81.58    5.39
   2  16   6    3.36    4.09
   2 -16   6    3.25    2.72
   2 -16   6    3.53    3.09
  -2 -16  -6    2.51    2.74
   3  16   6   24.52    3.11
   3 -16   6   26.26    3.41
   3 -16   6   28.44    3.64
  -3 -16  -6   30.08    4.51
   4  16   6   16.66    3.01
   4 -16   6   15.69    2.76
   4 -16   6   13.10    3.23
  -4 -16  -6   13.27    3.54
   5  16   6   20.76    3.12
   5 -16   6   23.90    3.44
   5 -16   6   31.14    3.63
  -5 -16  -6   33.32    4.05
   6 -16   6   -0.72    3.30
  -6 -16  -6    0.16    2.97
   7  16   6   32.37    3.57
   7 -16   6   31.07    3.78
  -7 -16  -6   43.91    4.34
   8  16   6   12.52    5.29
   8 -16   6   15.06    3.24
  -8 -16  -6   10.39    3.24
   9  16   6   85.68    4.63
   9 -16   6   97.20    5.17
  -9 -16  -6  115.08    5.64
 -12 -17   6    2.36    3.32
 -12 -17   6    1.70    3.87
 -11 -17   6    9.68    3.39
 -11 -17   6   10.58    3.74
 -10 -17   6   50.35    3.88
 -10 -17   6   49.29    4.53
  -9 -17   6    3.76    5.79
  -9 -17   6    1.99    3.42
  -8 -17   6   44.64    3.73
  -8 -17   6   39.91    4.26
  -7 -17   6    9.16    4.02
  -7 -17   6   10.50    3.31
  -6 -17   6   22.07    3.40
  -6 -17   6   21.02    3.62
  -5 -17   6    0.26    2.83
  -5 -17   6    3.59    3.03
  -4 -17   6   29.71    3.52
   4 -17  -6   29.55    3.64
  -4 -17   6   27.97    3.56
  -3 -17   6    1.41    2.53
   3 -17  -6    0.68    3.00
  -3 -17   6    0.62    2.79
  -2  17   6   88.86    4.63
  -2 -17   6   81.85    4.57
   2 -17  -6   83.94    4.94
  -2 -17   6   85.11    4.70
  -1  17   6   10.28    2.66
  -1 -17   6    7.90    2.94
  -1 -17   6   11.47    3.25
   1 -17  -6    7.78    3.26
   0  17   6   23.13    3.14
   0 -17   6   19.22    3.26
   0 -17   6   19.64    3.61
   0 -17  -6   21.67    3.14
   1  17   6   10.89    2.92
   1 -17   6    9.45    2.77
   1 -17   6    7.93    3.38
  -1 -17  -6   11.46    3.12
   2  17   6   26.23    3.24
   2 -17   6   30.77    3.22
   2 -17   6   28.23    3.64
  -2 -17  -6   29.69    3.81
   3 -17   6    0.78    2.52
   3 -17   6    2.07    3.23
  -3 -17  -6    1.13    2.87
   4  17   6   48.94    4.02
   4 -17   6   47.09    4.06
   4 -17   6   40.66    3.81
  -4 -17  -6   45.28    4.11
   5  17   6    0.65    2.74
   5 -17   6    0.70    3.00
  -5 -17  -6   -0.26    3.23
   6  17   6   26.70    3.36
   6 -17   6   22.36    3.76
  -6 -17  -6   16.32    3.78
   7  17   6   10.82    2.94
   7 -17   6    5.61    3.01
  -7 -17  -6    6.26    3.38
  -9 -18   6   -0.49    3.08
  -9 -18   6    1.63    3.29
  -8 -18   6    4.01    3.05
  -8 -18   6   -0.52    3.23
  -7 -18   6    4.31    3.03
  -7 -18   6    5.14    3.08
  -6 -18   6   -0.09    2.61
  -6 -18   6    1.36    3.46
  -5 -18   6    1.44    3.02
  -5 -18   6   -0.35    3.09
  -4 -18   6    0.00    3.28
  -4 -18   6   -1.07    2.99
  -3 -18   6    1.61    2.86
  -3 -18   6    2.04    2.96
  -2 -18   6   10.34    3.17
  -2 -18   6   12.70    3.17
  -1 -18   6    1.49    2.66
  -1 -18   6    2.28    3.11
   0  18   6    0.54    2.65
   0 -18   6    1.26    3.02
   0 -18   6    0.76    2.88
   1  18   6    0.65    2.94
   1 -18   6    1.42    2.89
   1 -18   6   -1.49    3.09
  -1 -18  -6   -0.58    2.98
   2  18   6    0.84    2.69
   2 -18   6    0.71    2.59
   2 -18   6   -0.10    3.16
  -2 -18  -6    0.00    2.81
   3  18   6    1.65    2.59
   3 -18   6    1.79    3.19
   3 -18   6    4.50    3.18
  -3 -18  -6    2.62    3.10
   4  18   6    3.09    3.09
   4 -18   6   -1.16    3.09
  -4 -18  -6    1.61    3.26
   5  18   6    5.72    2.85
   5 -18   6    7.62    3.79
  -5 -18  -6    7.04    3.65
  -3 -19   6    5.58    2.94
  -3 -19   6    4.62    3.28
  -2 -19   6   15.33    3.39
  -2 -19   6   18.43    3.72
  -1 -19   6    4.50    2.82
  -1 -19   6    5.48    3.06
 -23   0   7    1.34    3.19
 -22   0   7    0.14    2.94
 -21   0   7   -0.09    2.57
 -20   0   7   -0.86    2.52
 -19   0   7    1.37    1.98
 -19   0   7    0.37    2.47
 -18   0   7   -0.09    2.13
 -18   0   7    0.07    2.60
 -17   0   7   -0.18    2.31
 -17   0   7   -0.21    2.35
 -16   0   7   -0.09    2.18
 -16   0   7   -1.41    2.20
 -15   0   7    0.67    2.01
 -15   0   7   -0.76    2.22
 -14   0   7    0.04    2.13
 -14   0   7    0.59    2.26
 -14   0   7   -0.41    2.10
 -14   0   7   -0.16    2.26
 -13   0   7    0.19    2.22
 -13   0   7   -0.81    1.94
 -13   0   7   -0.56    2.10
 -13   0   7    0.46    2.10
 -12   0   7   -0.21    2.14
 -12   0   7    1.89    2.49
 -12   0   7   -0.30    1.95
 -12   0   7    0.07    1.90
 -11   0   7    0.83    1.84
 -11   0   7   -0.42    1.97
 -11   0   7    0.37    1.97
 -11   0   7    0.22    1.89
 -10   0   7   -0.87    1.73
 -10   0   7    0.04    1.91
 -10   0   7   -0.15    2.25
 -10   0   7    0.59    2.03
  -9   0   7    0.12    1.63
  -9   0   7   -0.54    1.83
  -9   0   7    0.05    1.98
  -9   0   7   -0.51    1.83
  -8   0   7    0.92    1.69
  -8   0   7    0.70    1.72
  -8   0   7   -0.38    1.64
  -8   0   7   -0.42    1.80
  -7   0   7   -0.78    1.70
   7   0  -7    0.56    1.86
  -7   0   7   -0.12    1.91
  -6   0   7   -0.48    1.98
   6   0  -7    0.49    1.78
  -5   0   7   -0.41    1.71
   5   0  -7    0.00    1.78
  -4   0   7   -0.08    1.84
   4   0  -7    0.98    2.14
  -3   0   7    0.52    1.45
   3   0  -7   -0.53    1.89
  -2   0   7   -0.44    1.56
   2   0  -7   -0.89    2.09
   2   0  -7   -0.19    3.35
  -1   0   7   -1.88    1.79
   1   0  -7   -0.55    1.89
  -1   0   7   -0.23    1.68
   1   0  -7    0.50    1.86
   0   0   7    1.94    2.05
   0   0  -7    0.09    1.98
   0   0   7    0.23    1.70
   0   0  -7   -0.38    1.87
   1   0   7    0.13    1.73
  -1   0  -7    0.04    1.74
   2   0   7    0.55    1.74
  -2   0  -7    0.04    1.70
   3   0   7    0.57    1.65
  -3   0  -7   -0.29    1.87
   4   0   7    0.71    1.42
   4   0   7   -0.50    2.00
  -4   0  -7   -0.17    1.72
   5   0   7   -0.62    1.75
   5   0   7   -0.50    1.89
  -5   0  -7   -0.29    2.01
   6   0   7   -0.26    2.00
   6   0   7   -1.20    1.71
  -6   0  -7    0.23    1.72
   7   0   7    0.69    2.06
   7   0   7    0.08    1.97
  -7   0  -7    0.19    1.98
   8   0   7    0.97    2.09
   8   0   7    1.52    2.14
  -8   0  -7   -0.52    2.08
   9   0   7    0.18    2.28
   9   0   7   -0.87    2.01
  10   0   7    0.73    2.30
  10   0   7   -0.30    1.99
  11   0   7    1.99    2.27
  11   0   7    0.15    2.43
  12   0   7    0.75    2.45
  12   0   7    0.68    2.19
  13   0   7    0.20    2.55
  13   0   7    0.69    2.28
  14   0   7    1.33    2.32
  14   0   7    0.43    2.61
  15   0   7    0.16    2.46
  15   0   7    0.36    2.64
  16   0   7   -0.09    2.66
  16   0   7   -0.94    3.11
  17   0   7    0.62    2.90
  17   0   7    0.74    2.62
  18   0   7   -0.91    3.02
  18   0   7    2.89    3.48
 -23  -1   7    1.64    3.25
 -22  -1   7   33.24    3.63
 -22   1   7   31.29    3.47
 -21  -1   7    0.66    2.77
 -21   1   7    0.43    3.13
 -20  -1   7   29.40    3.07
 -20  -1   7   29.72    3.51
 -20   1   7   29.06    3.48
 -19  -1   7    6.30    2.67
 -19  -1   7    4.87    2.50
 -19   1   7    5.70    2.88
 -18   1   7    7.83    2.37
 -18  -1   7    7.01    2.55
 -18  -1   7    9.40    2.70
 -18   1   7    7.13    2.89
 -17   1   7    5.59    2.21
 -17  -1   7    5.07    2.87
 -17  -1   7    6.18    2.42
 -17   1   7    5.83    2.62
 -16  -1   7    4.71    2.22
 -16   1   7    3.14    2.67
 -15   1   7  208.79    6.79
 -15   1   7  235.77   16.49
 -15  -1   7  231.58   13.33
 -15  -1   7  239.22    8.06
 -15  -1   7  230.24    8.12
 -15   1   7  233.69    7.89
 -14   1   7  234.32    6.32
 -14   1   7  253.90   16.57
 -14  -1   7  241.00   11.34
 -14  -1   7  236.86    6.97
 -14   1   7  241.87    7.20
 -14  -1   7  228.35    6.86
 -14   1   7  245.47    7.05
 -13   1   7    2.70    2.07
 -13  -1   7    2.60    2.23
 -13   1   7    3.18    2.08
 -13  -1   7    2.51    1.91
 -13   1   7    3.51    2.47
 -12   1   7  108.17    4.50
 -12   1   7   99.68    4.51
 -12  -1   7   95.42    4.41
 -12  -1   7   88.55    4.34
 -12   1   7   99.57    4.77
 -12  -1   7   87.79    4.41
 -12   1   7   94.81    4.52
 -11   1   7    0.40    1.89
 -11  -1   7    0.13    1.76
 -11   1   7    2.46    1.94
 -11  -1   7    2.80    2.01
 -11  -1   7    1.65    2.09
 -11   1   7    1.41    1.91
 -11  -1   7    2.92    2.08
 -11   1   7    1.64    2.04
 -10   1   7   20.96    2.79
 -10  -1   7   25.06    2.67
 -10   1   7   18.03    2.62
 -10  -1   7   16.11    2.42
 -10  -1   7   15.69    2.55
 -10   1   7   18.80    2.45
 -10  -1   7   15.42    2.45
 -10   1   7   13.68    2.50
  -9   1   7    3.96    1.78
  -9  -1   7    4.39    2.06
  -9   1   7    2.10    2.05
  -9  -1   7    1.44    2.07
  -9  -1   7    1.08    1.82
  -9   1   7    2.31    1.76
  -9  -1   7    1.22    1.89
  -9   1   7    0.93    2.09
  -8  -1   7    9.41    2.12
  -8   1   7   10.25    2.27
  -8  -1   7   13.09    2.29
   8  -1  -7   15.52    2.44
  -8  -1   7   15.34    2.44
  -8   1   7   12.11    2.43
  -8  -1   7   18.66    2.55
  -8   1   7   19.09    3.94
  -7   1   7   -0.77    1.83
  -7  -1   7    1.35    1.78
   7  -1  -7    0.18    1.99
  -7  -1   7    0.12    1.61
  -7  -1   7    0.49    1.82
  -6   1   7    4.89    2.31
  -6  -1   7    5.03    1.96
   6  -1  -7    7.55    2.24
   6   1  -7    6.80    2.13
  -6  -1   7    5.19    1.80
  -6  -1   7    5.96    1.99
  -5   1   7   42.05    3.61
  -5  -1   7   42.35    3.36
   5  -1  -7   54.02    4.04
   5   1  -7   52.22    3.84
  -5  -1   7   51.93    3.87
  -5  -1   7   53.03    3.98
  -4   1   7   73.58    4.07
  -4  -1   7   71.95    4.12
   4  -1  -7   56.40    3.75
   4   1  -7   53.27    3.58
  -4  -1   7   60.76    3.77
   4   1  -7   59.07    3.90
  -3   1   7   16.26    2.78
  -3  -1   7   15.07    2.59
   3  -1  -7   30.28    3.64
   3   1  -7   31.85    2.64
  -3  -1   7   21.30    2.92
   3   1  -7   27.71    3.50
  -2   1   7  123.02    5.21
  -2  -1   7  123.43    5.32
   2  -1  -7  109.36    5.06
   2   1  -7   94.40    4.55
  -2  -1   7  102.78    4.89
   2   1  -7  102.94    5.29
  -1   1   7   35.34    3.04
  -1  -1   7   35.46    2.90
   1  -1  -7   45.37    3.40
   1   1  -7   53.75    3.57
  -1  -1   7   58.83    3.74
   1  -1  -7   50.35    4.34
   1   1  -7   54.18    4.00
   0   1   7   28.89    3.52
   0  -1  -7   25.99    3.28
   0   1  -7   22.40    3.26
   0   1   7   25.34    3.24
   0  -1   7   16.07    2.85
   0  -1  -7   18.91    2.90
   0   1  -7   21.97    3.17
   1   1   7   57.01    4.19
   1   1   7   62.85    4.35
   1  -1   7   69.74    4.59
  -1  -1  -7   68.45    4.57
  -1   1  -7   66.45    4.51
   2   1   7   29.52    3.39
   2  -1   7   49.09    3.86
  -2  -1  -7   40.17    3.66
  -2   1  -7   57.20    4.22
   3   1   7   63.46    4.11
   3  -1   7   88.63    4.86
  -3  -1  -7   74.57    4.36
   4  -1   7   14.85    2.46
   4   1   7   17.09    2.50
   4  -1   7   19.50    2.68
  -4  -1  -7   18.50    2.65
  -4   1  -7   19.54    2.73
   5   1   7   95.65    5.93
   5  -1   7   94.84    5.97
   5   1   7  104.63    6.56
   5  -1   7  120.81    7.26
  -5  -1  -7  105.86    6.37
  -5   1  -7  115.74    6.85
   6   1   7    9.20    2.24
   6  -1   7    9.78    2.45
   6   1   7   10.04    2.45
   6  -1   7    8.20    2.20
  -6  -1  -7    9.51    2.42
  -6   1  -7    8.85    2.45
   7   1   7  174.80    7.80
   7  -1   7  173.09    7.82
   7   1   7  180.46    8.35
   7  -1   7  190.64    8.53
  -7  -1  -7  180.98    7.97
  -7   1  -7  188.78    8.23
   8   1   7   28.13    3.14
   8  -1   7   30.42    3.13
   8   1   7   29.03    3.44
   8  -1   7   25.90    3.03
  -8  -1  -7   29.43    3.03
   9   1   7   29.89    3.32
   9  -1   7   34.01    3.72
   9   1   7   34.14    3.83
   9  -1   7   33.89    3.81
  10   1   7    5.55    2.38
  10  -1   7    2.89    2.30
  10   1   7    4.44    2.44
  10  -1   7    6.76    2.47
  11   1   7   41.70    3.50
  11  -1   7   40.22    3.24
  11   1   7   40.40    3.81
  11  -1   7   43.03    3.46
  12  -1   7    0.52    2.47
  12   1   7    1.97    2.31
  12  -1   7    3.79    2.48
  13   1   7   66.15    6.07
  13  -1   7   63.86    5.96
  13   1   7   59.17    5.74
  13  -1   7   63.64    5.96
  14   1   7    4.72    2.75
  14  -1   7    4.27    2.63
  14   1   7    4.80    2.67
  14  -1   7    6.42    2.81
  15  -1   7   41.48    3.82
  15   1   7   42.74    3.58
  15   1   7   39.43    3.71
  15  -1   7   42.06    3.83
  16   1   7    4.44    2.77
  16  -1   7    3.06    2.79
  16   1   7    1.59    2.85
  16  -1   7    3.78    2.77
  17  -1   7   43.19    3.56
  17   1   7   41.25    3.78
  17   1   7   40.77    4.36
  17  -1   7   39.35    3.95
  18   1   7    2.76    3.21
  18  -1   7    1.46    4.47
  18   1   7    0.44    3.03
  18  -1   7    2.07    3.42
 -23  -2   7    2.64    3.20
 -22  -2   7   85.84    4.99
 -21  -2   7   -0.01    2.86
 -21  -2   7   -1.25    2.76
 -21   2   7   -0.72    2.67
 -20  -2   7   46.31    3.66
 -20  -2   7   40.20    3.96
 -20   2   7   43.38    4.01
 -19  -2   7    7.00    2.61
 -19  -2   7    8.23    3.22
 -19   2   7    9.51    2.92
 -18  -2   7   51.75    4.96
 -18  -2   7   45.66    4.31
 -18   2   7   49.68    3.83
 -17   2   7    0.63    2.90
 -17  -2   7   -0.35    3.24
 -17  -2   7    1.50    2.56
 -17   2   7    0.13    2.27
 -16   2   7   49.38    3.62
 -16  -2   7   52.41    3.55
 -16  -2   7   44.90    3.49
 -16   2   7   46.06    3.77
 -15  -2   7    2.90    2.62
 -15  -2   7    2.70    2.65
 -15   2   7    2.80    2.37
 -14   2   7  292.30    7.95
 -14  -2   7  309.86    7.53
 -14  -2   7  291.43    7.50
 -14   2   7  288.16    7.49
 -14  -2   7  306.55    7.93
 -14   2   7  315.53    8.09
 -13   2   7    9.90    2.29
 -13  -2   7    4.28    2.33
 -13   2   7    7.37    2.07
 -13  -2   7    3.85    2.22
 -13   2   7    6.27    2.16
 -12   2   7  372.85   14.13
 -12   2   7  412.16   15.10
 -12  -2   7  447.53   16.50
 -12  -2   7  421.75   15.50
 -12   2   7  408.19   14.96
 -12  -2   7  440.94   15.98
 -12   2   7  425.63   15.49
 -11   2   7   23.37    2.72
 -11   2   7   29.07    6.91
 -11  -2   7   35.44    3.69
 -11  -2   7   31.83    3.15
 -11   2   7   30.88    2.92
 -11  -2   7   36.44    3.19
 -11   2   7   32.40    3.04
 -10   2   7  294.15   10.29
 -10   2   7  313.19   10.80
 -10  -2   7  338.41   12.26
 -10  -2   7  323.96   11.30
 -10   2   7  328.76   11.35
 -10  -2   7  338.38   11.63
 -10   2   7  331.29   11.45
  -9   2   7    9.23    2.50
  -9  -2   7   11.38    2.26
  -9  -2   7   10.38    2.23
  -9   2   7   10.75    2.21
  -9  -2   7   11.64    2.50
  -9   2   7   10.81    2.29
  -8  -2   7  269.82   10.31
  -8   2   7  269.31    9.81
  -8  -2   7  271.25    9.86
   8  -2  -7  262.85    9.78
  -8  -2   7  271.30   10.16
  -8   2   7  261.86   10.32
  -8  -2   7  259.99    9.59
  -8   2   7  282.72   16.68
  -7  -2   7    0.35    1.76
  -7   2   7    0.63    1.74
  -7  -2   7    0.82    1.80
   7  -2  -7    1.70    1.92
  -7  -2   7    1.28    1.70
  -7  -2   7    2.39    1.89
  -6   2   7  200.55    7.75
  -6  -2   7  204.87    8.26
   6  -2  -7  204.63    8.13
   6   2  -7  205.20    8.03
  -6  -2   7  204.30    7.95
   6   2  -7  197.47    7.89
  -5   2   7    1.12    1.76
  -5  -2   7   -0.51    1.74
   5  -2  -7    0.26    2.06
   5   2  -7   -0.55    1.48
  -5  -2   7    2.52    1.92
   5   2  -7    0.47    1.76
  -4   2   7  450.31   14.13
  -4  -2   7  449.11   14.23
   4  -2  -7  448.66   14.37
   4   2  -7  454.02   14.36
  -4  -2   7  438.46   13.98
   4   2  -7  454.66   14.42
  -3   2   7    1.27    1.75
  -3  -2   7    1.18    2.00
   3  -2  -7    0.58    2.01
   3   2  -7    1.05    1.59
  -3  -2   7    1.67    1.85
   3   2  -7    1.51    2.12
  -2   2   7  730.23   16.56
  -2  -2   7  678.30   15.57
   2  -2  -7  691.45   16.20
   2   2  -7  647.25   15.05
  -2  -2   7  680.23   15.81
   2   2  -7  670.79   16.08
  -1   2   7    3.16    1.77
   1  -2  -7    5.60    2.08
   1   2  -7    7.59    2.30
  -1  -2   7    5.54    1.98
   1  -2  -7    6.77    3.24
   1   2  -7    7.51    2.36
   1  -2  -7    8.50    2.89
   0   2   7  487.27   15.12
   0  -2  -7  467.53   14.45
   0  -2   7  471.44   14.79
   0  -2  -7  435.09   13.95
   0   2  -7  440.56   14.13
   0  -2  -7  458.01   14.78
   1   2   7   -0.10    1.85
   1  -2   7    2.40    1.71
   1  -2   7    3.34    1.87
  -1  -2  -7    0.73    1.60
  -1   2  -7    0.66    1.97
   2   2   7  619.04   18.32
   2  -2   7  639.63   18.73
   2  -2   7  597.68   18.04
  -2  -2  -7  647.46   19.03
  -2   2  -7  600.54   17.81
   3  -2   7   85.46    4.75
   3   2   7   76.58    4.49
   3  -2   7   57.50    3.77
  -3  -2  -7   78.52    4.50
  -3   2  -7   65.88    4.09
   4   2   7  189.02    8.05
  -4  -2  -7  192.07    7.82
  -4   2  -7  150.92    6.45
   5   2   7    2.97    1.87
   5  -2   7    3.51    1.86
   5   2   7    1.48    1.86
   5  -2   7   -0.06    1.69
  -5  -2  -7    1.38    1.98
  -5   2  -7    0.74    1.92
   6   2   7  117.96    6.94
   6  -2   7  115.95    6.95
   6   2   7  112.39    7.13
   6  -2   7   85.50    5.72
  -6  -2  -7  105.05    6.40
  -6   2  -7   90.07    5.80
   7   2   7    6.18    2.28
   7  -2   7    4.29    2.13
   7   2   7    7.64    2.36
   7  -2   7   16.03    2.64
  -7  -2  -7    9.57    2.42
  -7   2  -7   13.71    2.54
   8   2   7   78.60    6.80
   8  -2   7   91.47    7.76
   8   2   7   74.93    6.81
   8  -2   7   53.05    5.24
  -8  -2  -7   67.03    6.11
   9   2   7   37.88    4.00
   9  -2   7   36.94    4.03
   9   2   7   38.50    4.25
   9  -2   7   50.87    4.79
  10   2   7  114.78    5.41
  10  -2   7  117.21    5.35
  10   2   7  116.89    5.48
  10  -2   7   88.00    5.60
  11   2   7    1.49    2.55
  11  -2   7    0.64    2.30
  11   2   7    1.92    2.26
  11  -2   7   -0.15    2.18
  12   2   7   87.48    5.69
  12  -2   7   89.59    5.79
  12   2   7   89.45    6.00
  12  -2   7   71.00    5.24
  13   2   7    5.65    2.68
  13  -2   7    5.43    2.61
  13   2   7    5.61    2.69
  13  -2   7    8.23    2.57
  14   2   7   59.68    4.09
  14  -2   7   53.22    3.77
  14   2   7   51.16    4.15
  14  -2   7   47.81    4.33
  15   2   7    2.45    2.63
  15  -2   7    4.01    4.18
  15   2   7    4.73    2.65
  15  -2   7    7.32    3.00
  16   2   7    9.50    2.97
  16  -2   7   10.15    3.10
  16   2   7    8.27    3.04
  16  -2   7    6.90    2.73
  17   2   7   36.24    3.52
  17  -2   7   38.79    3.69
  17   2   7   42.36    3.85
  17  -2   7   40.91    3.92
  18   2   7   17.64    3.36
  18  -2   7   13.73    5.41
  18   2   7   10.12    3.25
  18  -2   7   16.63    3.39
 -23  -3   7    7.23    3.12
 -22  -3   7   88.99    5.30
 -21  -3   7    2.59    2.66
 -21  -3   7    0.54    3.28
 -21   3   7   -1.54    2.73
 -20  -3   7  113.41    4.70
 -20  -3   7  120.14    5.30
 -20   3   7  124.34    5.59
 -19  -3   7    2.72    2.66
 -19  -3   7    1.58    2.94
 -19   3   7    2.75    2.48
 -18  -3   7  112.63    5.46
 -18  -3   7  102.09    5.55
 -18   3   7  106.89    5.76
 -17  -3   7   13.17    6.19
 -17  -3   7   12.78    2.79
 -16   3   7  162.24    7.72
 -16  -3   7  142.28    6.46
 -16  -3   7  145.69    6.76
 -15   3   7   10.46    8.56
 -15  -3   7   13.63    2.66
 -14   3   7   66.11    6.31
 -14  -3   7   56.06    5.84
 -14  -3   7   57.73    3.98
 -14  -3   7   57.14    3.65
 -14   3   7   58.30    4.01
 -13   3   7   12.76    2.28
 -13   3   7   13.88    8.25
 -13  -3   7   20.58    8.16
 -13  -3   7   17.03    2.71
 -13   3   7   17.10    2.61
 -13  -3   7   19.09    2.62
 -13   3   7   18.67    2.95
 -12   3   7  106.55    5.03
 -12   3   7  105.13    5.15
 -12  -3   7   77.31    6.81
 -12  -3   7   87.70    7.53
 -12   3   7   84.58    7.20
 -12  -3   7   82.22    7.09
 -12   3   7   80.84    7.07
 -11   3   7    0.13    2.03
 -11   3   7    0.22    2.24
 -11  -3   7    1.89    2.23
 -11  -3   7    0.67    1.88
 -11   3   7    2.39    2.25
 -11  -3   7    1.61    1.92
 -11   3   7    1.50    2.00
 -10   3   7  146.63    6.25
 -10   3   7  149.98    6.57
 -10  -3   7  113.38    6.69
 -10  -3   7  135.64    6.29
 -10   3   7  103.03    6.25
 -10  -3   7  118.15    6.92
 -10   3   7  118.82    7.15
  -9   3   7   17.95    2.54
  -9  -3   7   31.21    3.26
   9  -3  -7   29.35    2.83
  -9  -3   7   21.51    2.85
  -9   3   7   32.55    3.01
  -9  -3   7   33.19    3.33
  -9   3   7   27.74    2.86
  -8   3   7  152.47    6.40
  -8  -3   7  140.78    6.23
   8  -3  -7  125.45    5.73
  -8  -3   7  151.10    6.52
  -8  -3   7  123.33    5.70
  -7   3   7  120.64    5.65
  -7  -3   7  133.11    5.92
   7  -3  -7  142.48    6.17
  -7  -3   7  134.82    6.01
   7   3  -7  135.82    6.22
  -6  -3   7   50.61    3.70
   6  -3  -7   43.21    3.57
  -6  -3   7   46.09    3.60
   6   3  -7   47.26    3.84
  -5   3   7    8.79    2.12
  -5  -3   7   14.52    2.15
   5  -3  -7   17.37    2.49
  -5  -3   7   18.19    2.47
   5   3  -7   20.31    2.85
  -4  -3   7   11.46    2.24
   4  -3  -7    6.77    2.23
  -4  -3   7    1.16    1.85
   4   3  -7    1.55    1.87
  -3  -3   7  108.88    5.91
   3  -3  -7  124.57    4.92
   3   3  -7  140.16    6.42
  -2   3   7   12.73    2.26
   2  -3  -7   10.86    2.36
  -2  -3   7    4.53    1.95
   2   3  -7    5.27    2.48
  -1   3   7  196.75    7.69
   1  -3  -7  202.56    7.84
  -1  -3   7  211.74    8.15
   1   3  -7  227.24    8.70
   0   3   7   18.09    2.54
   0  -3  -7   19.14    2.61
   0  -3   7   20.60    2.50
   0  -3   7   15.00    2.07
   0  -3  -7   13.61    2.35
   0   3  -7    9.62    2.26
   0  -3  -7    8.25    2.14
   1   3   7   93.22    5.41
   1  -3   7   93.73    5.32
   1  -3   7  116.24    6.27
  -1  -3  -7  112.83    6.12
   2   3   7   11.07    2.35
   2  -3   7   10.91    2.38
   2  -3   7    2.05    1.81
  -2  -3  -7    5.11    2.01
  -2   3  -7    1.35    2.11
  -2  -3  -7    1.80    1.60
  -3  -3  -7  164.96    7.07
  -3  -3  -7  185.43    7.83
   4  -3   7    2.65    2.00
   4  -3   7    9.36    2.22
  -4  -3  -7    3.21    2.08
  -4   3  -7    7.99    2.38
  -4  -3  -7    4.38    1.96
   5  -3   7  256.62    9.65
  -5  -3  -7  228.74    8.63
  -5   3  -7  265.43    9.99
  -5  -3  -7  248.84    9.64
   6  -3   7   11.02    2.48
   6  -3   7    5.51    2.27
  -6  -3  -7    5.07    2.12
  -6   3  -7    5.19    2.23
   7   3   7  247.57   10.07
   7  -3   7  229.49    9.49
   7   3   7  261.23   11.16
   7  -3   7  273.43   11.40
  -7  -3  -7  255.32   10.28
   8   3   7    1.11    2.18
   8  -3   7    1.77    2.34
   8   3   7    1.20    1.98
   8  -3   7    1.73    2.48
  -8  -3  -7   -0.17    2.05
   9   3   7  345.98    8.10
   9  -3   7  336.37    8.04
   9   3   7  358.30    8.65
   9  -3   7  363.52    8.51
  10   3   7    2.91    2.77
  10  -3   7    0.71    2.33
  10   3   7    1.42    2.41
  10  -3   7    0.18    2.44
  11   3   7  229.05    9.23
  11  -3   7  223.76    8.99
  11   3   7  242.05   10.52
  11  -3   7  237.63    9.50
  12   3   7    0.71    2.20
  12  -3   7    1.73    2.56
  12   3   7    0.67    2.47
  12  -3   7   -0.28    2.59
  13   3   7  141.27    5.54
  13  -3   7  136.67    5.48
  13   3   7  138.77    6.78
  13  -3   7  133.69    5.61
  14   3   7    1.28    2.55
  14  -3   7   -0.26    2.63
  14   3   7   -0.37    2.33
  14  -3   7    0.21    2.57
  15   3   7  138.95    7.17
  15  -3   7  131.59    6.78
  15  -3   7  124.60    6.77
  16   3   7    7.36    2.76
  16  -3   7    3.88    2.90
  16  -3   7    3.16    3.15
 -16  -3  -7    4.28    2.99
  17   3   7   77.25    4.49
  17  -3   7   77.97    4.84
  17  -3   7   76.26    4.49
 -17  -3  -7   78.31    5.19
  18   3   7   13.17    3.53
  18  -3   7   14.19    3.22
  18  -3   7   12.39    3.34
 -18  -3  -7   10.89    3.38
 -23  -4   7   -0.28    3.22
 -22  -4   7    4.69    2.68
 -22  -4   7    3.85    3.31
 -21  -4   7    1.49    2.58
 -21  -4   7    1.67    2.86
 -20  -4   7   61.75    4.02
 -20  -4   7   64.70    4.45
 -19  -4   7    5.33    2.34
 -19  -4   7    4.00    2.63
 -18  -4   7   96.67    5.07
  18  -4  -7   84.67    4.46
 -18  -4   7   95.20    5.11
 -17  -4   7   24.33    4.55
  17  -4  -7   20.35    2.98
 -17  -4   7   22.35    3.12
 -16  -4   7   75.28    5.12
  16  -4  -7   67.39    4.90
 -16  -4   7   71.84    5.08
 -15  -4   7    3.73    3.43
  15  -4  -7    3.99    2.59
 -15  -4   7    3.70    2.45
 -14   4   7   58.04    3.64
 -14  -4   7   61.60    5.30
  14  -4  -7   58.82    4.00
 -14  -4   7   59.00    3.90
 -14  -4   7   63.06    5.34
 -13   4   7    0.26    1.79
  13  -4  -7    0.15    1.96
 -13  -4   7    0.48    2.11
 -13   4   7    0.43    2.09
 -13  -4   7    0.60    2.34
 -12   4   7  113.51    5.06
 -12   4   7  121.23    6.33
 -12  -4   7  138.88    5.99
  12  -4  -7  122.52    5.60
 -12  -4   7  124.59    5.66
 -12   4   7  133.50    6.75
 -12  -4   7  134.19    5.82
 -11   4   7    5.36    2.15
 -11  -4   7    8.73    2.36
 -11  -4   7    5.96    2.20
 -11   4   7    8.61    2.29
 -11  -4   7    8.55    2.19
 -10   4   7  140.86    6.72
 -10  -4   7  146.65    6.82
 -10  -4   7  143.70    6.91
 -10   4   7  142.70    6.96
 -10  -4   7  146.09    6.99
  -9   4   7   19.75    2.54
  -9  -4   7   16.51    2.56
   9  -4  -7   18.76    2.49
  -9  -4   7   18.37    2.48
  -9   4   7   18.27    2.61
  -9  -4   7   17.21    2.49
  -9   4   7   17.45    2.79
  -8   4   7  156.48    5.49
  -8  -4   7  158.23    6.90
   8  -4  -7  150.96    6.45
  -8  -4   7  150.03    6.40
  -8   4   7  157.74    7.43
   8   4  -7  146.43    6.48
  -7   4   7   -1.10    2.34
  -7  -4   7    0.11    2.02
   7  -4  -7    0.08    1.89
  -7  -4   7    0.25    1.87
   7   4  -7   -0.32    1.98
  -6   4   7  526.53   16.58
   6  -4  -7  545.69   17.15
  -6  -4   7  563.65   17.60
  -6  -4   7  515.78   16.59
   6   4  -7  564.60   17.88
  -5   4   7   14.98    2.67
   5  -4  -7   16.02    2.51
  -5  -4   7   14.32    2.25
  -5  -4   7   15.08    2.25
   5   4  -7   15.55    2.60
  -4   4   7  366.48   12.00
   4  -4  -7  340.81   11.73
  -4  -4   7  324.41   10.90
  -4  -4   7  330.63   11.15
   4   4  -7  310.52   10.89
  -3   4   7   28.56    2.78
   3  -4  -7   30.18    3.07
  -3  -4   7   24.22    2.67
   3   4  -7   24.02    3.02
  -2   4   7   97.08    5.53
   2  -4  -7   92.27    5.34
  -2  -4   7   72.40    4.68
   2   4  -7   73.42    4.84
  -1   4   7    1.63    1.83
   1  -4  -7    2.06    2.12
  -1  -4   7    1.55    1.55
   1  -4  -7    1.02    3.22
  -1  -4   7    0.21    1.66
   1   4  -7    1.80    1.97
   0   4   7   93.81    5.47
   0  -4   7   90.71    5.18
   0  -4  -7   87.39    5.25
   0  -4   7   84.31    5.03
   0   4  -7   81.78    5.29
   0  -4  -7   83.39    5.13
   1   4   7    7.96    2.36
   1  -4   7    7.55    2.19
  -1  -4  -7    5.55    2.03
   1  -4   7    6.89    1.98
  -1   4  -7    5.01    2.48
   2   4   7  174.53    7.34
   2  -4   7  172.62    7.19
  -2  -4  -7  143.99    6.28
   2  -4   7  158.41    7.09
  -2   4  -7  150.40    6.46
  -2  -4  -7  142.51    6.34
   3   4   7   12.02    2.48
   3  -4   7   11.91    2.33
  -3  -4  -7   17.88    2.57
   3  -4   7   15.05    2.44
  -3   4  -7   16.65    2.72
  -3  -4  -7   14.77    2.52
   4   4   7  218.14    8.45
   4  -4   7  229.60    8.70
   4  -4   7  197.47    7.98
  -4  -4  -7  178.51    7.42
  -4   4  -7  192.13    7.86
  -4  -4  -7  200.14    8.67
   5  -4   7    0.30    1.92
   5  -4   7    6.33    2.11
  -5  -4  -7    5.48    2.24
  -5   4  -7    6.98    2.21
  -5  -4  -7    4.39    2.11
   6  -4   7  113.00    5.01
  -6  -4  -7  109.69    4.95
  -6   4  -7  105.64    5.16
  -6  -4  -7  117.85    5.28
   7   4   7   13.39    2.65
   7  -4   7   11.51    2.65
   7  -4   7   22.94    3.02
  -7  -4  -7   21.24    2.75
  -7  -4  -7   21.59    2.75
   8   4   7  176.94    5.98
   8  -4   7  182.70    6.01
   8  -4   7  137.69    5.44
  -8  -4  -7  141.88    5.51
   9   4   7    1.05    2.29
   9  -4   7    0.16    2.21
   9  -4   7    1.19    2.49
  -9  -4  -7    3.11    2.39
  10   4   7   32.88    3.16
  10  -4   7   34.73    3.22
  10  -4   7   15.07    2.61
 -10  -4  -7   19.93    3.05
  11   4   7    7.09    2.53
  11  -4   7    5.31    2.31
  11  -4   7   12.03    2.96
 -11  -4  -7   13.25    2.85
  12   4   7    5.89    2.62
  12  -4   7    5.92    2.69
  12  -4   7    1.86    2.52
 -12  -4  -7    1.90    2.50
  13   4   7    7.96    2.49
  13  -4   7    7.72    2.83
  13  -4   7   10.27    2.91
 -13  -4  -7   11.13    3.13
  14   4   7    1.75    2.51
  14  -4   7    2.91    2.46
  14  -4   7    1.29    2.67
 -14  -4  -7   -0.75    2.73
  15   4   7   18.00    3.04
  15  -4   7   18.95    3.15
  15  -4   7   23.21    3.76
 -15  -4  -7   27.11    3.81
  16   4   7   32.81    3.41
  16  -4   7   27.75    3.46
  16  -4   7   23.59    3.51
 -16  -4  -7   22.44    3.91
  17   4   7    2.22    2.71
  17  -4   7    2.73    3.80
  17  -4   7    1.76    2.99
 -17  -4  -7    2.88    3.31
  18   4   7    2.54    2.97
  18  -4   7    0.04    3.60
 -18  -4  -7    1.24    3.18
 -22  -5   7   12.41    3.24
 -22  -5   7   12.49    3.48
 -21  -5   7    5.46    2.48
 -21  -5   7    6.19    2.81
 -20  -5   7   24.52    3.13
 -20  -5   7   21.63    3.70
 -19  -5   7    5.86    2.57
 -19  -5   7    4.09    2.58
 -18  -5   7   23.58    3.31
 -18  -5   7   22.03    2.99
 -17  -5   7   -1.07    2.33
  17  -5  -7   -0.09    2.37
 -17  -5   7   -0.09    2.23
 -16  -5   7   12.02    2.86
  16  -5  -7   13.08    2.91
 -16  -5   7   12.26    3.09
 -15   5   7   16.36    5.12
 -15  -5   7   12.22    2.71
  15  -5  -7   15.00    2.84
 -15  -5   7   11.91    3.13
 -14   5   7   25.88    2.81
 -14  -5   7   18.72    2.76
  14  -5  -7   23.71    3.07
 -14  -5   7   22.00    2.81
 -13   5   7    5.51    4.05
 -13  -5   7    8.44    2.50
 -13  -5   7    5.82    2.73
  13  -5  -7    4.70    2.29
 -13  -5   7    6.57    2.43
 -12   5   7    2.03    1.88
 -12  -5   7    1.24    2.25
  12  -5  -7    1.90    2.22
 -12  -5   7    0.81    1.96
 -12   5   7   -0.27    1.97
 -12  -5   7    1.22    2.20
 -11   5   7    9.35    1.99
 -11   5   7    9.51    2.24
 -11  -5   7   14.37    2.78
 -11  -5   7    9.72    2.27
 -11   5   7   12.19    2.66
 -11  -5   7   12.45    2.81
 -10  -5   7    0.18    2.31
  10  -5  -7   -0.04    1.93
 -10  -5   7    0.24    1.91
 -10   5   7   -0.12    1.97
 -10  -5   7    0.49    2.28
  -9   5   7   86.11    8.26
  -9  -5   7   97.96    4.57
   9  -5  -7   99.32    4.44
   9  -5  -7   91.02    4.51
  -9   5   7   96.74    4.45
  -9  -5   7   97.70    4.53
   9   5  -7   94.00    4.50
  -8   5   7   43.17    4.63
   8  -5  -7   38.52    3.28
  -8  -5   7   37.02    3.11
   8  -5  -7   41.19   17.69
  -8  -5   7   38.27    3.35
  -8   5   7   36.26   18.06
   8   5  -7   40.67    3.41
   7  -5  -7    0.95    2.08
  -7  -5   7    2.02    2.04
  -7  -5   7    0.99    1.94
  -7   5   7    1.29    2.89
   7   5  -7    1.22    2.47
  -6   5   7   11.74    2.36
   6  -5  -7    7.25    2.17
  -6  -5   7    6.25    2.20
  -6  -5   7    5.58    2.33
   6   5  -7    4.81    2.32
  -5   5   7   15.92    2.30
   5  -5  -7   19.62    2.63
  -5  -5   7   20.64    2.53
  -5  -5   7   22.05    2.50
   5   5  -7   23.49    2.81
  -4   5   7    8.64    2.04
   4  -5  -7   11.64    2.47
  -4  -5   7   18.21    2.44
   4   5  -7   18.64    2.96
  -3   5   7    4.23    1.92
   3  -5  -7    4.47    2.09
  -3  -5   7   10.70    2.26
   3   5  -7    7.20    2.26
  -2   5   7   22.55    2.71
   2  -5  -7   24.33    2.79
  -2  -5   7   22.26    2.44
  -2  -5   7   24.48    2.69
   2  -5  -7   22.19    3.57
   2   5  -7   22.87    2.66
  -1   5   7   18.80    2.52
   1  -5  -7   20.73    2.55
  -1  -5   7   18.02    2.36
   1  -5  -7   18.75    2.47
  -1  -5   7   18.40    2.37
   1  -5  -7   19.37    2.84
   1   5  -7   18.53    2.59
   0   5   7    2.71    2.06
   0  -5   7    2.57    1.75
   0  -5  -7    1.32    1.76
   0  -5   7    2.90    1.99
   0   5  -7    3.34    2.40
   0  -5  -7    2.69    2.00
   1   5   7   76.00    4.43
   1  -5   7   72.69    4.28
  -1  -5  -7   73.12    4.32
   1  -5   7   75.43    4.37
  -1   5  -7   72.69    4.60
   2   5   7    0.47    1.97
   2  -5   7    0.93    1.83
  -2  -5  -7    0.23    2.12
   2  -5   7    1.25    2.15
  -2   5  -7    0.96    2.12
  -2  -5  -7    0.98    2.03
   3   5   7   51.96    4.11
   3  -5   7   50.66    4.17
  -3  -5  -7   44.17    3.86
   3  -5   7   49.13    4.06
  -3   5  -7   45.31    4.02
  -3  -5  -7   44.43    4.00
   4   5   7    4.05    2.28
   4  -5   7    5.49    2.18
  -4  -5  -7    4.39    1.94
   4  -5   7    4.59    2.46
  -4   5  -7    4.25    2.07
  -4  -5  -7    3.26    1.99
   5   5   7   17.10    2.62
   5  -5   7   17.62    2.72
  -5  -5  -7   16.42    2.59
   5  -5   7   16.24    2.60
  -5   5  -7   17.53    2.81
  -5  -5  -7   17.40    2.73
   6  -5   7    0.77    2.11
  -6  -5  -7    0.88    2.04
   6  -5   7    0.19    2.43
  -6  -5  -7    1.31    2.06
   7  -5   7   10.51    2.25
   7  -5   7    7.03    2.31
  -7  -5  -7    6.56    2.44
  -7  -5  -7    8.17    2.35
   8  -5   7    9.33    2.42
   8  -5   7   10.05    2.54
  -8  -5  -7    9.23    2.71
   9   5   7    5.06    2.38
   9  -5   7    4.40    2.40
   9  -5   7    8.76    2.56
  -9  -5  -7    5.64    2.30
  10   5   7    6.62    2.68
  10  -5   7    6.66    2.42
  10  -5   7    9.53    2.93
 -10  -5  -7    8.21    2.94
  11   5   7    8.58    2.45
  11  -5   7    9.28    2.71
  11  -5   7    6.43    2.87
 -11  -5  -7    5.54    2.58
  12   5   7    0.93    2.90
  12  -5   7   -0.04    2.68
  12  -5   7    2.45    2.55
 -12  -5  -7    1.84    2.92
  13   5   7    9.91    2.89
  13  -5   7   11.89    2.98
  13  -5   7    9.40    2.80
 -13  -5  -7    9.69    2.89
  14   5   7   12.91    2.99
  14  -5   7   10.63    2.72
  14  -5   7   15.35    3.14
 -14  -5  -7   14.86    3.31
  15   5   7    1.13    2.86
  15  -5   7    2.12    2.53
  15  -5   7    1.23    2.85
 -15  -5  -7    2.35    3.71
  16   5   7    5.90    2.96
  16  -5   7    4.85    5.19
  16  -5   7    6.51    3.16
 -16  -5  -7    5.92    3.32
  17   5   7   -1.33    2.82
  17  -5   7    1.85    2.84
 -17  -5  -7   -2.25    3.18
  18   5   7    4.55    3.08
  18  -5   7    4.79    3.57
 -18  -5  -7    5.74    3.41
 -22  -6   7   12.90    3.04
 -22  -6   7   14.11    3.57
 -21  -6   7    9.17    2.95
 -21  -6   7    5.32    3.37
 -20  -6   7    3.23    2.78
 -20  -6   7    1.47    2.95
 -19  -6   7    0.79    2.59
 -19  -6   7    1.11    2.77
 -18  -6   7    2.41    2.45
 -18  -6   7    3.51    2.57
 -17  -6   7    2.96    2.85
 -17  -6   7   -0.47    2.53
 -16  -6   7    1.43    2.72
  16  -6  -7    0.27    2.28
 -16  -6   7    0.51    2.76
 -15  -6   7   52.50    3.93
  15  -6  -7   54.56    4.50
 -15  -6   7   53.48    4.48
 -14   6   7   29.92    6.44
 -14  -6   7   36.82    3.19
  14  -6  -7   34.07    3.23
 -14  -6   7   35.29    3.24
 -13   6   7   47.17    6.53
 -13  -6   7   45.44    3.93
  13  -6  -7   47.72    3.81
 -13  -6   7   45.37    3.59
 -12   6   7   46.23    6.47
 -12  -6   7   53.94    4.80
  12  -6  -7   50.42    4.71
 -12  -6   7   52.43    4.86
 -11   6   7   16.97    2.37
 -11   6   7   17.04    9.09
 -11  -6   7   17.26    3.31
 -11  -6   7   15.73    2.57
 -11   6   7   15.57    2.61
 -11  -6   7   15.77    2.58
 -10   6   7   54.40    6.39
 -10  -6   7   63.85    5.69
  10  -6  -7   60.55    5.66
 -10   6   7   58.97    5.60
 -10  -6   7   63.11    5.88
  10   6  -7   61.71    5.97
  -9   6   7    9.55    4.88
   9  -6  -7    7.64    2.32
  -9  -6   7    8.35    2.42
   9  -6  -7    9.30    2.27
  -9   6   7    6.56    2.20
  -9  -6   7    8.71    2.33
   9   6  -7    7.07    2.57
  -8   6   7    9.28    6.75
  -8  -6   7   12.39    2.15
   8  -6  -7   12.21    2.28
   8  -6  -7   12.82    2.33
  -8  -6   7   12.57    2.96
  -8   6   7   12.68    2.44
   8   6  -7   11.51    2.50
   7  -6  -7   12.39    2.56
  -7  -6   7   12.24    2.43
   7  -6  -7   13.75    2.54
  -7  -6   7   12.31    2.41
  -7   6   7   13.61    2.52
   7   6  -7   14.17    2.63
  -6   6   7  100.94    8.25
   6  -6  -7  103.05    6.25
  -6  -6   7  109.60    6.63
   6  -6  -7  116.06   11.93
  -6  -6   7  116.48    6.94
  -6   6   7  104.72    8.85
   6   6  -7  112.11    6.83
  -5   6   7   24.77    8.22
   5  -6  -7   22.35    2.79
   5  -6  -7   19.98    3.86
  -5  -6   7   20.25    2.66
   5   6  -7   17.99    2.76
  -4   6   7   20.33    4.99
   4  -6  -7   22.67    2.82
   4  -6  -7   24.46    9.22
   4  -6  -7   24.22    3.75
  -4  -6   7   26.49    2.86
   4   6  -7   23.35    2.97
  -3   6   7    6.87    2.20
   3  -6  -7    6.74    2.21
  -3  -6   7    5.90    1.92
   3  -6  -7    5.77    2.19
  -3  -6   7    5.34    2.16
   3   6  -7    4.79    2.44
  -2   6   7   56.20    3.52
   2  -6  -7   54.22    3.68
  -2  -6   7   56.99    3.60
   2  -6  -7   59.48    5.00
  -2  -6   7   58.97    3.67
   2  -6  -7   59.05    3.84
   2   6  -7   58.99    3.93
  -1   6   7    0.86    1.68
  -1  -6   7    1.30    1.62
  -1  -6   7    1.19    1.96
   1  -6  -7    1.25    1.95
   1   6  -7   -1.10    2.32
   0   6   7   46.56    3.94
   0  -6   7   44.98    3.65
   0  -6  -7   45.78    3.83
   0  -6   7   47.33    3.95
   0   6  -7   45.03    4.12
   1   6   7   66.22    4.78
   1  -6   7   64.48    4.71
  -1  -6  -7   76.85    7.26
   1  -6   7   66.69    4.76
  -1   6  -7   76.53    5.31
  -1  -6  -7   72.05    5.04
   2   6   7   17.10    2.78
   2  -6   7   13.30    2.68
  -2  -6  -7   19.18    5.77
   2  -6   7   16.42    2.84
  -2   6  -7   21.24    3.22
  -2  -6  -7   19.50    2.91
   3   6   7   12.82    2.59
   3  -6   7   14.14    2.58
  -3  -6  -7   12.44    3.04
   3  -6   7   12.37    2.60
  -3   6  -7   12.18    2.72
  -3  -6  -7   11.23    2.35
   4   6   7   62.47    3.60
   4  -6   7   56.74    3.70
  -4  -6  -7   55.85    3.54
   4  -6   7   56.90    3.83
  -4   6  -7   56.53    3.71
  -4  -6  -7   52.78    3.69
   5   6   7    0.43    2.28
   5  -6   7    1.42    1.94
  -5  -6  -7   -0.63    2.74
   5  -6   7    0.50    2.31
  -5  -6  -7   -0.02    2.45
   6   6   7   63.68    5.91
   6  -6   7   68.06    6.10
  -6  -6  -7   56.54    5.48
   6  -6   7   63.30    5.88
  -6  -6  -7   59.76    5.84
   7  -6   7    1.67    2.11
  -7  -6  -7    1.48    2.38
   7  -6   7    1.91    2.11
  -7  -6  -7    1.32    2.27
   8  -6   7   32.31    3.16
   8  -6   7   28.73    2.99
  -8  -6  -7   28.79    3.14
   9   6   7    5.78    2.29
   9  -6   7    4.72    2.40
   9  -6   7    6.56    2.91
  -9  -6  -7    6.00    2.64
  10   6   7    7.01    2.53
  10  -6   7    6.55    2.73
  10  -6   7    3.24    2.48
 -10  -6  -7    4.62    2.83
  11   6   7   11.77    2.75
  11  -6   7   13.97    2.71
  11  -6   7    7.94    2.72
 -11  -6  -7   10.30    2.80
  12   6   7    3.14    2.66
  12  -6   7    2.44    2.55
  12  -6   7    0.34    2.74
 -12  -6  -7    1.30    2.47
  13   6   7   12.30    3.16
  13  -6   7   14.77    3.13
  13  -6   7    2.90    3.20
 -13  -6  -7    7.05    3.30
  14   6   7   -0.29    2.50
  14  -6   7    1.42    2.45
  14  -6   7    0.07    2.79
 -14  -6  -7   -0.71    2.59
  15   6   7    2.19    2.80
  15  -6   7    0.54    2.69
  15  -6   7    1.22    3.18
 -15  -6  -7    0.40    3.17
  16   6   7   15.02    3.12
  16  -6   7   13.54    3.20
  16  -6   7   14.05    3.25
 -16  -6  -7   10.79    3.32
  17   6   7    3.83    2.86
  17  -6   7    1.63    3.21
 -17  -6  -7    2.06    3.34
 -22  -7   7   21.92    3.30
 -22  -7   7   23.42    4.21
 -21  -7   7    4.90    3.35
 -21  -7   7    6.30    3.47
 -20  -7   7   25.91    3.47
 -20  -7   7   26.58    3.78
 -19  -7   7    1.19    2.72
 -19  -7   7    0.67    2.70
 -18  -7   7   16.36    3.01
 -18  -7   7   16.86    2.91
 -17  -7   7    5.12    2.58
 -17  -7   7    5.21    2.84
 -16  -7   7    5.00    2.68
 -16  -7   7    3.39    2.74
 -15  -7   7    5.51    2.53
  15  -7  -7    4.38    2.78
 -15  -7   7    3.05    2.60
 -14  -7   7   17.18    2.78
  14  -7  -7   15.11    2.90
 -14  -7   7   14.99    2.63
 -13   7   7   -0.41    3.11
 -13  -7   7   -1.76    1.88
  13  -7  -7    0.31    2.11
 -13  -7   7    0.56    2.16
 -12   7   7   10.39    2.57
 -12  -7   7    7.31    2.47
  12  -7  -7    8.91    2.55
 -12  -7   7    8.72    2.60
 -11   7   7    1.68    1.89
 -11  -7   7    1.89    2.16
  11  -7  -7    1.82    1.95
 -11  -7   7    1.80    2.23
 -10   7   7   40.18    4.66
 -10  -7   7   31.30    3.05
 -10   7   7   30.34    3.11
 -10  -7   7   30.39    3.03
  10   7  -7   32.70    3.43
   9  -7  -7   13.33    2.61
  -9  -7   7   13.07    2.70
  -9   7   7   12.83    2.55
  -9  -7   7   14.95    2.96
   9   7  -7   13.90    2.81
  -8   7   7   93.07    7.07
   8  -7  -7   92.19    4.39
  -8  -7   7   89.81    4.28
   8  -7  -7   84.65    4.64
  -8  -7   7   88.48    4.36
  -8   7   7   85.77    4.23
   8   7  -7   88.63    4.64
  -7   7   7   19.68    8.84
   7  -7  -7   17.99    2.62
  -7  -7   7   15.94    2.60
   7  -7  -7   16.91    2.40
  -7  -7   7   15.35    2.85
  -7   7   7   18.92    2.68
   7   7  -7   16.69    2.78
  -6   7   7   34.66    4.90
   6  -7  -7   32.27    3.04
   6  -7  -7   29.07    3.00
  -6  -7   7   26.31    3.08
   6   7  -7   27.25    3.32
  -6   7   7   26.12    3.05
  -5   7   7   12.25    3.56
   5  -7  -7   10.34    2.25
   5  -7  -7   10.06    2.37
  -5  -7   7    6.91    2.24
   5   7  -7    5.95    2.65
  -5   7   7    7.83    2.30
   4  -7  -7    2.77    2.02
  -4  -7   7    1.68    1.98
   4  -7  -7    1.10    2.01
  -4  -7   7    0.86    2.08
   4   7  -7    0.76    2.23
  -4   7   7    0.47    2.17
  -3   7   7   30.74    2.82
   3  -7  -7   24.96    2.86
  -3  -7   7   38.67    3.13
   3  -7  -7   31.26    3.10
   3  -7  -7   51.41    4.21
  -3  -7   7   50.10    4.15
   3   7  -7   37.71    3.47
   2  -7  -7    1.29    1.95
  -2  -7   7   -1.12    1.84
   2  -7  -7    0.53    1.86
  -2  -7   7    1.48    2.08
   2  -7  -7    0.04    1.87
   2   7  -7    0.22    2.08
  -1   7   7   35.68    7.61
  -1  -7   7   41.44    3.19
   1  -7  -7   38.64    3.13
  -1  -7   7   51.18    4.10
   1   7  -7   51.70    4.49
   0   7   7   39.18    3.43
   0  -7   7   37.16    3.14
   0  -7  -7   35.75    3.28
   0  -7   7   28.18    3.00
   0   7  -7   20.88    2.91
   1   7   7    1.98    4.28
   1  -7   7    2.99    2.09
  -1  -7  -7    4.15    1.98
   1  -7   7    4.00    2.26
  -1   7  -7    7.52    2.62
  -1  -7  -7    7.27    2.33
   2   7   7   17.25    2.57
   2  -7   7   17.55    2.68
  -2  -7  -7   10.88    2.29
   2  -7   7   11.69    2.38
  -2   7  -7    8.70    2.69
  -2  -7  -7   10.02    2.41
   3   7   7   75.64    4.15
   3  -7   7   65.89    3.94
  -3  -7  -7   92.85    4.51
   3  -7   7   82.67    4.77
  -3  -7  -7   98.92    4.79
   4   7   7    8.90    2.48
   4  -7   7    9.95    2.45
  -4  -7  -7    3.54    2.00
   4  -7   7    7.91    2.42
  -4  -7  -7    3.25    2.10
   5   7   7   42.10    4.61
   5  -7   7   36.12    3.15
  -5  -7  -7   57.99    5.41
   5  -7   7   45.08    4.69
  -5  -7  -7   63.57    5.96
   6   7   7   -0.08    2.49
   6  -7   7    1.30    2.29
  -6  -7  -7    3.70    2.45
   6  -7   7    2.11    2.12
  -6  -7  -7    2.34    2.57
   7   7   7   93.78    7.03
   7  -7   7   87.31    6.66
   7  -7   7  110.19    5.15
  -7  -7  -7  127.17    5.26
   8  -7   7    6.59    2.86
   8  -7   7    1.89    2.49
  -8  -7  -7    1.15    2.93
   9  -7   7  189.08    8.48
  -9  -7  -7  187.36    8.26
  10   7   7    4.38    2.50
  10  -7   7    2.22    2.65
  10  -7   7    6.87    2.61
 -10  -7  -7    5.35    2.89
  11   7   7   82.18    7.11
  11  -7   7   73.87    6.57
  11  -7   7   96.96    4.88
 -11  -7  -7  100.23    5.06
  12   7   7    7.82    2.69
  12  -7   7    8.97    2.58
  12  -7   7   10.73    2.82
 -12  -7  -7   10.02    3.50
  13   7   7  109.25    5.99
  13  -7   7  115.92    6.40
  13  -7   7  125.47    6.78
 -13  -7  -7  131.32    7.47
  14   7   7   -0.92    2.69
  14  -7   7    0.10    2.50
  14  -7   7    0.60    2.91
 -14  -7  -7    0.40    3.52
  15   7   7   52.21    3.79
  15  -7   7   47.42    3.93
  15  -7   7   49.12    3.97
 -15  -7  -7   57.00    4.38
  16   7   7    8.55    2.93
  16  -7   7    5.82    3.30
 -16  -7  -7    6.10    3.62
  17   7   7   50.52    4.09
  17  -7   7   51.68    4.61
 -17  -7  -7   54.52    4.77
 -21  -8   7    7.57    3.24
 -21  -8   7    5.94    2.94
 -20  -8   7   87.17    4.74
 -20  -8   7   88.06    4.67
 -19  -8   7    0.34    2.55
 -19  -8   7    0.90    2.61
 -18  -8   7  124.16    5.23
 -18  -8   7  124.83    5.54
 -17  -8   7    4.56    2.90
 -17  -8   7    1.93    2.91
 -16  -8   7  148.04    6.60
 -16  -8   7  143.86    6.58
 -15  -8   7    5.92    2.83
 -15  -8   7    5.20    2.56
 -14  -8   7   37.70    3.78
  14  -8  -7   37.40    3.98
 -14  -8   7   36.57    3.89
 -13  -8   7    1.97    2.39
  13  -8  -7    0.94    2.36
 -13  -8   7    1.37    2.41
 -12   8   7   69.23    4.70
 -12  -8   7   81.78    5.43
  12  -8  -7   86.19    5.39
 -12  -8   7   78.02    5.04
 -11  -8   7   -0.11    1.65
  11  -8  -7    0.58    2.11
 -11  -8   7   -0.46    2.20
 -10   8   7  153.75    5.36
 -10  -8   7  160.18    5.50
  10  -8  -7  156.12    5.97
 -10  -8   7  153.83    5.62
  -9   8   7   13.10    2.81
  -9  -8   7   15.11    2.68
  -9  -8   7   17.18    2.91
  -8   8   7  359.77   11.15
   8  -8  -7  363.98   11.17
  -8  -8   7  362.48   10.70
  -8  -8   7  385.72    8.57
  -8   8   7  360.74   10.96
   7  -8  -7    6.44    2.33
  -7  -8   7    4.09    2.22
  -7   8   7    4.69    2.13
   7   8  -7    3.30    2.56
  -6   8   7  240.44    9.74
   6  -8  -7  226.85    9.45
  -6  -8   7  254.89   10.38
   6   8  -7  242.07   10.10
  -6   8   7  261.11   10.44
   5  -8  -7    0.89    1.89
  -5  -8   7    3.92    2.13
  -5  -8   7    2.37    2.14
   5   8  -7    3.32    2.61
  -5   8   7    1.67    2.25
  -4   8   7  282.87   11.02
   4  -8  -7  287.36   11.15
  -4  -8   7  275.47   10.76
  -4  -8   7  278.04   11.12
   4   8  -7  269.42   10.90
  -4   8   7  287.26   11.35
   3  -8  -7    4.06    2.15
  -3  -8   7    3.47    2.31
  -3  -8   7    3.98    2.18
   3   8  -7    4.31    2.81
  -3   8   7    2.79    2.01
  -2   8   7  257.38   10.42
  -2  -8   7  251.58   10.15
   2  -8  -7  253.26   10.18
  -2  -8   7  250.47   10.15
   2   8  -7  249.52   10.32
  -1  -8   7    2.38    2.31
   1  -8  -7   -0.08    2.05
  -1  -8   7   -0.69    1.96
   1  -8  -7    1.02    2.37
   1   8  -7    2.90    2.81
   0   8   7  345.20   13.23
   0  -8   7  336.99   12.73
   0  -8  -7  347.52   13.12
   0  -8   7  328.45   12.57
   0  -8  -7  330.11   12.89
   1  -8   7    6.00    2.27
  -1  -8  -7    6.45    2.32
   1  -8   7    6.61    2.28
  -1  -8  -7    8.13    2.54
   2   8   7  173.96    7.05
   2  -8   7  168.51    6.65
  -2  -8  -7  178.35    6.92
   2  -8   7  177.27    7.03
  -2  -8  -7  161.03    7.04
   3  -8   7    5.81    2.34
  -3  -8  -7    3.06    2.29
   3  -8   7    3.92    2.28
  -3  -8  -7    3.31    2.29
   4   8   7  176.14    5.83
   4  -8   7  183.84    6.10
  -4  -8  -7  168.45    5.81
   4  -8   7  175.19    6.05
  -4  -8  -7  161.52    6.16
   5  -8   7    1.01    2.10
  -5  -8  -7    0.13    2.01
   5  -8   7    1.23    2.76
  -5  -8  -7    0.37    2.18
   6   8   7  122.11    5.42
   6  -8   7  127.22    5.48
   6  -8   7  117.27    5.49
  -6  -8  -7   95.43    6.01
   7   8   7   37.94    4.68
   7  -8   7   37.52    3.42
   7  -8   7   34.78    3.32
  -7  -8  -7   28.70    3.27
   8   8   7   99.15    6.00
   8  -8   7  100.68    6.29
   8  -8   7   85.94    5.74
  -8  -8  -7   68.08    5.14
   9  -8   7   63.58    4.97
  -9  -8  -7   52.57    3.96
  10  -8   7   64.52    6.13
 -10  -8  -7   64.24    6.17
  11   8   7    9.07    2.93
  11  -8   7    6.59    2.76
  11  -8   7   26.39    3.45
 -11  -8  -7   22.34    3.24
  12   8   7   45.40    4.04
  12  -8   7   22.04    3.22
 -12  -8  -7   25.82    3.64
  13   8   7    5.33    2.58
  13  -8   7    4.18    4.92
  13  -8   7   14.07    3.24
 -13  -8  -7   10.41    3.61
  14   8   7   15.95    3.00
  14  -8   7   17.15    3.04
  14  -8   7    8.55    2.98
 -14  -8  -7   11.19    3.25
  15   8   7   -0.64    2.76
  15  -8   7    4.56    3.36
 -15  -8  -7    3.95    3.85
  16   8   7   10.28    3.19
  16  -8   7    3.16    3.28
 -16  -8  -7    3.08    3.18
 -20  -9   7    2.92    3.23
 -20  -9   7    3.30    3.15
 -19  -9   7    0.84    2.83
 -19  -9   7    1.13    2.74
 -18  -9   7   19.44    3.36
 -18  -9   7   24.08    4.14
 -17  -9   7    0.93    2.47
 -17  -9   7   -0.49    2.65
 -16  -9   7   35.50    3.43
 -16  -9   7   35.33    3.41
 -15  -9   7    1.74    2.48
 -15  -9   7   -0.14    2.68
 -14  -9   7    5.17    2.54
 -14  -9   7    5.74    2.65
 -13  -9   7    1.00    2.14
 -13  -9   7    1.85    2.64
 -12  -9   7    8.00    2.24
  12  -9  -7    6.83    2.59
 -12  -9   7    7.12    2.70
 -11   9   7    0.12    1.89
 -11  -9   7    1.18    2.09
  11  -9  -7    0.61    2.23
 -11  -9   7    0.60    2.42
 -10   9   7    1.38    2.10
 -10  -9   7    4.15    2.28
  10  -9  -7    3.60    2.15
 -10  -9   7    4.02    2.33
  -9   9   7   23.40    2.76
  -9  -9   7   25.03    3.04
   9  -9  -7   25.44    3.41
  -9  -9   7   26.39    3.49
  -8   9   7    5.45    2.27
   8  -9  -7    4.24    2.41
  -8  -9   7    3.54    2.20
  -7   9   7   10.80    2.25
   7  -9  -7    9.36    2.40
   7  -9  -7   10.78    2.37
  -7  -9   7    9.21    2.50
  -6   9   7   29.10    2.89
   6  -9  -7   26.93    3.08
  -6  -9   7   19.54    2.61
  -6  -9   7   24.84    3.19
  -6   9   7   21.41    2.83
  -5   9   7    0.01    3.36
   5  -9  -7    0.92    2.11
  -5  -9   7    2.01    2.24
  -5  -9   7    1.99    2.29
  -5   9   7    3.32    2.15
  -4   9   7    6.15    2.22
   4  -9  -7    8.85    2.44
  -4  -9   7    2.32    1.92
  -4  -9   7    4.26    2.53
  -4   9   7    4.23    2.36
  -3   9   7    2.58    1.94
  -3  -9   7    2.48    1.73
  -3  -9   7    4.81    2.33
   3  -9  -7    5.27    2.19
  -3   9   7    3.45    2.10
  -2   9   7    0.07    2.81
  -2  -9   7   -0.06    1.91
  -2  -9   7    1.49    2.34
   2  -9  -7    0.48    2.16
  -2   9   7    0.86    2.06
  -1   9   7    3.42    2.92
  -1  -9   7    2.75    2.22
   1  -9  -7    2.73    2.08
  -1  -9   7    1.61    1.97
   1  -9  -7    0.23    2.32
   0  -9   7    6.76    2.28
   0  -9  -7    5.72    2.38
   0  -9   7   10.00    2.64
   0  -9  -7   12.34    2.60
   1   9   7   41.66    5.72
   1  -9   7   46.12    4.79
  -1  -9  -7   41.94    4.47
   1  -9   7   57.94    5.51
  -1  -9  -7   64.08    6.01
   2   9   7   35.52    9.58
   2  -9   7   35.14    4.03
  -2  -9  -7   35.36    3.94
   2  -9   7   30.31    3.64
  -2  -9  -7   27.56    3.59
   3   9   7   67.57    5.88
   3  -9   7   62.28    5.26
   3  -9   7   80.70    6.26
  -3  -9  -7   86.27    6.65
   4  -9   7    6.89    2.66
   4  -9   7    2.29    2.60
  -4  -9  -7    2.51    2.37
   5   9   7  112.73    5.18
   5  -9   7  102.88    5.12
   5  -9   7  120.87    5.48
  -5  -9  -7  129.97    5.90
   6   9   7    0.75    2.36
   6  -9   7   -0.47    2.40
   6  -9   7   -0.89    2.08
  -6  -9  -7   -0.21    2.35
   7   9   7   18.37    3.04
   7  -9   7   14.66    2.84
   7  -9   7   19.32    3.10
  -7  -9  -7   25.03    3.48
   8   9   7   15.75    2.95
   8  -9   7   13.51    2.75
   8  -9   7   21.39    2.99
  -8  -9  -7   28.36    3.31
   9   9   7   18.96    3.10
   9  -9   7   12.93    2.99
   9  -9   7   24.23    3.37
  -9  -9  -7   33.34    3.85
  10  -9   7    5.25    2.57
  10  -9   7    8.83    2.92
 -10  -9  -7   10.09    2.99
  11  -9   7  129.15    6.89
  11  -9   7  151.39    7.40
 -11  -9  -7  146.33    7.80
  12   9   7    3.21    2.71
  12  -9   7    0.16    2.45
  12  -9   7    4.04    2.98
 -12  -9  -7    3.27    2.85
  13   9   7   31.48    3.49
  13  -9   7   24.38    3.34
  13  -9   7   29.55    3.71
 -13  -9  -7   31.61    3.76
  14   9   7    1.69    3.01
  14  -9   7    2.57    2.88
 -14  -9  -7    0.48    3.16
  15   9   7   69.65    4.54
  15  -9   7   74.84    4.62
 -15  -9  -7   74.46    4.92
  16   9   7    6.79    3.31
  16  -9   7    5.08    3.26
 -16  -9  -7    8.42    3.28
 -20 -10   7    2.65    3.02
 -20 -10   7    1.14    3.15
 -19 -10   7    0.93    2.56
 -19 -10   7    0.92    3.30
 -18 -10   7    5.93    2.72
 -18 -10   7    3.93    3.07
 -17 -10   7    3.33    2.64
 -17 -10   7    1.96    3.10
 -16 -10   7   12.08    3.32
 -16 -10   7   12.98    3.27
 -15 -10   7   19.02    2.75
 -15 -10   7   13.38    3.28
 -14 -10   7   22.21    2.97
 -14 -10   7   18.57    3.08
 -13 -10   7    6.66    2.56
 -13 -10   7    8.85    2.81
 -12 -10   7   13.52    2.77
 -12 -10   7   11.94    2.91
 -11 -10   7    1.30    2.00
  11 -10  -7    1.38    2.50
 -11 -10   7    1.66    2.31
 -10 -10   7    1.02    2.41
  10 -10  -7   -0.12    2.10
 -10 -10   7    1.43    2.31
  -9  10   7   -0.08    2.23
   9 -10  -7   -0.23    2.21
  -9 -10   7    0.07    2.38
  -8  10   7    0.09    2.12
   8 -10  -7    0.17    2.27
  -8 -10   7   -0.31    2.11
  -7  10   7    0.09    1.94
  -7 -10   7   -0.36    1.97
   7 -10  -7    0.28    1.93
  -7 -10   7    1.34    2.26
  -6  10   7   18.19    5.32
  -6 -10   7   16.77    2.52
   6 -10  -7   17.80    2.71
  -6 -10   7   17.92    2.91
  -5  10   7   51.60    4.66
   5 -10  -7   52.35    4.98
  -5 -10   7   53.88    4.79
   5 -10  -7   55.88    5.10
  -5 -10   7   57.92    3.99
  -4  10   7   17.78    2.65
   4 -10  -7   14.52    2.70
  -4 -10   7   16.39    2.56
   4 -10  -7   19.18    2.87
  -4 -10   7   16.60    2.63
  -3 -10   7    0.49    2.08
  -3 -10   7   -0.22    2.62
   3 -10  -7    0.14    2.37
  -2  10   7   11.45    4.23
  -2 -10   7   12.23    2.56
  -2 -10   7    8.46    2.64
   2 -10  -7    9.97    2.74
  -1  10   7   13.68    2.76
  -1 -10   7   14.23    2.44
  -1 -10   7   15.04    2.55
   1 -10  -7   13.08    2.93
   0  10   7    1.33    2.00
   0 -10   7    1.90    2.23
   0 -10   7    1.43    2.28
   0 -10  -7    0.11    2.16
   1  10   7    0.66    3.45
   1 -10   7    1.28    2.20
   1 -10   7    1.52    2.09
  -1 -10  -7    2.81    2.54
   2  10   7   33.28    3.67
   2 -10   7   33.68    3.89
   2 -10   7   33.41    3.70
  -2 -10  -7   30.79    3.65
   3 -10   7   -0.21    2.45
   3 -10   7    0.89    2.38
  -3 -10  -7   -0.26    2.28
   4  10   7   15.22    2.72
   4 -10   7   16.08    3.23
   4 -10   7   14.68    2.79
  -4 -10  -7   12.70    2.75
   5  10   7   18.24    3.32
   5 -10   7   18.93    6.46
   5 -10   7   17.59    3.05
  -5 -10  -7   18.36    2.85
   6  10   7   10.97    2.81
   6 -10   7   11.35    2.67
   6 -10   7   10.12    2.65
  -6 -10  -7   10.67    2.69
   7  10   7    4.36    2.40
   7 -10   7    4.63    2.55
   7 -10   7    7.91    2.78
  -7 -10  -7    4.68    2.56
   8  10   7   15.74    3.00
   8 -10   7   17.88    3.08
   8 -10   7   14.91    3.38
  -8 -10  -7   13.57    3.25
   9  10   7    7.43    3.01
   9 -10   7    5.05    2.89
   9 -10   7    5.97    3.11
  -9 -10  -7    6.31    2.95
  10  10   7   -0.78    2.70
  10 -10   7    0.65    2.53
  10 -10   7   -0.64    2.85
 -10 -10  -7    0.92    2.85
  11 -10   7    9.57    3.29
  11 -10   7    7.52    2.96
 -11 -10  -7    9.54    2.85
  12 -10   7    8.47    3.18
  12 -10   7    5.44    3.23
 -12 -10  -7    3.28    3.30
  13  10   7    2.73    2.71
  13 -10   7    3.92    3.38
 -13 -10  -7    1.83    3.21
  14  10   7    6.89    2.92
  14 -10   7    1.50    2.93
 -14 -10  -7    3.39    3.18
  15  10   7    4.02    3.02
  15 -10   7    0.33    3.42
 -15 -10  -7    1.05    3.37
 -19 -11   7    1.53    3.38
 -19 -11   7   -1.14    3.45
 -18 -11   7   25.03    3.61
 -18 -11   7   22.38    3.57
 -17 -11   7    1.66    3.67
 -17 -11   7    2.08    4.15
 -16 -11   7   41.86    4.28
 -16 -11   7   39.13    3.81
 -15 -11   7    0.51    2.84
 -15 -11   7    1.90    3.31
 -14 -11   7   23.06    3.09
 -14 -11   7   22.54    3.36
 -13 -11   7   -0.38    2.88
 -13 -11   7    1.93    2.56
 -12 -11   7   12.99    2.60
 -12 -11   7   15.38    2.80
 -11 -11   7   13.29    2.81
 -11 -11   7   13.66    3.01
 -10 -11   7    5.08    3.01
   9 -11  -7   34.47    3.24
  -9 -11   7   37.00    3.56
  -8  11   7   87.68    5.54
  -8 -11   7   86.18    5.58
   8 -11  -7   88.05    5.72
  -8 -11   7   91.32    5.92
  -7  11   7    8.48    2.54
  -7 -11   7    3.82    2.41
   7 -11  -7    7.21    2.55
  -7 -11   7    8.40    2.46
  -6  11   7   41.59    3.18
  -6 -11   7   38.89    3.12
   6 -11  -7   40.10    3.44
  -6 -11   7   39.11    3.42
  -5  11   7   11.95    2.44
  -5 -11   7   19.83    3.04
   5 -11  -7   17.45    2.74
  -5 -11   7   13.94    2.70
  -4  11   7   -0.27    1.91
  -4 -11   7    0.85    2.21
   4 -11  -7    1.73    2.45
  -4 -11   7    2.19    2.35
  -3  11   7   14.36    2.62
  -3 -11   7   18.88    2.74
  -3 -11   7   20.67    2.79
   3 -11  -7   18.45    3.01
  -2  11   7    1.98    2.80
  -2 -11   7    1.81    2.50
  -2 -11   7   -0.42    2.45
   2 -11  -7    0.92    2.21
  -1  11   7   15.75    2.53
  -1 -11   7   17.12    2.68
  -1 -11   7   17.92    2.67
   1 -11  -7   17.11    3.11
   0 -11   7   -1.38    2.23
   0 -11   7   -0.43    2.14
   0 -11  -7    0.27    2.34
   1  11   7   29.36    5.08
   1 -11   7   34.47    3.23
   1 -11   7   34.13    3.29
  -1 -11  -7   35.07    3.37
   2  11   7   25.92    6.66
   2 -11   7   21.44    2.84
   2 -11   7   25.26    3.01
  -2 -11  -7   23.88    2.92
   3  11   7   54.66    8.24
   3 -11   7   56.43    4.50
   3 -11   7   60.21    4.64
  -3 -11  -7   61.89    4.68
   4  11   7   36.71    4.65
   4 -11   7   35.78    3.34
   4 -11   7   34.85    3.22
  -4 -11  -7   30.92    3.23
   5  11   7   49.12    4.39
   5 -11   7   49.43    4.26
   5 -11   7   53.12    5.34
  -5 -11  -7   51.55    5.20
   6  11   7    0.35    3.42
   6 -11   7    0.98    4.27
   6 -11   7   -0.81    2.51
  -6 -11  -7    2.93    2.57
   7  11   7    9.99    2.36
   7 -11   7    9.41    3.07
   7 -11   7   11.28    2.69
  -7 -11  -7   12.80    3.01
   8  11   7    0.86    2.26
   8 -11   7    0.73    2.53
   8 -11   7    1.40    2.72
  -8 -11  -7    0.15    2.50
   9  11   7    8.88    2.90
   9 -11   7    7.84    2.67
   9 -11   7    9.80    2.90
  -9 -11  -7    8.86    3.15
  10  11   7    1.36    3.02
  10 -11   7    0.41    2.41
  10 -11   7    1.96    3.68
 -10 -11  -7   -1.44    3.18
  11  11   7   24.73    3.53
  11 -11   7   25.19    3.30
  11 -11   7   20.11    3.46
 -11 -11  -7   20.04    3.35
  12 -11   7    1.50    2.96
 -12 -11  -7    1.65    3.29
  13 -11   7    3.16    2.96
 -13 -11  -7    2.46    3.13
  14  11   7   13.77    3.14
  14 -11   7   16.45    3.46
 -14 -11  -7   19.75    3.86
 -18 -12   7   42.00    4.06
 -18 -12   7   40.39    3.81
 -17 -12   7    7.65    3.40
 -17 -12   7    9.20    5.48
 -16 -12   7   84.33    4.60
 -16 -12   7   83.65    4.74
 -15 -12   7    2.67    2.58
 -15 -12   7    1.50    3.13
 -14 -12   7   85.52    4.79
 -14 -12   7   80.65    4.76
 -13 -12   7   -0.85    2.63
 -13 -12   7    0.20    3.83
 -12 -12   7  107.08    5.88
 -12 -12   7  111.82    6.11
 -11 -12   7    1.66    2.78
 -10 -12   7   65.74    4.20
  -9 -12   7   17.95    2.74
  -9 -12   7   17.27    3.32
  -8 -12   7  170.62    5.67
  -8 -12   7  170.49    6.17
  -7  12   7   35.68    3.27
  -7 -12   7   35.64    3.74
   7 -12  -7   36.12    3.32
  -7 -12   7   35.39    3.32
  -6  12   7  268.37   10.12
  -6 -12   7  265.92    9.87
   6 -12  -7  282.64   10.74
  -6 -12   7  269.88   10.24
  -5  12   7   33.51    6.75
  -5 -12   7   26.68    2.96
   5 -12  -7   32.60    3.58
  -5 -12   7   30.52    3.39
  -4  12   7  220.54    8.69
  -4 -12   7  218.52    8.69
   4 -12  -7  225.46    9.26
  -4 -12   7  229.95    9.19
  -3  12   7    2.20    2.31
  -3 -12   7    2.64    2.24
  -3 -12   7    2.08    2.26
   3 -12  -7    3.79    2.68
  -2  12   7  140.03    6.52
  -2 -12   7  123.29    6.31
   2 -12  -7  137.19    6.67
  -1  12   7    0.80    2.51
  -1 -12   7    1.01    2.25
   1 -12  -7    0.73    2.28
   0  12   7   89.03    5.70
   0 -12   7   82.36    5.41
   0 -12   7   81.41    5.50
   0 -12  -7   82.93    5.64
   1  12   7    0.96    2.50
   1 -12   7    0.48    2.45
   1 -12   7   -1.03    2.40
  -1 -12  -7    2.04    2.20
   2  12   7  114.62    6.92
   2 -12   7  113.46    5.81
   2 -12   7  107.38    4.99
  -2 -12  -7  100.98    6.20
   3 -12   7   18.78    3.05
   3 -12   7   23.77    3.28
  -3 -12  -7   26.41    3.40
   4  12   7   96.89    4.63
   4 -12   7  103.47    4.70
   4 -12   7   88.52    7.60
  -4 -12  -7   69.24    6.29
   5 -12   7    6.94    2.67
  -5 -12  -7    8.76    2.85
   6  12   7   41.70    3.61
   6 -12   7   43.74    3.63
   6 -12   7   39.10    3.67
  -6 -12  -7   31.47    3.30
   7  12   7    0.44    3.25
   7 -12   7    1.76    2.43
   7 -12   7    1.81    2.72
  -7 -12  -7    1.40    2.98
   8  12   7   51.01    4.25
   8 -12   7   56.28    4.09
   8 -12   7   52.88    4.10
  -8 -12  -7   49.93    3.98
   9  12   7    1.15    2.97
   9 -12   7    1.64    3.01
   9 -12   7    0.60    2.91
  -9 -12  -7    1.36    2.93
  10  12   7   12.16    3.01
  10 -12   7   10.48    3.20
  10 -12   7    7.68    3.70
 -10 -12  -7    8.64    3.38
  11  12   7   25.43    3.64
  11 -12   7   32.40    3.68
 -11 -12  -7   36.09    3.96
  12  12   7   13.67    3.21
  12 -12   7    9.98    3.26
 -12 -12  -7   11.27    3.17
  13 -12   7   30.78    4.08
 -13 -12  -7   28.36    4.13
 -17 -13   7    2.22    3.29
 -16 -13   7   73.66    4.43
 -16 -13   7   69.11    4.48
 -15 -13   7    2.39    3.24
 -14 -13   7   60.89    4.42
 -14 -13   7   54.59    4.16
 -13 -13   7    0.46    2.81
 -13 -13   7    1.48    2.75
 -12 -13   7   42.53    3.59
 -11 -13   7    3.14    2.76
 -10 -13   7   35.69    3.55
 -10 -13   7   40.99    3.53
  -9 -13   7   29.30    3.34
  -9 -13   7   27.94    3.41
  -8 -13   7    9.69    2.31
  -8 -13   7   13.10    3.38
  -7 -13   7   37.49    3.56
  -7 -13   7   35.46    3.93
  -6  13   7   38.63    3.74
  -6 -13   7   25.25    3.02
  -6 -13   7   27.81    3.15
  -5  13   7   20.86    2.96
  -5 -13   7   36.29    3.66
  -5 -13   7   29.50    3.73
  -4  13   7   58.43    7.02
  -4 -13   7   40.40    3.73
   4 -13  -7   37.68    3.91
  -4 -13   7   41.37    4.09
  -3  13   7   82.62    7.23
  -3 -13   7  103.21    4.65
  -3 -13   7  107.38    4.93
   3 -13  -7  105.61    5.19
  -2  13   7   15.86    6.49
  -2 -13   7    5.91    2.53
  -2 -13   7    8.54    2.50
   2 -13  -7   11.31    3.06
  -1  13   7   35.45    3.83
  -1 -13   7   45.62    4.08
  -1 -13   7   51.90    5.13
   1 -13  -7   44.05    4.24
   0  13   7    1.55    2.49
   0 -13   7    1.52    2.24
   0 -13   7    0.61    2.89
   0 -13  -7    0.27    2.69
   1  13   7  102.72    4.72
   1 -13   7  112.63    4.86
   1 -13   7  131.06    5.56
  -1 -13  -7  121.13    5.35
   2  13   7    1.90    2.63
   2 -13   7    0.25    2.24
   2 -13   7    0.96    2.35
  -2 -13  -7    0.70    2.79
   3  13   7  208.57    7.98
   3 -13   7  219.72    9.16
   3 -13   7  221.34    8.54
  -3 -13  -7  238.09    8.90
   4 -13   7    2.05    2.39
   4 -13   7    1.10    2.63
  -4 -13  -7    5.10    3.06
   5  13   7  125.45    6.55
   5 -13   7  125.13    6.44
   5 -13   7  133.90    6.99
  -5 -13  -7  130.40    6.81
   6 -13   7    0.61    2.70
   6 -13   7    0.20    3.19
  -6 -13  -7   -1.94    2.57
   7  13   7   83.70    4.36
   7 -13   7   82.72    4.44
   7 -13   7   89.31    4.80
  -7 -13  -7  101.21    5.75
   8  13   7    2.43    2.81
   8 -13   7    2.53    2.91
   8 -13   7    3.98    3.16
  -8 -13  -7    4.41    2.85
   9  13   7  126.95    5.36
   9 -13   7  132.68    5.68
   9 -13   7  135.83    5.58
  -9 -13  -7  139.28    5.61
  10  13   7    4.09    6.42
  10 -13   7    5.87    3.18
 -10 -13  -7    4.46    4.85
  11  13   7  134.65    5.43
  11 -13   7  131.77    5.77
 -11 -13  -7  134.75    5.84
  12  13   7    0.63    3.13
  12 -13   7    3.49    3.56
 -12 -13  -7    0.56    3.36
 -16 -14   7   59.26    4.38
 -16 -14   7   59.92    4.44
 -15 -14   7    0.62    3.15
 -15 -14   7    1.56    3.14
 -14 -14   7   73.22    4.36
 -14 -14   7   69.40    4.79
 -13 -14   7    0.53    3.30
 -12 -14   7  114.79    5.34
 -11 -14   7    0.59    3.22
 -11 -14   7   -1.43    2.72
 -10 -14   7  258.51    7.24
 -10 -14   7  253.10    7.07
  -9 -14   7    0.42    2.74
  -9 -14   7    0.40    2.96
  -8 -14   7  154.02    7.32
  -8 -14   7  155.65    7.71
  -7 -14   7   11.16    2.84
  -7 -14   7    8.34    3.13
  -6 -14   7   94.29    5.09
  -6 -14   7  100.69    5.41
  -5  14   7    7.52    2.32
  -5 -14   7    6.69    2.96
  -5 -14   7    9.52    2.78
  -4  14   7  155.02    6.75
  -4 -14   7  148.82    6.38
  -4 -14   7  156.35    7.04
  -3  14   7    3.44    4.39
  -3 -14   7    2.47    2.31
  -3 -14   7    3.52    2.77
  -2  14   7  218.97    8.32
  -2 -14   7  213.63    8.12
  -2 -14   7  212.21    8.28
  -1  14   7    2.16    3.30
  -1 -14   7    6.66    2.85
  -1 -14   7    7.38    2.87
   1 -14  -7    4.11    3.01
   0  14   7  165.80    6.93
   0 -14   7  159.35    6.79
   0 -14   7  145.64    6.69
   0 -14  -7  154.97    6.94
   1  14   7    2.62    2.53
   1 -14   7    1.96    2.62
   1 -14   7    1.46    2.46
  -1 -14  -7    2.34    3.04
   2  14   7  103.44    5.74
   2 -14   7   89.30    5.50
   2 -14   7   73.71    4.74
  -2 -14  -7   77.96    5.10
   3 -14   7   10.58    3.24
   3 -14   7    6.26    3.04
  -3 -14  -7    4.43    2.69
   4  14   7  105.22    5.80
   4 -14   7  100.45    5.62
   4 -14   7   89.98    5.41
  -4 -14  -7   79.75    5.56
   5 -14   7    3.00    2.55
   5 -14   7    6.16    2.99
  -5 -14  -7    8.69    3.03
   6  14   7   77.26    4.51
   6 -14   7   66.58    4.25
   7  14   7   -0.59    3.37
   7 -14   7    2.43    2.88
   7 -14   7    2.35    2.91
  -7 -14  -7    1.34    2.96
   8  14   7    5.61    2.87
   8 -14   7    7.18    2.90
   8 -14   7    7.27    3.41
  -8 -14  -7    1.64    3.23
   9  14   7    0.87    3.02
   9 -14   7    2.83    3.15
  -9 -14  -7    3.13    4.34
  10  14   7   45.15    3.92
  10 -14   7   39.16    4.02
 -10 -14  -7   36.67    4.20
  11  14   7    3.78    3.18
  11 -14   7    2.10    3.06
 -11 -14  -7    3.95    3.09
 -14 -15   7    4.75    3.13
 -13 -15   7   -0.52    2.89
 -12 -15   7   32.38    3.48
 -12 -15   7   33.02    3.95
 -11 -15   7    1.02    2.62
 -11 -15   7    0.41    2.70
 -10 -15   7    2.36    2.71
 -10 -15   7    1.31    3.01
  -9 -15   7    4.41    2.80
  -9 -15   7    1.74    3.11
  -8 -15   7    0.09    2.68
  -8 -15   7    1.84    3.02
  -7 -15   7    0.69    2.48
  -7 -15   7    1.75    2.61
  -6 -15   7    4.18    2.44
  -6 -15   7    2.20    3.25
  -5 -15   7   18.31    3.18
  -5 -15   7   14.67    3.07
  -4  15   7    1.17    2.35
  -4 -15   7   -0.49    2.74
  -4 -15   7    2.86    3.13
  -3  15   7   29.91    3.46
  -3 -15   7   39.37    3.72
  -3 -15   7   39.93    3.82
  -2  15   7    7.03    2.61
  -2 -15   7    1.30    2.58
  -2 -15   7    0.63    2.71
  -1  15   7   27.05    3.28
  -1 -15   7   27.84    3.23
  -1 -15   7   30.90    3.55
   0  15   7    0.02    2.98
   0 -15   7    1.48    2.46
   0 -15   7    0.73    3.03
   1  15   7   13.35    2.96
   1 -15   7   14.21    2.87
   1 -15   7   15.10    3.02
   2  15   7    5.16    2.74
   2 -15   7    5.06    2.74
   2 -15   7    6.83    2.95
   3  15   7   29.89    3.38
   3 -15   7   31.75    3.52
   3 -15   7   32.16    3.74
   4  15   7   -0.63    2.63
   4 -15   7   -0.16    2.71
   4 -15   7   -1.10    2.86
  -4 -15  -7   -0.13    2.46
   5  15   7   30.63    3.38
   5 -15   7   28.13    3.57
   5 -15   7   32.63    3.97
  -5 -15  -7   31.95    3.56
   6  15   7   12.55    5.51
   6 -15   7   12.54    2.97
   6 -15   7   15.05    3.29
  -6 -15  -7   14.90    3.14
   7  15   7   26.53    3.25
   7 -15   7   27.05    3.35
   7 -15   7   26.17    3.85
  -7 -15  -7   27.72    4.02
   8  15   7   -0.23    3.71
   8 -15   7   -0.33    3.32
  -8 -15  -7   -1.61    3.25
   9  15   7   37.46    3.87
   9 -15   7   40.18    4.31
 -12 -16   7    3.63    3.27
 -12 -16   7    3.22    3.58
 -11 -16   7   12.36    3.02
 -11 -16   7   14.46    3.51
 -10 -16   7    0.54    2.78
 -10 -16   7    2.59    3.30
  -9 -16   7   24.44    3.32
  -9 -16   7   23.83    3.87
  -8 -16   7   -0.32    3.50
  -8 -16   7    1.98    3.21
  -7 -16   7   11.59    3.43
  -7 -16   7   13.38    3.12
  -6 -16   7    1.92    2.41
  -6 -16   7    1.78    2.76
  -5 -16   7    0.73    2.65
  -5 -16   7    0.53    2.88
  -4 -16   7    0.03    2.71
  -4 -16   7    0.07    2.82
  -3 -16   7   -2.47    2.64
  -3 -16   7    0.97    3.12
  -2  16   7    9.80    3.05
  -2 -16   7    7.04    3.39
  -2 -16   7    6.89    3.24
  -1  16   7    2.42    2.50
  -1 -16   7    1.59    2.64
  -1 -16   7    1.56    2.87
   0  16   7   -0.19    2.45
   0 -16   7    1.67    3.69
   0 -16   7   -1.50    2.70
   1  16   7    6.35    2.93
   1 -16   7    7.87    2.78
   1 -16   7    6.12    3.10
   2  16   7    0.81    2.50
   2 -16   7   -0.74    2.33
   2 -16   7    1.41    2.60
   3  16   7   -0.14    2.61
   3 -16   7    2.16    2.68
   3 -16   7    1.66    2.82
   4  16   7    2.05    2.77
   4 -16   7   -0.27    2.93
   4 -16   7    0.31    3.11
   5  16   7    1.21    2.82
   5 -16   7    1.03    2.77
   5 -16   7    0.22    3.01
   6  16   7    1.99    2.79
   6 -16   7    0.41    2.58
   6 -16   7   -0.33    2.82
   7  16   7   -0.19    2.82
   7 -16   7    1.26    2.98
 -10 -17   7    3.94    2.84
 -10 -17   7    3.70    3.29
  -9 -17   7    7.39    2.92
  -9 -17   7   10.39    3.22
  -8 -17   7    2.09    2.72
  -8 -17   7    4.41    3.39
  -7 -17   7   10.18    3.16
  -7 -17   7    7.46    3.02
  -6 -17   7   -0.92    2.84
  -6 -17   7   -1.15    3.41
  -5 -17   7    3.56    2.85
  -5 -17   7    4.85    3.18
  -4 -17   7    8.98    3.06
  -4 -17   7    4.31    3.21
  -3 -17   7   14.09    3.03
  -3 -17   7   14.43    3.05
  -2 -17   7   19.70    3.06
  -2 -17   7   16.47    3.05
  -1  17   7    8.18    2.98
  -1 -17   7   12.11    2.95
  -1 -17   7   10.19    3.04
   0  17   7    7.45    4.01
   0 -17   7   10.14    2.88
   0 -17   7    7.28    2.90
   1  17   7   11.14    3.27
   1 -17   7   10.07    2.90
   1 -17   7   12.27    3.54
   2  17   7    0.43    3.01
   2 -17   7    1.95    3.19
   2 -17   7    0.83    2.99
   3  17   7   15.34    3.18
   3 -17   7   16.75    3.13
   3 -17   7   15.74    3.22
   4  17   7    2.51    3.02
   4 -17   7    3.90    3.01
   4 -17   7    2.14    3.10
   5  17   7   16.94    3.30
   5 -17   7   16.76    3.70
  -6 -18   7   94.92    4.98
  -6 -18   7   91.97    5.16
  -5 -18   7    0.33    3.33
  -4 -18   7   38.07    3.71
  -4 -18   7   40.41    3.80
  -3 -18   7    1.23    4.92
  -3 -18   7    0.45    3.31
  -2 -18   7   76.80    4.68
  -2 -18   7   74.80    4.75
  -1 -18   7    9.74    3.12
  -1 -18   7    7.52    3.24
   0 -18   7   31.85    3.85
   0 -18   7   26.29    3.64
   1  18   7   -0.41    2.73
   1 -18   7    1.22    2.63
   1 -18   7    0.57    3.15
 -19   0   8   26.37    3.03
 -18   0   8   39.03    4.60
 -18   0   8   33.48    3.46
 -17   0   8   28.26    5.57
 -17   0   8   23.46    2.98
 -16   0   8   26.14   10.96
 -16   0   8   21.75    3.06
 -15   0   8  216.46    9.67
 -15   0   8  242.87    9.52
 -14   0   8   33.36   10.04
 -14   0   8   26.77    3.59
 -13   0   8    6.95    2.45
 -12   0   8   57.10    3.65
 -12   0   8   47.18    4.48
 -11   0   8    1.50    2.12
 -11   0   8    1.71    2.24
 -11   0   8    2.07    2.18
 -10   0   8    0.68    2.71
 -10   0   8    3.12    2.21
 -10   0   8    5.86    2.61
  -9   0   8   50.52    3.68
  -9   0   8   64.18    3.91
  -9   0   8   77.77    4.23
  -8   0   8   13.66    2.63
  -8   0   8    9.98    3.21
  -8   0   8    4.30    3.19
  -7   0   8   69.35    4.85
  -6   0   8    9.65    2.46
  -5   0   8   66.78    4.18
  -4   0   8    1.31    1.99
  -3   0   8  311.47   10.99
  -2   0   8   12.30    2.52
  -2   0   8   11.50    9.68
   2   0  -8    3.59    3.44
  -1   0   8  232.72    8.90
  -1   0   8  265.57   10.01
   1   0  -8  273.90   10.35
   0   0   8   36.73    3.16
   0   0   8   47.73    4.00
   0   0  -8   51.35    4.33
   1   0   8  362.76   12.42
  -1   0  -8  375.06   12.66
   2   0   8    0.58    1.98
  -2   0  -8    3.15    2.09
   3   0   8  218.93    9.36
  -3   0  -8  253.61   10.33
   4   0   8   34.62    3.13
   4   0   8   45.30    3.70
  -4   0  -8   55.14    3.67
   5   0   8  253.69    8.55
   5   0   8  292.17    9.74
  -5   0  -8  309.72    9.77
   6   0   8    0.52    1.82
   6   0   8    1.23    2.31
  -6   0  -8    0.00    2.46
   7   0   8  313.51    7.77
   7   0   8  325.62    9.19
  -7   0  -8  327.70    7.76
   8   0   8    1.03    2.85
   8   0   8    1.01    2.30
   9   0   8  100.67    4.92
   9   0   8   96.24    5.80
  10   0   8   62.85    4.84
  10   0   8   59.45    4.68
  11   0   8   79.82    7.05
  11   0   8   82.34    7.28
  12   0   8   11.99    2.96
  12   0   8    8.98    2.88
  13   0   8   61.55    4.22
  13   0   8   60.00    4.26
  14   0   8   28.37    3.49
  14   0   8   23.98    3.50
  15   0   8   45.93    3.97
  15   0   8   45.04    4.00
  16   0   8    6.72    3.18
  16   0   8    5.47    2.94
  17   0   8   20.41    3.59
  17   0   8   18.61    3.72
 -19  -1   8    1.89    3.40
 -19  -1   8    1.33    2.67
 -18   1   8   90.56    5.40
 -18  -1   8   96.73    5.43
 -18  -1   8   95.06    5.24
 -17  -1   8    0.71    2.24
 -17   1   8   -0.72    2.27
 -16   1   8  247.33    6.85
 -16  -1   8  265.68    7.19
 -16  -1   8  265.87    7.32
 -16   1   8  257.28    7.23
 -15  -1   8    0.19    2.40
 -15   1   8   -0.52    2.46
 -14   1   8  337.47    9.58
 -14  -1   8  338.77    9.58
 -14  -1   8  346.01    9.97
 -14   1   8  341.43   10.06
 -13  -1   8    8.23    2.52
 -13   1   8    7.72    2.28
 -12   1   8  292.46    7.43
 -12  -1   8  301.40    7.34
 -12  -1   8  308.83    7.82
 -12   1   8  318.99    7.93
 -11  -1   8    0.49    2.47
 -11   1   8    0.70    1.89
 -11  -1   8    2.47    2.40
 -11   1   8    1.59    2.18
 -10   1   8  300.30   11.70
 -10  -1   8  307.19   11.81
 -10  -1   8  297.05   11.65
 -10   1   8  291.85   11.51
 -10   1   8  305.24   11.73
 -10  -1   8  295.29   11.54
  -9   1   8   22.24    2.76
  -9  -1   8   22.12    2.74
  -9  -1   8   20.27    9.22
  -9  -1   8   20.49    2.68
  -8   1   8  334.36   11.56
  -8  -1   8  344.24   11.72
  -8  -1   8  332.91   11.70
  -8  -1   8  333.47   11.44
  -7   1   8    0.89    2.42
  -7  -1   8    2.32    2.36
  -6   1   8  555.59   17.12
  -6  -1   8  548.30   16.82
  -5   1   8    3.14    2.20
  -5  -1   8    6.26    2.57
  -5  -1   8    5.88    3.74
  -5  -1   8    8.55    4.34
  -4   1   8  362.70   12.34
  -4  -1   8  362.87   12.37
  -4  -1   8  327.90   15.44
   4   1  -8  308.41   12.23
  -3   1   8    0.54    2.09
  -3  -1   8    2.08    2.20
   3   1  -8    9.49    3.13
  -2   1   8  345.94   11.93
  -2  -1   8  348.99   12.00
  -2  -1   8  279.31   10.34
   2   1  -8  280.38   10.52
  -1   1   8    9.53    2.49
  -1  -1   8    8.71    2.00
  -1  -1   8    1.52    2.26
   1   1  -8    2.51    2.39
   0   1   8  186.46    7.74
   0  -1   8  153.97    6.90
   0  -1  -8  164.76    7.21
   0   1  -8  161.34    7.03
   1   1   8   12.95    2.51
   1   1   8   17.09    2.71
   1  -1   8   31.18    3.10
  -1  -1  -8   34.75    3.21
  -1   1  -8   24.09    2.98
   2   1   8  256.63    9.62
   2  -1   8  211.78    8.48
  -2  -1  -8  204.12    8.12
  -2   1  -8  215.27    8.35
   3  -1   8    2.52    2.14
   3   1   8    5.89    2.24
   3  -1   8   10.04    2.41
  -3  -1  -8   10.19    2.45
  -3   1  -8   15.77    2.58
   4   1   8  150.66    7.64
   4  -1   8  117.64    5.02
  -4  -1  -8  126.10    5.02
   5   1   8    0.57    2.05
   5  -1   8    1.92    2.43
   5   1   8    0.56    2.37
   5  -1   8    1.18    1.98
  -5  -1  -8    1.21    2.16
  -5   1  -8    2.86    2.29
   6   1   8   53.74    5.03
   6  -1   8   58.56    5.39
   6   1   8   46.25    4.96
   6  -1   8   34.53    3.25
  -6  -1  -8   36.95    3.40
  -6   1  -8   30.43    3.14
   7   1   8   19.39    2.54
   7  -1   8   18.24    3.05
   7   1   8   25.04    3.02
   7  -1   8   33.18    3.98
  -7  -1  -8   26.66    3.37
   8   1   8   37.77    3.33
   8  -1   8   39.89    3.40
   8   1   8   35.26    3.41
   8  -1   8   24.62    3.16
   9   1   8   43.67    3.58
   9   1   8   44.01    3.57
   9  -1   8   48.55    3.90
  10   1   8    9.16    2.69
  10  -1   8    8.15    2.82
  10   1   8    6.23    2.61
  10  -1   8    4.30    2.95
  11   1   8    6.06    2.81
  11  -1   8    4.44    2.43
  11   1   8    3.34    2.95
  11  -1   8    4.08    2.58
  12   1   8    2.81    2.66
  12  -1   8    4.12    2.45
  12   1   8    3.14    2.92
  12  -1   8    0.96    3.16
  13   1   8    5.83    2.77
  13  -1   8    4.13    2.74
  13   1   8    6.20    2.80
  13  -1   8    5.51    2.74
  14   1   8    8.65    2.65
  14  -1   8    7.71    2.98
  14   1   8    8.64    3.18
  14  -1   8    6.57    3.07
  15   1   8   20.09    3.36
  15  -1   8   19.30    3.15
  15   1   8   19.67    3.33
  15  -1   8   17.14    3.33
  16   1   8    3.61    2.79
  16  -1   8    1.15    2.86
  16   1   8    0.30    3.30
  16  -1   8    0.40    3.00
  17  -1   8   20.08    3.26
  17   1   8   18.42    3.39
  17   1   8   22.35    3.96
  17  -1   8   20.68    3.91
 -20  -2   8   10.58    2.69
 -19  -2   8    1.44    2.22
 -19  -2   8    0.01    2.75
 -18  -2   8   12.26    2.65
 -18  -2   8   10.70    3.06
 -17   2   8    2.97    2.36
 -17  -2   8    5.47    2.59
 -17  -2   8    5.10    3.12
 -16   2   8    6.31    5.87
 -16  -2   8    4.54    3.01
 -16  -2   8    5.40    2.84
 -16   2   8    4.56    2.86
 -15   2   8   82.49    5.50
 -15  -2   8   80.31    5.45
 -15  -2   8   80.61    5.37
 -15   2   8   82.77    5.57
 -14   2   8    5.19    5.56
 -14  -2   8    4.54    2.34
 -14   2   8    4.29    2.38
 -13   2   8    5.83    2.18
 -13   2   8    6.45    2.45
 -13  -2   8    9.44    2.54
 -13  -2   8    7.89    2.48
 -13   2   8    7.89    2.59
 -12   2   8    1.39    2.11
 -12   2   8    0.98    2.27
 -12  -2   8    1.16    2.33
 -12  -2   8    0.28    2.03
 -12   2   8    0.87    2.22
 -11   2   8    0.56    1.92
 -11   2   8    0.07    2.17
 -11  -2   8    1.31    2.12
 -11  -2   8   -0.12    2.19
 -11   2   8   -0.26    2.02
 -11  -2   8   -0.13    1.94
 -11   2   8    0.02    2.07
 -10   2   8    5.93    2.32
 -10   2   8    4.31    2.10
 -10  -2   8    4.71    2.35
 -10  -2   8    3.41    2.10
 -10   2   8    2.16    3.28
 -10  -2   8    2.18    2.09
  -9   2   8   -0.73    2.46
  -9  -2   8   -1.34    2.11
   9  -2  -8   -0.89    2.25
  -9  -2   8    0.25    2.11
  -9  -2   8    0.02    2.26
  -8   2   8    1.50    1.93
  -8  -2   8    1.17    2.40
   8  -2  -8   -0.51    2.20
  -8  -2   8    1.04    1.94
  -8  -2   8    0.23    1.91
  -7   2   8    9.96    2.23
  -7  -2   8   10.23    2.40
   7  -2  -8   15.78    2.85
  -7  -2   8   11.34    2.49
  -7  -2   8   14.22    2.52
  -6   2   8   18.38    2.79
  -6  -2   8   16.73    2.31
  -6  -2   8    8.77    2.45
  -5   2   8    0.75    1.96
  -5  -2   8    0.98    1.86
  -5  -2   8    2.93    1.83
   5   2  -8    2.66    2.06
  -4   2   8    1.49    2.12
  -4  -2   8    1.29    1.88
  -4  -2   8    2.67    1.79
   4   2  -8    5.92    2.06
  -3   2   8   21.16    2.71
  -3  -2   8   21.94    2.94
  -3  -2   8   25.59    2.76
   3   2  -8   34.58    3.21
  -2   2   8   25.93    2.77
  -2  -2   8   26.19    2.77
  -2  -2   8   31.72    3.01
   2   2  -8   34.45    3.17
  -1   2   8   59.64    4.44
  -1  -2   8   85.41    5.58
   1   2  -8   88.02    5.80
   0   2   8   24.19    2.84
   0  -2   8   14.09    2.22
   0  -2  -8   15.27    2.64
   0   2  -8   13.31    2.58
   0  -2  -8   15.54    2.71
   1   2   8   44.84    3.86
   1  -2   8   66.63    4.95
  -1  -2  -8   60.47    4.53
  -1   2  -8   56.12    4.59
  -1  -2  -8   55.76    4.38
   2   2   8   10.58    2.54
   2  -2   8   11.24    2.34
   2  -2   8   19.42    2.75
  -2  -2  -8   16.91    2.63
  -2   2  -8   16.28    2.65
   3  -2   8   26.21    2.79
   3  -2   8   31.55    3.32
  -3  -2  -8   31.75    3.01
  -3   2  -8   31.57    3.13
   4  -2   8    4.31    2.14
   4   2   8    5.67    2.37
   4  -2   8    6.51    2.17
  -4  -2  -8    6.21    2.21
  -4   2  -8    7.94    2.26
   5  -2   8   18.32    2.54
   5   2   8   20.04    2.77
   5  -2   8   20.70    2.62
  -5  -2  -8   19.53    2.66
  -5   2  -8   20.94    2.95
   6   2   8   31.91    3.80
   6  -2   8   34.70    3.95
   6   2   8   36.88    3.91
   6  -2   8   34.31    3.77
  -6  -2  -8   36.29    3.72
  -6   2  -8   35.94    3.85
   7   2   8   23.82    2.64
   7  -2   8   21.91    2.60
   7   2   8   22.34    2.88
   7  -2   8   22.54    3.07
  -7  -2  -8   23.96    2.91
   8   2   8   22.70    3.11
   8  -2   8   18.12    2.75
   8   2   8   19.98    2.97
   8  -2   8   20.62    2.90
   9   2   8   34.46    3.37
   9  -2   8   36.75    3.30
   9   2   8   35.14    3.55
   9  -2   8   35.76    3.42
  10   2   8    5.46    2.41
  10  -2   8    5.21    2.51
  10   2   8    6.61    2.54
  10  -2   8    3.33    2.42
  11   2   8   10.83    2.72
  11  -2   8   11.76    2.80
  11   2   8   14.65    2.80
  11  -2   8   11.79    2.69
  12   2   8   13.45    2.94
  12  -2   8   12.28    2.83
  12   2   8   10.87    3.39
  12  -2   8   12.51    2.81
  13   2   8   22.80    3.20
  13  -2   8   21.99    3.23
  13   2   8   25.35    3.42
  13  -2   8   23.36    3.40
  14   2   8    1.49    2.81
  14  -2   8    2.05    3.12
  14   2   8    1.39    2.48
  14  -2   8   -0.22    2.73
  15   2   8    4.55    3.21
  15  -2   8    8.63    3.00
  15   2   8    8.66    3.31
  15  -2   8    6.81    2.99
  16   2   8    7.55    2.83
  16  -2   8    6.87    2.85
  16   2   8    7.68    3.00
  16  -2   8    6.85    3.12
  17   2   8    0.00    3.93
  17  -2   8   -0.14    3.01
  17   2   8    0.82    2.68
  17  -2   8   -0.94    3.26
 -21  -3   8    3.41    2.69
 -20  -3   8    0.84    2.23
 -20  -3   8   -0.71    2.77
 -19  -3   8    2.17    2.71
 -19  -3   8    1.75    2.48
 -18  -3   8    0.14    2.19
 -18  -3   8   -1.13    2.50
 -17  -3   8   -0.61    2.12
 -17  -3   8   -0.01    2.67
 -16   3   8   64.14    5.91
 -16  -3   8   59.37    5.74
 -16  -3   8   65.09    6.11
 -15  -3   8    0.38    2.19
 -15   3   8   -0.08    2.37
 -14   3   8   66.12    4.59
 -14  -3   8   60.58    4.31
 -14  -3   8   58.17    4.37
 -14   3   8   58.34    4.36
 -13  -3   8    0.24    3.70
 -13  -3   8   -0.22    2.18
 -13   3   8    1.03    2.01
 -12   3   8    2.93    2.40
 -12   3   8    4.40    2.44
 -12  -3   8    3.52    2.40
 -12  -3   8    4.44    2.21
 -12   3   8    3.02    2.54
 -11   3   8    5.42    2.18
 -11   3   8    4.45    2.42
 -11  -3   8    5.48    2.47
 -11  -3   8    5.95    2.36
 -11  -3   8    5.12    2.31
 -11   3   8    4.59    2.38
 -10   3   8    0.93    2.08
 -10  -3   8    1.64    2.05
 -10  -3   8    1.45    2.04
 -10   3   8    1.16    3.16
 -10  -3   8    2.15    2.18
  -9   3   8    3.73    2.26
  -9  -3   8    3.77    2.11
   9  -3  -8    3.96    2.60
  -9  -3   8    5.91    1.93
  -9  -3   8    4.13    2.07
  -8   3   8    3.65    2.12
  -8  -3   8    6.90    2.25
   8  -3  -8    7.14    2.37
  -8  -3   8    5.64    2.23
  -8  -3   8    6.23    2.65
  -7   3   8    4.83    2.29
  -7  -3   8    1.91    2.02
   7  -3  -8    1.81    2.32
  -7  -3   8    2.06    1.79
   7   3  -8    1.87    1.93
  -6   3   8    9.97    2.18
  -6  -3   8    8.02    2.37
   6  -3  -8    4.58    2.53
  -6  -3   8    5.84    2.09
   6   3  -8    6.40    2.12
  -5   3   8    0.31    1.84
  -5  -3   8   -1.39    1.88
  -5  -3   8   -0.57    1.73
   5   3  -8    0.31    2.29
  -4   3   8   -1.02    1.88
  -4  -3   8   -0.17    1.91
  -4  -3   8    0.18    1.69
   4   3  -8    0.13    2.11
  -3   3   8    7.33    2.12
  -3  -3   8    8.43    2.20
  -3  -3   8    8.73    2.29
   3   3  -8   10.25    2.65
  -2   3   8    0.01    2.16
  -2  -3   8    1.06    1.73
   2   3  -8    0.23    2.25
  -1   3   8    1.04    1.88
  -1  -3   8    1.41    1.85
   1   3  -8    3.36    2.14
   0   3   8   32.45    3.05
   0  -3   8   41.02    3.34
   0  -3  -8   43.88    4.88
   0   3  -8   41.48    3.59
   0  -3  -8   41.27    3.71
   1   3   8   34.62    3.10
   1  -3   8   35.34    3.09
   1  -3   8   40.08    3.23
  -1  -3  -8   39.51    3.31
  -1   3  -8   41.37    3.44
  -1  -3  -8   42.22    3.45
   2   3   8   34.33    3.10
   2  -3   8   33.25    3.00
   2  -3   8   37.37    3.28
  -2  -3  -8   36.18    3.19
  -2   3  -8   35.96    3.49
   3   3   8    1.25    2.20
   3  -3   8    2.22    2.12
   3  -3   8    2.45    2.23
  -3  -3  -8    1.74    2.03
  -3   3  -8    2.29    2.24
  -3  -3  -8    2.08    2.33
   4  -3   8   14.28    2.61
   4  -3   8   16.38    2.63
  -4  -3  -8   15.51    2.59
  -4   3  -8   17.80    2.76
  -4  -3  -8   18.21    2.77
   5  -3   8    3.29    2.26
   5  -3   8    1.09    2.55
  -5  -3  -8    1.64    2.14
  -5   3  -8    1.69    2.11
  -5  -3  -8    1.15    2.18
   6  -3   8    2.81    2.28
   6  -3   8    1.91    2.31
  -6  -3  -8    0.83    1.93
  -6  -3  -8    0.52    2.21
   7   3   8   16.52    2.50
   7  -3   8   13.95    2.66
   7  -3   8   16.71    2.84
  -7  -3  -8   16.73    2.79
   8   3   8    2.69    2.63
   8  -3   8    2.50    2.20
   8  -3   8    0.76    2.82
  -8  -3  -8    1.23    3.29
   9   3   8   18.83    2.85
   9  -3   8   19.84    2.85
   9  -3   8   16.10    2.73
  -9  -3  -8   18.41    2.90
  10   3   8    1.73    2.56
  10  -3   8    0.84    2.31
  10  -3   8    1.73    2.60
  11   3   8    1.20    3.01
  11  -3   8    0.00    2.50
  11  -3   8    0.57    2.63
  12   3   8    7.63    2.70
  12  -3   8    7.72    2.73
  12  -3   8    7.05    2.78
 -12  -3  -8   10.92    2.75
  13   3   8    1.47    2.65
  13  -3   8    2.25    2.51
  13  -3   8   -1.49    3.13
 -13  -3  -8    0.85    3.05
  14   3   8   16.71    2.76
  14  -3   8   15.09    2.79
  14  -3   8   13.64    3.24
 -14  -3  -8   13.93    3.78
  15   3   8    2.79    3.22
  15  -3   8    3.29    2.77
  15  -3   8    1.91    3.19
 -15  -3  -8    1.61    3.13
  16   3   8    3.37    2.84
  16  -3   8    3.21    2.87
  16  -3   8    2.54    2.95
 -16  -3  -8    2.13    3.67
  17   3   8    9.54    3.28
  17  -3   8    8.70    3.22
  17  -3   8    6.98    3.28
 -17  -3  -8    9.28    3.46
 -21  -4   8    8.45    2.75
 -20  -4   8   12.03    2.96
 -20  -4   8   10.56    3.18
 -19  -4   8    1.57    3.00
 -19  -4   8   -0.70    2.79
 -18  -4   8   15.57    2.85
 -18  -4   8   21.11    3.29
 -17  -4   8   13.06    3.50
 -17  -4   8   12.16    2.83
 -16  -4   8    2.33    2.38
 -16  -4   8    2.13    2.59
 -15   4   8    1.88    2.41
 -15  -4   8    6.72    2.41
 -15  -4   8    4.58    2.65
 -14  -4   8    1.42    2.72
 -14  -4   8    2.63    2.32
 -13   4   8   32.06    3.31
 -13  -4   8   39.82    3.45
 -13  -4   8   37.03    3.59
 -13   4   8   35.25    3.57
 -12   4   8    2.66    2.13
 -12  -4   8    1.49    2.85
 -12  -4   8    1.28    2.28
 -12   4   8    0.69    2.78
 -11   4   8   24.66    2.82
 -11   4   8   27.71    3.38
 -11  -4   8   41.71    4.37
 -11  -4   8   29.46    3.62
 -11  -4   8   41.42    4.12
 -11   4   8   35.83    3.87
 -10   4   8    5.18    3.87
 -10  -4   8    3.08    2.34
  10  -4  -8    2.17    2.24
 -10  -4   8    3.21    2.35
 -10  -4   8   -0.03    2.48
 -10   4   8   -0.32    3.47
  -9   4   8   14.12    2.51
  -9  -4   8   22.05    2.65
   9  -4  -8   25.23    3.01
  -9  -4   8   18.20    2.92
  -9  -4   8   24.39    2.87
  -8  -4   8   10.02    2.52
   8  -4  -8   12.24    2.78
  -8  -4   8   11.19    2.49
   8   4  -8   10.91    2.51
  -7   4   8  160.87    7.36
  -7  -4   8  182.38    8.03
   7  -4  -8  181.35    8.02
  -7  -4   8  178.80    8.00
   7   4  -8  174.64    7.89
  -6   4   8    2.81    5.62
  -6  -4   8    3.06    1.75
   6  -4  -8    1.79    2.03
  -6  -4   8    1.82    2.01
   6   4  -8    2.16    2.13
  -5   4   8   93.83    5.86
  -5  -4   8  100.23    6.32
  -5  -4   8   96.09    5.97
   5   4  -8  116.17    7.19
  -4   4   8   17.54    2.83
  -4  -4   8   16.05    2.49
  -4  -4   8   13.50    2.37
   4   4  -8   11.40    2.49
  -3   4   8  146.87    6.44
  -3  -4   8  161.86    6.86
   3   4  -8  164.04    7.37
  -2   4   8    1.51    1.97
  -2  -4   8    0.64    1.86
   2   4  -8    0.98    2.29
  -1   4   8  246.44    9.27
  -1  -4   8  237.96    9.03
   1   4  -8  240.76    9.20
   0   4   8    3.16    2.12
   0  -4   8    2.70    2.05
   0  -4   8    3.42    2.10
   0   4  -8    3.45    2.09
   0  -4  -8    4.71    2.31
   1   4   8  372.96   13.88
   1  -4   8  357.58   13.43
   1  -4   8  363.22   13.60
  -1  -4  -8  379.61   14.09
  -1   4  -8  360.88   13.65
  -1  -4  -8  380.73   14.54
   2   4   8   -1.04    2.19
   2  -4   8    2.20    2.28
   2  -4   8    0.77    1.89
  -2  -4  -8   -0.47    1.97
  -2   4  -8    0.62    2.39
   3   4   8   38.89    3.20
   3  -4   8   42.25    3.28
   3  -4   8   43.96    3.44
  -3  -4  -8   40.96    3.30
  -3   4  -8   41.75    3.35
  -3  -4  -8   43.06    3.47
   4   4   8    6.17    2.23
   4  -4   8    7.11    2.51
   4  -4   8    5.30    2.13
  -4  -4  -8    6.27    2.16
  -4   4  -8    6.44    2.53
  -4  -4  -8    6.59    2.42
   5  -4   8   62.78    5.44
   5  -4   8   68.59    5.62
  -5   4  -8   66.42    5.54
  -5  -4  -8   66.49    5.64
   6  -4   8    0.98    2.11
   6  -4   8    0.55    2.08
  -6  -4  -8    0.86    2.20
   7  -4   8   89.58    5.49
   7  -4   8   74.26    4.98
  -7  -4  -8   82.86    5.36
   8   4   8    2.51    2.26
   8  -4   8    1.63    2.23
   8  -4   8    2.07    2.67
  -8  -4  -8    1.24    2.58
   9   4   8   72.91    5.22
   9  -4   8   78.36    5.41
   9  -4   8   68.41    5.02
  -9  -4  -8   66.43    4.99
  10   4   8    3.24    2.42
  10  -4   8    5.25    2.65
  10  -4   8    4.59    2.47
 -10  -4  -8    5.00    2.57
  11   4   8   58.00    4.29
  11  -4   8   56.94    3.90
  11  -4   8   54.24    4.03
 -11  -4  -8   55.32    4.18
  12   4   8   -0.01    2.46
  12  -4   8    0.98    2.62
  12  -4   8   -0.83    2.78
 -12  -4  -8    0.37    2.76
  13   4   8   41.50    3.65
  13  -4   8   43.21    3.86
  13  -4   8   42.17    4.13
 -13  -4  -8   43.19    4.09
  14   4   8   -0.65    2.71
  14  -4   8    1.58    2.50
  14  -4   8    1.60    2.76
 -14  -4  -8    2.42    3.18
  15   4   8   21.54    3.41
  15  -4   8   22.81    3.30
  15  -4   8   19.92    3.28
 -15  -4  -8   20.22    3.40
  16   4   8    3.24    2.99
  16  -4   8    0.19    4.16
  16  -4   8    4.31    2.91
 -16  -4  -8    1.61    3.65
 -22  -5   8  172.78    5.65
 -21  -5   8    1.66    2.70
 -21  -5   8    1.50    2.89
 -20  -5   8  151.98    5.49
 -20  -5   8  146.98    5.53
 -19  -5   8    1.60    2.96
 -19  -5   8    2.80    3.18
 -18  -5   8  192.31    8.73
 -18  -5   8  187.67    8.59
 -17  -5   8   12.92    3.21
 -17  -5   8   11.95    2.99
 -16  -5   8  189.29    7.46
 -16  -5   8  181.89    7.30
 -15  -5   8    2.68    4.45
 -15  -5   8    2.57    2.87
 -14   5   8  209.11    8.48
 -14  -5   8  209.18    8.37
 -14  -5   8  217.03    8.75
 -13  -5   8    2.76    2.26
 -12   5   8  289.86    9.26
 -12  -5   8  286.08    8.58
 -12  -5   8  269.38    8.26
 -12   5   8  280.69    8.56
 -11  -5   8   11.43    3.27
 -11  -5   8   13.02    2.67
 -11  -5   8   11.00    2.57
 -11   5   8   11.74    2.55
 -10   5   8  386.79   10.82
 -10  -5   8  386.13    8.29
  10  -5  -8  385.43    9.24
 -10  -5   8  388.86    8.41
 -10  -5   8  384.07    8.65
 -10   5   8  401.22   43.60
  -9  -5   8   13.00    2.85
   9  -5  -8   12.19    2.96
  -9  -5   8   11.80    2.77
   9   5  -8   12.76    2.84
  -8   5   8  289.10    9.70
  -8  -5   8  263.94    8.65
   8  -5  -8  244.91    8.56
  -8  -5   8  255.52    8.75
   8   5  -8  258.33    8.81
  -7  -5   8    7.67    2.35
   7  -5  -8    7.00    2.47
  -7  -5   8    6.02    2.21
   7   5  -8    6.72    2.45
  -6   5   8  289.86   11.49
  -6  -5   8  276.97   10.91
   6  -5  -8  268.91   10.67
  -6  -5   8  265.54   10.58
   6   5  -8  260.77   10.57
  -5  -5   8    0.50    2.07
  -5  -5   8    5.58    2.49
   5   5  -8    5.62    2.81
  -4   5   8  302.12   11.78
  -4  -5   8  237.24    9.69
   4   5  -8  237.22    9.89
  -3  -5   8    4.78    2.42
   3   5  -8    2.56    2.14
  -2  -5   8  115.46    4.92
   2   5  -8  106.60    4.85
  -1   5   8    6.14    3.11
  -1  -5   8    4.02    1.95
  -1  -5   8   12.11    2.38
   0   5   8  131.84    6.46
   0  -5   8  127.70    4.99
   0  -5  -8  119.19    4.98
   0  -5   8  114.30    4.96
   1   5   8    5.28    1.97
   1  -5   8    5.75    2.10
  -1  -5  -8    1.73    2.04
   1  -5   8    3.07    1.97
  -1   5  -8    0.92    2.08
   2   5   8   39.85    3.42
   2  -5   8   39.53    3.31
  -2  -5  -8   25.11    2.81
   2  -5   8   33.37    3.25
  -2   5  -8   21.82    3.44
   3   5   8   28.74    3.23
   3  -5   8   24.25    2.95
   3  -5   8   34.28    3.23
  -3   5  -8   38.68    3.34
  -3  -5  -8   46.81    5.01
   4   5   8   69.57    6.34
   4  -5   8   72.30    6.55
   4  -5   8   53.71    5.16
  -4   5  -8   53.95    5.38
  -4  -5  -8   47.65    4.92
   5   5   8   21.92    3.82
   5  -5   8   17.14    2.77
   5  -5   8   34.45    3.80
  -5  -5  -8   31.70    3.85
   6  -5   8   62.16    4.46
  -6  -5  -8   73.67    5.02
   7  -5   8   31.77    3.15
   7  -5   8   53.46    4.46
  -7  -5  -8   47.27    3.79
   8  -5   8   24.77    3.20
  -8  -5  -8   33.66    3.55
   9   5   8   47.61    4.44
   9  -5   8   39.88    3.96
   9  -5   8   60.97    5.79
  -9  -5  -8   55.93    5.45
  10   5   8   42.06    4.33
  10  -5   8   51.45    5.28
  10  -5   8   27.18    3.63
 -10  -5  -8   38.71    4.09
  11   5   8   28.74    3.19
  11  -5   8   25.79    3.09
  11  -5   8   29.54    3.23
 -11  -5  -8   29.03    3.90
  12   5   8    1.83    2.43
  12  -5   8    2.51    2.74
  12  -5   8    0.27    2.88
 -12  -5  -8    0.25    2.77
  13   5   8   12.06    3.08
  13  -5   8   16.14    3.26
  13  -5   8   19.47    3.24
 -13  -5  -8   21.41    3.97
  14   5   8    5.47    2.92
  14  -5   8    6.65    3.15
  14  -5   8    2.41    3.19
 -14  -5  -8    4.93    3.26
  15   5   8   24.48    3.44
  15  -5   8   22.46    8.30
  15  -5   8   22.87    3.51
 -15  -5  -8   25.92    4.05
  16   5   8   21.98    3.26
  16  -5   8   22.63    3.63
  16  -5   8   22.86    4.11
 -16  -5  -8   16.07    3.89
 -21  -6   8    4.86    2.76
 -21  -6   8    4.62    3.00
 -20  -6   8   17.95    3.22
 -20  -6   8   17.84    3.28
 -19  -6   8    0.50    2.88
 -19  -6   8    0.84    3.12
 -18  -6   8    7.73    3.01
 -18  -6   8   12.10    2.89
 -17  -6   8   -0.08    2.49
 -17  -6   8   -1.00    2.70
 -16  -6   8   10.10    2.51
 -16  -6   8   10.78    2.83
 -15  -6   8    1.13    2.56
 -15  -6   8    0.82    2.82
 -14  -6   8    1.44    2.90
 -14  -6   8    1.11    2.38
 -13   6   8    8.91    2.75
 -13  -6   8   20.08    2.87
 -13  -6   8   15.22    2.98
 -12  -6   8   -0.53    2.31
 -12  -6   8    2.05    2.47
 -11   6   8   25.02    3.26
 -11  -6   8   43.02    3.62
 -11  -6   8   34.79    3.27
 -11  -6   8   45.15    3.97
 -10  -6   8    0.97    2.38
 -10  -6   8   -0.12    2.28
  -9   6   8   68.95    8.87
  -9  -6   8  104.52    7.59
   9  -6  -8  105.14    7.60
  -9  -6   8  102.90    7.62
   9   6  -8   94.20    7.06
  -8   6   8   30.89   13.13
  -8  -6   8   17.09    2.41
   8  -6  -8   15.56    2.77
  -8  -6   8   18.59    2.79
   8   6  -8   19.57    3.04
  -7   6   8   84.69    9.13
   7  -6  -8  101.09    5.05
  -7  -6   8  103.53    5.12
  -7  -6   8   98.91    4.64
   7   6  -8  101.40    5.22
  -6  -6   8    0.50    2.08
   6  -6  -8    2.15    2.14
  -6  -6   8    3.42    2.38
   6   6  -8    2.56    2.26
  -5   6   8  185.23    9.22
  -5  -6   8  218.74    9.16
   5   6  -8  242.44    9.97
  -4  -6   8   28.45    2.94
   4   6  -8   22.61    3.07
  -3   6   8  196.14    8.44
  -3  -6   8  236.38    9.77
   3   6  -8  224.44    9.47
  -2  -6   8    1.41    2.19
  -2  -6   8    3.71    2.05
   2   6  -8    4.00    2.34
  -1   6   8  246.38   10.00
  -1  -6   8  246.43    9.98
   1  -6  -8  273.64   11.20
  -1  -6   8  269.28   10.83
   1  -6  -8  281.70   11.35
   1   6  -8  291.29   11.52
   0   6   8    3.52    3.01
   0  -6   8    3.87    2.22
   0  -6   8    1.47    2.40
   0   6  -8    1.14    2.57
   0  -6  -8    1.15    2.06
   1   6   8  102.25    5.14
   1  -6   8   95.98    7.97
   1  -6   8  100.36    5.08
  -1   6  -8  115.93    5.61
   2   6   8   15.54    3.03
   2  -6   8   13.17    2.37
   2  -6   8   13.44    2.94
  -2   6  -8   13.62    2.68
  -2  -6  -8   13.38    2.57
   3   6   8  321.11    7.80
   3  -6   8  321.20    7.74
   3  -6   8  316.75    7.88
  -3  -6  -8  324.02    8.05
   4   6   8    0.18    2.19
   4  -6   8    2.74    2.43
   4  -6   8    0.70    2.03
  -4  -6  -8    1.01    2.65
   5   6   8  182.83    5.98
   5  -6   8  182.96    5.88
   5  -6   8  174.33    5.91
  -5  -6  -8  165.72    6.04
   6   6   8    2.12    2.07
   6  -6   8    2.41    2.19
   6  -6   8    4.27    2.43
  -6  -6  -8    3.87    2.67
   7  -6   8  156.95    7.08
   7  -6   8  147.31    7.04
  -7  -6  -8  154.84    7.24
   8  -6   8    0.92    2.59
   8  -6   8    0.05    3.20
  -8  -6  -8    0.86    2.23
   9  -6   8  111.27    5.10
   9  -6   8  104.11    5.59
  -9  -6  -8  112.60    5.33
  10   6   8    1.72    2.47
  10  -6   8    4.07    2.63
  10  -6   8    2.85    2.83
 -10  -6  -8    1.44    2.33
  11   6   8   36.33    3.53
  11  -6   8   35.75    3.69
  11  -6   8   27.03    3.31
 -11  -6  -8   34.27    3.65
  12   6   8    2.10    2.71
  12  -6   8    1.84    2.55
  12  -6   8    0.42    2.61
 -12  -6  -8   -0.31    3.09
  13   6   8   62.60    4.37
  13  -6   8   68.50    4.30
  13  -6   8   59.19    4.18
 -13  -6  -8   64.57    4.87
  14   6   8   -1.01    2.82
  14  -6   8    1.87    3.01
  14  -6   8    1.26    2.47
 -14  -6  -8   -0.96    2.96
  15   6   8   43.21    4.17
  15  -6   8   42.45    3.86
  15  -6   8   34.22    3.97
 -15  -6  -8   43.22    4.43
  16   6   8    1.23    2.88
  16  -6   8    0.16    2.98
 -16  -6  -8    0.47    3.76
 -21  -7   8   11.92    3.37
 -21  -7   8    8.44    3.26
 -20  -7   8   59.05    4.18
 -20  -7   8   56.93    4.11
 -19  -7   8    7.86    2.84
 -19  -7   8    6.06    3.14
 -18  -7   8   73.32    4.37
 -18  -7   8   71.92    4.88
 -17  -7   8    5.70    2.66
 -17  -7   8    4.82    2.76
 -16  -7   8   59.02    4.26
 -16  -7   8   52.89    3.86
 -15  -7   8    9.68    2.84
 -15  -7   8    9.96    3.08
 -14  -7   8   32.51    3.77
 -14  -7   8   32.11    3.77
 -13  -7   8   17.00    2.98
 -13  -7   8   18.80    3.29
 -12   7   8   78.93    5.31
 -12  -7   8   77.09    5.25
 -12  -7   8   76.75    5.35
 -11  -7   8    1.42    2.25
 -11  -7   8    0.66    2.29
 -10   7   8  119.46    5.24
 -10  -7   8  107.41    4.85
 -10  -7   8  104.26    5.06
  -9  -7   8   -0.44    2.27
  -9  -7   8    0.41    2.17
   9   7  -8    0.29    2.53
  -8   7   8  127.04    7.50
   8  -7  -8  108.09    7.87
  -8  -7   8  110.48    4.83
  -8  -7   8  107.27    7.73
   8   7  -8  111.98    4.94
  -7   7   8   19.42    9.70
   7  -7  -8   17.87    2.74
  -7  -7   8   17.90    2.79
  -7  -7   8   18.86    2.62
   7   7  -8   17.32    2.79
  -6   7   8   43.46    5.93
   6  -7  -8   39.53    3.62
  -6  -7   8   37.20    3.12
   6   7  -8   33.62    3.31
  -5  -7   8    0.12    2.14
   5   7  -8   -0.34    2.47
  -4   7   8   49.50    6.71
  -4  -7   8   31.97    3.22
   4   7  -8   33.86    3.34
  -3   7   8   15.45    9.27
  -3  -7   8   12.44    2.55
  -3  -7   8    8.75    2.15
   3   7  -8    9.34    2.81
  -2   7   8   53.37    5.42
  -2  -7   8   52.87    5.16
  -2  -7   8   42.90    4.45
   2  -7  -8   36.43    3.57
   2   7  -8   40.99    4.50
  -1  -7   8   -0.36    2.11
  -1  -7   8   -0.38    1.91
   1  -7  -8    0.09    2.29
   1   7  -8    0.64    2.26
   0   7   8  104.53    5.77
   0  -7   8  107.28    5.15
   0  -7   8   96.98    4.76
   0   7  -8   76.13    6.87
   1   7   8    5.40    2.55
   1  -7   8    4.89    2.25
   1  -7   8    6.45    2.29
   2   7   8   53.07    4.93
   2  -7   8   62.90    5.28
   2  -7   8   52.88    4.84
  -2  -7  -8   39.35    4.25
   3   7   8    4.32    2.46
   3  -7   8    4.72    2.35
   3  -7   8    6.12    2.19
  -3  -7  -8    9.18    2.42
   4   7   8    5.11    2.52
   4  -7   8    5.10    2.31
   4  -7   8    3.05    2.41
  -4  -7  -8    0.87    2.47
   5   7   8    7.24    2.63
   5  -7   8    4.33    2.50
   5  -7   8    7.21    2.50
  -5  -7  -8    9.95    2.80
   6   7   8   -0.08    2.38
   6  -7   8    3.17    2.43
   6  -7   8    3.17    2.41
  -6  -7  -8    4.04    2.58
   7   7   8    9.12    2.67
   7  -7   8    8.85    2.61
   7  -7   8    6.89    2.52
  -7  -7  -8    4.03    2.56
   8  -7   8   26.57    3.02
   8  -7   8   15.61    2.77
  -8  -7  -8   16.75    2.79
   9  -7   8    1.82    2.72
   9  -7   8   -0.15    2.95
  -9  -7  -8    0.14    2.67
  10  -7   8    2.62    2.82
  10  -7   8    0.90    2.73
 -10  -7  -8    1.55    2.96
  11   7   8    2.55    2.86
  11  -7   8    2.45    3.02
  11  -7   8    6.13    2.96
 -11  -7  -8    4.39    2.82
  12   7   8    6.33    2.64
  12  -7   8    8.16    3.13
  12  -7   8    0.59    3.09
 -12  -7  -8    2.33    2.82
  13   7   8    1.87    2.35
  13  -7   8    2.95    2.81
  13  -7   8    3.07    3.22
 -13  -7  -8    2.24    3.03
  14   7   8    1.62    2.71
  14  -7   8   -0.02    2.59
  14  -7   8   -1.56    2.97
 -14  -7  -8    0.12    3.23
  15   7   8    3.22    2.96
  15  -7   8    3.16    2.67
  15  -7   8    3.68    3.32
 -15  -7  -8    5.22    3.34
 -20  -8   8    2.36    2.87
 -20  -8   8    1.46    3.15
 -19  -8   8   -0.83    2.72
 -19  -8   8    1.14    2.83
 -18  -8   8    4.87    3.10
 -18  -8   8    3.52    2.79
 -17  -8   8    0.73    3.02
 -17  -8   8    2.10    2.70
 -16  -8   8    2.67    2.90
 -16  -8   8    1.70    2.62
 -15  -8   8   -0.07    2.55
 -15  -8   8    1.95    2.75
 -14  -8   8   13.56    3.03
 -14  -8   8   12.00    3.13
 -13  -8   8    1.44    2.13
 -13  -8   8    0.63    2.45
 -12  -8   8    1.78    2.42
 -12  -8   8    0.94    2.56
 -11   8   8    0.95    2.18
 -11  -8   8    3.03    2.27
 -11  -8   8    1.53    2.84
 -10   8   8   11.23    2.54
 -10  -8   8   15.45    2.97
 -10  -8   8   13.87    2.85
  -9   8   8    3.78    4.67
  -9  -8   8    5.97    2.57
  -9  -8   8    4.55    2.25
  -8   8   8   21.56    2.65
  -8  -8   8   26.91    3.04
  -8  -8   8   24.17    2.99
  -7   8   8   -0.16    1.83
   7  -8  -8   -0.58    2.00
  -7  -8   8    1.09    2.30
  -6   8   8    1.09    2.11
  -6  -8   8    0.90    2.27
   6   8  -8    0.22    2.61
  -5   8   8    0.75    1.92
  -5  -8   8    0.56    2.43
   5   8  -8   -0.10    2.55
  -4   8   8   -0.51    1.80
  -4  -8   8   -0.11    2.12
  -4  -8   8    0.79    1.98
   4   8  -8   -0.74    2.39
  -3   8   8    3.70    2.12
  -3  -8   8    2.77    2.22
  -3  -8   8    3.59    2.07
   3   8  -8    3.61    2.63
  -2   8   8    2.20    2.19
  -2  -8   8    1.42    2.16
  -2  -8   8    0.38    2.25
   2  -8  -8    0.11    2.32
  -1   8   8    2.39    2.52
  -1  -8   8    1.71    2.17
  -1  -8   8    1.26    2.24
   0   8   8    4.21    2.89
   0  -8   8    3.87    2.99
   0  -8   8    2.08    2.26
   1   8   8    7.24    3.97
   1  -8   8    7.22    2.32
   1  -8   8    6.19    2.40
  -1  -8  -8    5.14    2.59
   2   8   8   10.41    2.38
   2  -8   8    8.36    2.52
   2  -8   8    9.26    2.32
  -2  -8  -8   10.42    2.65
   3   8   8   -0.96    2.17
   3  -8   8    2.08    2.23
   3  -8   8    0.45    2.07
  -3  -8  -8    0.34    2.25
   4   8   8    0.32    2.15
   4  -8   8    1.07    2.45
   4  -8   8    1.45    2.27
  -4  -8  -8    1.05    2.46
   5   8   8    3.77    2.32
   5  -8   8    4.42    2.53
   5  -8   8    5.68    2.38
  -5  -8  -8    3.02    2.68
   6   8   8    2.66    2.59
   6  -8   8    1.14    2.33
   6  -8   8    0.55    2.79
  -6  -8  -8    1.25    2.34
   7   8   8    4.58    2.89
   7  -8   8    4.70    2.54
   7  -8   8    4.68    2.42
  -7  -8  -8    4.49    2.42
   8   8   8   -1.35    2.67
   8  -8   8    0.10    2.31
   8  -8   8   -0.24    2.20
  -8  -8  -8    0.15    2.72
   9  -8   8    3.75    2.37
   9  -8   8    4.28    2.80
  -9  -8  -8    4.07    2.88
  10  -8   8   -0.76    2.63
  10  -8   8    0.02    2.70
 -10  -8  -8    0.77    3.03
  11  -8   8    3.52    2.75
  11  -8   8    1.88    2.78
 -11  -8  -8    2.26    2.71
  12   8   8   -0.48    2.63
  12  -8   8    0.62    2.93
  12  -8   8   -2.88    2.82
 -12  -8  -8   -0.29    2.85
  13   8   8    0.04    2.76
  13  -8   8   -0.21    2.58
  13  -8   8    1.21    3.23
 -13  -8  -8    1.17    2.62
  14   8   8    0.89    2.96
  14  -8   8   -0.09    2.94
  14  -8   8   -0.46    3.67
 -14  -8  -8    0.18    3.54
  15   8   8    2.40    3.08
  15  -8   8    0.85    3.84
 -15  -8  -8   -0.17    3.48
 -20  -9   8   69.66    4.51
 -19  -9   8   -1.47    2.99
 -19  -9   8    1.27    3.03
 -18  -9   8   56.76    4.43
 -18  -9   8   52.66    4.04
 -17  -9   8   10.82    2.98
 -17  -9   8   10.73    4.30
 -16  -9   8   81.20    4.56
 -16  -9   8   81.40    4.36
 -15  -9   8   22.54    3.07
 -15  -9   8   21.43    3.62
 -14  -9   8   33.45    3.41
 -14  -9   8   32.80    3.48
 -13  -9   8   -0.54    2.50
 -13  -9   8   -0.84    2.68
 -12  -9   8   50.29    5.10
 -12  -9   8   50.83    5.06
 -11  -9   8    2.28    2.55
 -11  -9   8    1.69    2.49
 -10   9   8  124.37    6.00
 -10  -9   8  129.24    6.16
 -10  -9   8  128.40    6.24
  -9   9   8    2.07    2.20
  -9  -9   8    2.06    2.47
  -9  -9   8    2.14    2.40
  -8   9   8   65.29    4.50
  -8  -9   8   65.04    4.58
  -7   9   8   20.88    7.14
  -7  -9   8   20.92    2.77
  -6   9   8   56.44    6.48
  -6  -9   8   67.02    4.69
  -5   9   8   20.56    8.63
  -5  -9   8   24.35    3.05
  -5  -9   8   24.60    3.20
  -4   9   8   45.57    3.48
  -4  -9   8   45.41    3.54
  -4  -9   8   41.75    3.38
  -3  -9   8   -0.49    1.98
  -3  -9   8   -0.08    2.23
  -2   9   8   57.48    4.17
  -2  -9   8   54.69    4.22
  -2  -9   8   50.50    3.65
  -1  -9   8    0.01    2.37
  -1  -9   8    1.76    2.28
   0   9   8   70.31    5.75
   0  -9   8   71.08    4.81
   0  -9   8   61.47    4.46
   0  -9  -8   66.90    4.80
   1   9   8    9.65    5.96
   1  -9   8   10.38    2.69
   1  -9   8   13.85    2.79
  -1  -9  -8   15.87    2.92
   2   9   8   35.29    5.67
   2  -9   8   34.75    3.33
   2  -9   8   30.10    3.18
  -2  -9  -8   29.07    3.09
   3   9   8   19.17    7.20
   3  -9   8   19.13    2.70
   3  -9   8   21.84    3.02
  -3  -9  -8   21.97    2.96
   4   9   8   44.62    3.46
   4  -9   8   48.78    3.62
   4  -9   8   47.52    3.58
  -4  -9  -8   41.76    3.50
   5   9   8   12.91    4.06
   5  -9   8    8.32    2.58
   5  -9   8   15.10    2.92
  -5  -9  -8   17.92    2.97
   6   9   8   16.82    3.08
   6  -9   8   18.97    2.97
   6  -9   8   13.47    2.77
  -6  -9  -8   12.95    2.85
   7   9   8   13.34    3.11
   7  -9   8   10.54    2.57
   7  -9   8   12.73    3.36
  -7  -9  -8   14.56    3.02
   8   9   8   36.81    3.83
   8  -9   8   43.98    3.66
   8  -9   8   34.73    3.60
  -8  -9  -8   30.80    3.45
   9   9   8   28.64    3.35
   9  -9   8   27.10    3.32
   9  -9   8   35.10    3.62
  -9  -9  -8   36.80    3.54
  10  -9   8   10.35    3.01
  10  -9   8    2.93    2.68
 -10  -9  -8    4.63    2.88
  11  -9   8   16.56    6.15
  11  -9   8   24.59    3.52
 -11  -9  -8   30.52    3.71
  12  -9   8   14.86    3.10
  12  -9   8    6.47    2.84
 -12  -9  -8    9.20    3.08
  13   9   8    4.33    3.05
  13  -9   8    4.72    3.10
  13  -9   8    4.69    3.16
 -13  -9  -8    5.10    3.28
  14   9   8   -1.57    2.88
  14  -9   8    0.31    2.81
 -14  -9  -8   -0.62    3.13
 -19 -10   8    0.72    2.79
 -19 -10   8    1.93    3.33
 -18 -10   8   24.73    3.53
 -18 -10   8   22.39    3.59
 -17 -10   8    2.04    3.17
 -16 -10   8   13.52    3.49
 -16 -10   8   13.43    3.17
 -15 -10   8   -0.01    2.61
 -15 -10   8    1.62    3.26
 -14 -10   8   18.71    2.95
 -14 -10   8   16.63    3.30
 -13 -10   8    4.65    2.60
 -13 -10   8    4.22    2.87
 -12 -10   8   17.31    3.06
 -12 -10   8   15.91    2.74
 -11 -10   8   59.10    5.63
 -11 -10   8   57.26    5.46
 -10 -10   8    8.67    4.07
 -10 -10   8   11.50    2.89
  -9  10   8   48.52    4.27
  -9 -10   8   55.54    5.55
  -8  10   8    0.03    2.16
  -8 -10   8    0.99    2.74
  -7  10   8   15.96    2.73
  -7 -10   8   19.54    3.09
  -6 -10   8    2.47    2.45
  -6 -10   8    4.36    2.51
  -5  10   8  138.96    5.59
  -5 -10   8  162.14    6.20
  -5 -10   8  165.16    6.28
  -4 -10   8    0.09    2.35
  -4 -10   8    0.59    2.60
  -3  10   8   46.00    3.39
  -3 -10   8   52.52    3.62
  -3 -10   8   63.51    4.64
  -2 -10   8    2.22    2.38
  -2 -10   8    0.68    2.71
  -1  10   8   75.75    5.00
  -1 -10   8   78.15    4.89
  -1 -10   8   96.11    5.74
   0 -10   8    4.09    2.87
   1  10   8  141.43    6.53
   1 -10   8  161.94    7.46
  -1 -10  -8  163.31    7.61
   2 -10   8    0.73    3.05
   2 -10   8    3.84    2.55
  -2 -10  -8    3.48    2.28
   3  10   8  169.58    7.44
   3 -10   8  164.96    7.18
   3 -10   8  168.76    7.90
  -3 -10  -8  180.02    7.78
   4 -10   8    0.32    2.72
  -4 -10  -8    1.56    2.34
   5  10   8  135.85    5.52
   5 -10   8  129.91    5.38
   5 -10   8  126.89    5.27
  -5 -10  -8  130.19    5.63
   6 -10   8    2.42    2.54
   6 -10   8    2.44    2.35
  -6 -10  -8    3.47    2.60
   7  10   8  107.70    5.58
   7 -10   8  102.11    5.44
   7 -10   8  106.54    5.60
  -7 -10  -8  109.78    5.72
   8  10   8    1.27    2.88
   8 -10   8    1.13    3.00
   8 -10   8    1.65    2.89
  -8 -10  -8    4.49    2.81
   9  10   8   42.00    3.81
   9 -10   8   40.40    3.57
   9 -10   8   43.35    3.92
  -9 -10  -8   44.91    3.96
  10  10   8    4.26    3.33
  10 -10   8    2.83    2.90
  10 -10   8    2.43    2.82
 -10 -10  -8    5.78    2.78
  11 -10   8   42.13    3.78
  11 -10   8   40.14    4.03
 -11 -10  -8   44.14    3.86
  12 -10   8   10.16    3.11
  12 -10   8   10.28    3.26
 -12 -10  -8    6.74    3.34
  13 -10   8   21.74    3.88
 -13 -10  -8   22.21    3.62
 -18 -11   8  124.96    5.35
 -18 -11   8  118.65    5.43
 -17 -11   8    0.81    3.02
 -17 -11   8    0.95    3.28
 -16 -11   8  103.38    4.90
 -16 -11   8   94.70    4.70
 -15 -11   8    5.15    2.65
 -14 -11   8  150.73    5.52
 -14 -11   8  144.78    5.49
 -13 -11   8   12.70    3.15
 -13 -11   8   13.41    2.96
 -12 -11   8  200.28    6.30
 -12 -11   8  196.98    8.83
 -11 -11   8    2.64    2.76
 -10 -11   8  176.29    7.44
  -9 -11   8    4.20    2.50
  -8  11   8  318.69    7.58
  -8 -11   8  317.54    8.10
  -7  11   8    6.16    3.97
  -7 -11   8    9.04    3.18
  -7 -11   8    6.04    2.47
  -6  11   8   65.66    7.38
  -6 -11   8   52.50    5.09
  -6 -11   8   57.16    5.41
  -5  11   8   72.75    5.13
  -5 -11   8   69.13    5.07
  -5 -11   8   73.25    5.22
  -4  11   8  201.50    8.45
  -4 -11   8  194.26    8.03
  -4 -11   8  191.80    8.05
  -3  11   8    1.65    2.59
  -3 -11   8    2.43    2.47
  -3 -11   8    0.12    2.43
  -2  11   8  176.19    7.62
  -2 -11   8  153.88    6.93
  -2 -11   8  153.93    6.95
  -1 -11   8   -0.61    2.22
  -1 -11   8   -0.13    2.80
   0  11   8  156.88    7.00
   0 -11   8  153.41    6.98
   0 -11   8  135.87    6.55
   1 -11   8    0.58    2.68
   1 -11   8    1.59    2.69
   2  11   8  111.88    4.99
   2 -11   8  117.88    5.18
   2 -11   8   97.41    4.70
   3  11   8    9.98    5.71
   3 -11   8    3.85    2.84
   3 -11   8    8.53    2.48
   4  11   8   46.66    4.95
   4 -11   8   55.29    4.06
   4 -11   8   40.72    3.55
   5  11   8   16.29    3.65
   5 -11   8   12.40    3.17
   5 -11   8   17.76    3.19
   6  11   8   40.06    3.60
   6 -11   8   46.45    3.85
   6 -11   8   38.68    3.70
  -6 -11  -8   26.58    3.44
   7  11   8    0.49    2.74
   7 -11   8   -0.66    2.63
   7 -11   8    3.20    2.68
  -7 -11  -8    3.24    2.91
   8  11   8   13.14    2.93
   8 -11   8   11.40    3.25
   8 -11   8    8.28    2.97
  -8 -11  -8    5.05    3.08
   9  11   8    3.03    2.58
   9 -11   8    2.65    2.75
   9 -11   8    3.24    2.92
  10  11   8   55.30    4.29
  10 -11   8   66.97    4.29
  10 -11   8   46.52    4.04
  11  11   8   30.79    3.83
  11 -11   8   22.05    4.25
  11 -11   8   44.26    4.13
  12 -11   8    9.18    3.69
 -17 -12   8    2.16    3.01
 -17 -12   8   -0.89    3.22
 -16 -12   8   10.18    3.10
 -16 -12   8    9.98    3.31
 -15 -12   8   -0.67    2.93
 -15 -12   8    0.48    2.96
 -14 -12   8   12.90    3.14
 -14 -12   8    9.47    3.00
 -13 -12   8    1.95    2.58
 -13 -12   8    1.12    2.89
 -12 -12   8    0.85    2.68
 -12 -12   8    3.71    2.88
 -11 -12   8    0.93    2.43
 -10 -12   8    4.46    2.91
  -9 -12   8    8.67    3.20
  -8 -12   8   15.95    2.88
  -8 -12   8   12.34    3.29
  -7  12   8   27.26    3.06
  -7 -12   8   36.68    3.27
  -7 -12   8   35.25    3.44
  -6  12   8    3.03    2.34
  -6 -12   8    1.19    2.43
  -6 -12   8   -0.15    2.73
  -5  12   8   11.92    3.25
  -5 -12   8   19.51    3.03
  -5 -12   8   18.29    2.94
  -4  12   8   19.91    2.99
  -4 -12   8   15.51    3.01
  -4 -12   8   13.87    2.97
  -3  12   8   61.83    5.74
  -3 -12   8   71.24    6.47
  -3 -12   8   82.96    7.19
  -2 -12   8    1.42    2.55
  -2 -12   8    1.02    2.48
  -1  12   8   29.55    3.43
  -1 -12   8   32.81    3.82
  -1 -12   8   42.02    4.28
   0 -12   8    2.85    2.62
   0 -12   8    4.57    2.62
   1  12   8   49.10    4.90
   1 -12   8   49.01    4.07
   1 -12   8   58.39    3.98
   2 -12   8   19.62    2.91
   2 -12   8   20.58    3.17
   3  12   8   94.07    5.52
   3 -12   8   88.98    4.63
   3 -12   8   97.00    5.29
   4  12   8   13.50    5.60
   4 -12   8    9.70    2.94
   4 -12   8   13.31    3.08
   5  12   8   33.70    3.72
   5 -12   8   30.92    3.28
   5 -12   8   34.34    3.77
   6  12   8   12.48    5.00
   6 -12   8   10.58    2.77
   6 -12   8   13.60    3.15
   7  12   8   30.45    4.09
   7 -12   8   30.20    3.35
   7 -12   8   29.33    3.65
   8  12   8   17.51    6.14
   8 -12   8   14.38    2.90
   8 -12   8   17.68    3.85
   9  12   8   66.35    4.20
   9 -12   8   63.72    4.51
   9 -12   8   64.66    4.25
  10  12   8    2.12    3.02
  10 -12   8    0.34    2.94
  10 -12   8    2.12    2.80
  11  12   8   44.42    3.96
  11 -12   8   45.82    4.13
 -16 -13   8    8.70    3.01
 -16 -13   8   10.84    3.87
 -15 -13   8    0.44    3.06
 -15 -13   8   -1.29    2.80
 -14 -13   8    3.16    3.37
 -14 -13   8    2.60    3.32
 -13 -13   8    3.29    3.03
 -13 -13   8    4.92    3.27
 -12 -13   8    2.18    2.97
 -11 -13   8    0.50    3.11
 -10 -13   8   19.51    3.37
  -9 -13   8    9.92    3.00
  -9 -13   8    4.84    2.66
  -8 -13   8    2.16    2.43
  -8 -13   8    1.12    2.61
  -7 -13   8   65.83    4.43
  -7 -13   8   67.52    4.41
  -6  13   8   61.27    4.08
  -6 -13   8   58.94    4.18
  -6 -13   8   60.38    4.41
  -5  13   8    2.78    2.48
  -5 -13   8    2.98    2.85
  -5 -13   8    4.53    2.64
  -4  13   8   17.18    2.94
  -4 -13   8   13.97    2.69
  -4 -13   8   15.43    2.96
  -3  13   8    2.83    2.57
  -3 -13   8    2.26    2.60
  -3 -13   8    1.73    2.38
  -2  13   8   18.18    2.87
  -2 -13   8   18.78    3.07
  -2 -13   8   12.95    3.03
  -1  13   8   -0.63    2.38
  -1 -13   8    1.68    2.38
  -1 -13   8   -0.65    2.89
   0  13   8   -0.29    3.92
   0 -13   8   -0.73    2.45
   0 -13   8    0.12    2.59
   1  13   8   17.99    3.23
   1 -13   8   19.36    3.37
   1 -13   8   21.41    3.34
   2 -13   8    0.66    2.77
   2 -13   8    0.26    2.54
   3  13   8   45.18    4.88
   3 -13   8   45.54    3.83
   3 -13   8   38.07    3.92
   4  13   8   15.67    3.16
   4 -13   8   17.41    3.28
   4 -13   8   15.51    3.32
   5  13   8    5.66    2.69
   5 -13   8    6.05    2.61
   5 -13   8    5.81    2.95
   6  13   8    6.86    3.49
   6 -13   8   10.00    3.19
   6 -13   8    9.81    2.91
   7  13   8    0.49    2.54
   7 -13   8    0.36    2.84
   7 -13   8   -0.64    2.74
   8  13   8    0.83    2.87
   8 -13   8    0.04    2.48
   8 -13   8    1.28    2.84
   9  13   8    1.39    2.67
   9 -13   8    1.09    3.04
   9 -13   8    1.67    2.85
  10  13   8    1.49    2.72
  10 -13   8    6.62    3.14
 -14 -14   8   12.97    3.62
 -14 -14   8   12.04    3.36
 -13 -14   8    3.08    3.44
 -12 -14   8    4.66    3.40
 -11 -14   8   10.24    2.94
 -10 -14   8    1.36    2.70
 -10 -14   8   -0.03    2.91
  -9 -14   8   17.41    3.28
  -9 -14   8   15.93    3.12
  -8 -14   8   16.69    2.95
  -8 -14   8   15.06    3.25
  -7 -14   8   15.88    3.19
  -7 -14   8   18.07    3.49
  -6 -14   8    2.78    2.58
  -6 -14   8    2.35    2.60
  -5 -14   8   15.28    3.21
  -5 -14   8   18.78    3.09
  -4  14   8   16.05    2.75
  -4 -14   8   18.13    2.89
  -4 -14   8   15.72    3.50
  -3  14   8    5.56    2.54
  -3 -14   8    7.56    2.60
  -3 -14   8    6.00    2.66
  -2  14   8    2.78    2.28
  -2 -14   8    1.90    2.72
  -2 -14   8    2.28    2.96
  -1  14   8    5.07    2.64
  -1 -14   8    6.02    2.72
  -1 -14   8    7.90    2.76
   0  14   8    6.39    2.82
   0 -14   8    6.68    2.75
   0 -14   8    5.90    2.89
   1  14   8   16.92    3.11
   1 -14   8   15.53    3.04
   1 -14   8   15.69    3.01
   2  14   8   -0.88    2.52
   2 -14   8   -0.43    2.75
   2 -14   8   -2.10    2.60
   3  14   8   12.49    2.93
   3 -14   8   12.86    3.19
   3 -14   8    8.82    2.97
   4  14   8   -0.92    2.68
   4 -14   8   -1.11    2.63
   4 -14   8   -0.48    2.70
   5  14   8   -1.44    2.70
   5 -14   8   -1.19    2.65
   5 -14   8    1.74    3.14
   6  14   8    5.50    3.01
   6 -14   8    3.52    2.64
   6 -14   8    2.11    3.60
   7  14   8    3.56    3.04
   7 -14   8    2.06    3.35
   7 -14   8    4.17    3.19
   8  14   8   -0.77    2.77
   8 -14   8    0.13    2.67
   8 -14   8    2.49    3.48
   9  14   8    1.46    3.17
   9 -14   8   -0.21    2.80
 -12 -15   8   67.01    4.66
 -11 -15   8   20.26    3.52
 -11 -15   8   19.16    3.27
 -10 -15   8  103.29    4.97
 -10 -15   8  103.54    5.25
  -9 -15   8   12.85    3.15
  -9 -15   8   16.58    3.46
  -8 -15   8   36.29    3.73
  -8 -15   8   39.98    3.84
  -7 -15   8    4.66    3.06
  -7 -15   8    9.89    3.36
  -6 -15   8   36.12    3.44
  -6 -15   8   37.00    3.81
  -5 -15   8    2.28    3.12
  -5 -15   8    3.71    2.87
  -4 -15   8   54.19    4.47
  -4 -15   8   58.48    4.02
  -3  15   8   13.03    3.15
  -3 -15   8   16.88    3.02
  -3 -15   8   17.91    3.31
  -2  15   8   60.82    4.53
  -2 -15   8   55.42    3.85
  -2 -15   8   53.58    3.98
  -1  15   8    7.40    4.30
  -1 -15   8    7.38    2.97
  -1 -15   8    7.05    2.89
   0  15   8   37.02    3.68
   0 -15   8   32.30    3.80
   0 -15   8   27.29    3.47
   1  15   8    9.79    4.33
   1 -15   8   10.51    3.03
   1 -15   8   12.11    3.07
   2  15   8   20.08    3.24
   2 -15   8   18.56    2.96
   2 -15   8   15.48    3.27
   3  15   8    2.37    5.03
   3 -15   8    4.35    2.80
   3 -15   8    0.93    2.81
   4  15   8   18.92    3.20
   4 -15   8   23.60    3.38
   4 -15   8   20.67    3.80
   5  15   8    3.67    4.30
   5 -15   8    3.20    2.76
   5 -15   8    4.67    3.14
   6  15   8   18.69    3.40
   6 -15   8   22.46    3.34
   6 -15   8   20.44    3.31
   7  15   8   11.44    3.36
   7 -15   8    9.21    2.66
   7 -15   8   12.85    3.22
 -10 -16   8    2.99    2.87
 -10 -16   8    0.94    3.44
  -9 -16   8   14.13    3.39
  -9 -16   8   11.09    3.53
  -8 -16   8   -0.49    2.72
  -8 -16   8    1.02    3.21
  -7 -16   8   32.97    3.66
  -7 -16   8   27.98    3.50
  -6 -16   8    0.91    3.10
  -6 -16   8    1.05    3.18
  -5 -16   8   41.32    3.65
  -5 -16   8   41.08    3.98
  -4 -16   8    1.21    2.74
  -4 -16   8   -2.40    2.91
  -3 -16   8   51.68    4.00
  -3 -16   8   50.17    4.14
  -2  16   8   -0.27    2.60
  -2 -16   8   -1.02    2.54
  -2 -16   8    0.52    2.69
  -1  16   8   33.20    3.45
  -1 -16   8   37.77    3.80
  -1 -16   8   38.27    3.68
   0  16   8    2.20    3.01
   0 -16   8    3.59    3.07
   0 -16   8    4.99    3.08
   1  16   8   29.35    3.72
   1 -16   8   33.06    3.51
   1 -16   8   40.19    3.92
   2 -16   8    1.59    3.08
   2 -16   8   -0.85    3.27
   3  16   8   37.02    3.61
   3 -16   8   37.20    3.64
   3 -16   8   38.04    4.32
   4 -16   8    1.25    3.43
   4 -16   8    1.59    2.91
  -6 -17   8   76.11    4.68
  -6 -17   8   81.73    5.07
  -5 -17   8    0.42    5.10
  -5 -17   8    1.93    3.28
  -4 -17   8   52.64    4.22
  -4 -17   8   45.69    3.97
  -3 -17   8   -0.52    3.05
  -3 -17   8    1.77    3.72
  -2 -17   8   55.60    4.04
  -2 -17   8   49.45    4.35
  -1 -17   8   -0.29    2.89
  -1 -17   8   -0.40    3.13
   0  17   8   16.28    3.26
   0 -17   8   12.05    3.30
   0 -17   8    9.02    3.60
 -18   0   9   -0.58    2.44
 -17   0   9   -0.19    2.66
 -16   0   9   -0.02    2.35
 -15   0   9   -0.56    2.24
 -14   0   9    1.00    2.38
 -13   0   9   -0.53    2.26
 -12   0   9    0.69    2.05
 -11   0   9    1.13    2.35
 -10   0   9    0.81    2.80
  -9   0   9   -0.04    2.17
  -8   0   9   -1.08    1.99
  -7   0   9   -0.15    2.29
  -6   0   9    0.44    1.99
  -5   0   9   -0.35    2.16
  -4   0   9   -0.56    2.11
  -3   0   9   -0.17    1.87
  -2   0   9    0.18    2.26
  -1   0   9   -0.33    1.93
   0   0   9   -0.22    2.44
   0   0   9    6.58    2.47
   1   0   9   -1.10    1.86
   2   0   9   -1.02    2.02
   3   0   9   -0.69    2.24
   4   0   9    0.14    2.55
   4   0   9    0.20    2.36
   5   0   9   -0.04    2.62
   5   0   9   -0.58    2.41
   6   0   9   -1.62    2.28
   6   0   9    0.54    2.23
   7   0   9    0.28    1.90
   7   0   9   -0.10    2.31
   8   0   9    0.20    2.40
   8   0   9    0.38    2.75
   9   0   9    0.69    2.41
   9   0   9    0.77    2.19
  10   0   9    1.04    2.50
  10   0   9   -0.58    2.62
  11   0   9    0.70    2.51
  11   0   9    0.77    2.76
  12   0   9   -0.81    2.84
  12   0   9   -1.87    2.57
  13   0   9    0.42    2.73
  13   0   9    0.03    3.33
  14   0   9   -0.40    2.82
  14   0   9    0.79    2.93
  15   0   9   -0.01    2.74
  15   0   9   -0.34    3.24
 -19  -1   9   -1.30    2.47
 -18  -1   9    5.56    2.59
 -17   1   9    7.78    2.38
 -17  -1   9    8.61    2.48
 -16   1   9    1.87    2.53
 -16  -1   9   -0.02    2.45
 -15   1   9   20.99    3.68
 -15  -1   9   23.40    3.27
 -14   1   9   14.32    3.75
 -14  -1   9   12.64    5.65
 -13   1   9   26.82    3.64
 -13  -1   9   27.90    4.46
 -12   1   9    3.33    3.23
 -11   1   9   38.95    3.57
 -11  -1   9   39.35    3.51
 -10   1   9    3.08    4.59
 -10  -1   9    2.09    4.57
 -10  -1   9    4.31    2.40
  -9   1   9  107.96    7.85
  -9  -1   9  112.89    5.06
  -9  -1   9  127.82   22.96
  -8   1   9    0.82    2.28
  -8  -1   9    0.45    2.04
  -7   1   9   18.49    2.65
  -7  -1   9   17.67    2.73
  -6   1   9    0.93    2.02
  -6  -1   9    2.50    2.33
  -5   1   9   14.94    2.52
  -5  -1   9   12.26    2.64
  -4   1   9   12.78    2.54
  -4  -1   9   15.57    2.57
  -3   1   9   34.06    3.06
  -3  -1   9   34.20    3.17
   3   1  -9   35.31    6.36
  -2   1   9    0.70    2.42
  -2  -1   9   -0.63    2.09
  -2  -1   9    0.34    1.99
  -1   1   9   63.88    5.74
  -1  -1   9   65.02    6.03
  -1  -1   9   67.44    6.12
   0   1   9  105.83    5.19
   0  -1   9  112.18    5.49
   0  -1  -9  115.33    5.67
   1   1   9  130.14    5.74
   1  -1   9  129.11    5.90
   2   1   9    7.39    2.28
   2  -1   9    6.83    2.33
   3  -1   9    0.98    2.05
   3   1   9    2.30    2.19
   3  -1   9    0.60    2.09
   4  -1   9   10.50    2.74
   4   1   9    7.15    2.35
   4  -1   9    8.02    2.50
   5   1   9   18.31    2.62
   5  -1   9   18.07    2.80
   5   1   9   17.14    2.88
   5  -1   9   19.35    2.83
   6   1   9   -0.35    2.25
   6  -1   9    1.79    2.35
   6   1   9    0.53    2.33
   6  -1   9   -0.08    2.24
   7   1   9   20.82    2.95
   7  -1   9   23.70    2.98
   7   1   9   19.76    2.91
   7  -1   9   21.19    3.33
   8   1   9    2.68    2.58
   8  -1   9    4.39    2.51
   8   1   9    3.69    2.92
   8  -1   9    4.46    2.58
   9   1   9   35.32    3.98
   9  -1   9   34.37    3.78
   9   1   9   33.27    3.78
   9  -1   9   33.88    3.98
  10   1   9   13.09    2.92
  10  -1   9   11.60    2.85
  10   1   9   14.71    3.04
  10  -1   9   14.35    2.87
  11   1   9   39.60    3.71
  11  -1   9   39.57    3.60
  11   1   9   37.14    3.85
  11  -1   9   39.87    3.55
  12   1   9    3.10    2.88
  12  -1   9    4.03    2.62
  12   1   9    2.43    2.71
  12  -1   9    3.03    2.73
  13   1   9    7.11    2.87
  13  -1   9    7.59    3.13
  13   1   9    7.28    2.88
  13  -1   9    5.60    3.04
  14   1   9    1.86    2.81
  14  -1   9    2.26    2.63
  14   1   9    1.95    3.08
  14  -1   9    2.36    2.74
  15   1   9    8.75    2.81
  15  -1   9    9.02    2.98
  15   1   9    7.93    3.22
  15  -1   9    6.40    3.11
 -19  -2   9    2.12    3.00
 -18  -2   9  129.07    5.09
 -16   2   9  157.56    6.80
 -16  -2   9  171.56    7.15
 -14   2   9  302.52    7.55
 -14  -2   9  312.22    7.61
 -12   2   9  245.67    7.78
 -12  -2   9  230.25    7.60
 -12  -2   9  202.86    6.93
 -11  -2   9    1.79    2.07
 -10   2   9  102.40    7.68
 -10  -2   9  100.70    7.36
 -10  -2   9   88.57    6.78
  -9   2   9    5.59    3.72
  -9  -2   9    1.66    2.16
  -8   2   9  121.90    4.98
  -8  -2   9  120.21    4.97
  -8  -2   9   95.75    7.10
  -7   2   9   14.00    4.27
  -7  -2   9   16.33    2.69
  -7  -2   9   26.79    3.00
  -6   2   9  254.79    8.53
  -6  -2   9  244.04    8.37
  -6  -2   9  239.93    8.49
  -6  -2   9  234.47    8.15
  -5   2   9    3.78    2.24
  -5  -2   9    4.42    1.98
  -5  -2   9    4.86    2.22
  -4   2   9  124.88    5.57
  -4  -2   9  127.15    5.68
  -4  -2   9  101.99    5.23
  -3   2   9   13.13    2.51
  -3  -2   9   12.07    2.50
  -3  -2   9   23.51    2.70
  -2   2   9   48.53    4.85
  -2  -2   9   47.07    4.81
  -2  -2   9   27.42    2.84
  -1   2   9    0.27    2.23
  -1  -2   9    3.90    2.21
   0   2   9   54.02    5.25
   0  -2   9   25.44    2.96
   1   2   9   34.53    3.13
  -1  -2  -9   59.05    5.71
   2   2   9  208.77    6.23
   2  -2   9  199.36    6.09
   3  -2   9    6.14    2.02
   3  -2   9   16.15    2.84
  -3  -2  -9   14.23    2.65
   4  -2   9   23.81    2.87
   4  -2   9   14.01    2.83
  -4  -2  -9   11.41    2.53
   5  -2   9   11.20    2.73
   5  -2   9   17.21    3.08
   6   2   9   31.28    3.13
   6  -2   9   33.42    3.45
   6   2   9   25.69    3.02
   6  -2   9   21.77    3.05
   7   2   9   28.48    3.14
   7  -2   9   21.82    2.78
   7   2   9   31.63    3.34
   7  -2   9   33.64    3.21
   8   2   9    5.17    2.63
   8  -2   9    5.61    2.08
   8   2   9    2.37    2.30
   8  -2   9    2.70    2.51
   9   2   9   19.03    2.99
   9  -2   9   18.21    2.89
   9   2   9   25.86    3.49
   9  -2   9   23.44    3.07
  10   2   9    8.63    2.62
  10  -2   9    6.44    2.85
  10   2   9    2.64    2.49
  10  -2   9    2.48    2.68
  11   2   9   12.52    2.78
  11  -2   9   11.26    2.94
  11   2   9   16.77    3.37
  11  -2   9   14.71    3.20
  12   2   9   11.72    3.05
  12  -2   9    9.29    3.09
  12   2   9    8.86    2.89
  12  -2   9    6.13    3.24
  13   2   9   15.10    3.10
  13  -2   9   18.95    3.54
  13   2   9   24.81    3.38
  13  -2   9   22.24    3.22
  14   2   9   13.22    3.32
  14  -2   9   12.80    3.13
  14   2   9   10.53    3.10
  14  -2   9   10.46    3.02
  15   2   9   33.30    3.89
  15  -2   9   33.56    4.78
  15  -2   9   36.20    3.88
 -20  -3   9    4.21    2.82
 -19  -3   9    2.61    2.65
 -18  -3   9    0.94    2.78
 -17  -3   9   12.91    2.69
 -16  -3   9    0.06    2.94
 -15   3   9   22.32    3.39
 -15  -3   9   32.49    3.52
 -14  -3   9    8.15    3.37
 -13   3   9   68.65    4.85
 -13  -3   9   80.53    5.49
 -13  -3   9   88.32    5.73
 -12  -3   9    1.24    2.20
 -11   3   9   73.77    4.92
 -11  -3   9   82.46    5.24
 -11  -3   9   86.46    5.24
 -10  -3   9    0.65    3.44
 -10  -3   9    2.11    2.48
  -9   3   9   63.25    5.23
  -9  -3   9   70.64    5.75
  -9  -3   9   73.49    5.91
  -8  -3   9    0.76    2.19
  -8  -3   9    1.87    2.21
  -7   3   9  161.77    6.37
  -7  -3   9  167.98    6.55
  -7  -3   9  192.84    7.31
  -6  -3   9    1.06    1.84
  -6  -3   9    0.89    1.97
  -5   3   9   62.66    5.74
  -5  -3   9   65.07    5.94
  -5  -3   9   67.25    6.15
  -4   3   9   22.43    2.93
  -4  -3   9   25.88    3.03
  -4  -3   9   27.92    2.92
  -3   3   9   91.35    7.80
  -3  -3   9   89.52    7.60
  -3  -3   9   96.88    4.59
  -2   3   9    0.09    1.91
  -2  -3   9    0.59    1.89
  -1   3   9  241.39    8.24
  -1  -3   9  250.49    8.60
   0   3   9   18.80    2.76
   0  -3   9    9.77    2.36
   1   3   9   87.43    6.65
   1  -3   9   81.98    6.38
   1  -3   9   87.93    6.74
  -1  -3  -9   92.31    7.03
   2   3   9  144.74    5.34
   2  -3   9  136.94    5.37
   2  -3   9  154.62    5.71
   3   3   9   39.98    3.97
   3  -3   9   36.74    3.91
   3  -3   9   43.37    4.36
  -3  -3  -9   42.52    4.43
   4  -3   9   27.33    3.01
   4  -3   9   27.98    3.05
  -4  -3  -9   27.82    3.19
   5  -3   9   25.90    2.87
   5  -3   9   32.65    3.52
  -5  -3  -9   29.87    3.33
   6  -3   9    0.83    2.88
   6  -3   9    2.21    2.27
  -6  -3  -9    2.55    2.43
   7   3   9   48.82    3.91
   7  -3   9   52.82    3.51
   7  -3   9   48.96    3.85
  -7  -3  -9   54.96    4.55
   8   3   9   26.42    3.20
   8  -3   9   26.91    3.25
   8  -3   9   27.82    3.44
  -8  -3  -9   25.07    3.33
   9   3   9   53.66    3.86
   9  -3   9   50.01    3.77
   9  -3   9   48.69    3.93
  -9  -3  -9   48.90    3.89
  10   3   9   16.67    2.96
  10  -3   9   21.52    3.19
  10  -3   9   15.05    2.98
 -10  -3  -9   17.35    3.19
  11   3   9   38.71    3.49
  11  -3   9   36.38    3.57
  11  -3   9   36.60    3.97
 -11  -3  -9   38.72    3.85
  12   3   9   13.77    2.68
  12  -3   9   12.32    2.95
  12  -3   9   10.34    2.88
 -12  -3  -9   10.22    3.17
  13   3   9   57.35    4.62
  13  -3   9   52.01    4.14
  13  -3   9   49.49    3.83
 -13  -3  -9   57.09    4.73
  14   3   9    8.29    3.01
  14  -3   9    8.58    3.06
  14  -3   9    7.41    2.98
 -14  -3  -9    8.44    3.51
  15   3   9   18.70    3.29
  15  -3   9   18.99    3.54
  15  -3   9   20.56    3.64
 -15  -3  -9   16.76    3.87
 -21  -4   9   -0.44    3.80
 -20  -4   9  129.83    6.24
 -19  -4   9    0.69    2.80
 -18  -4   9   92.85    4.55
 -17  -4   9   -0.82    2.74
 -16  -4   9   27.63    3.24
 -15  -4   9   -0.09    3.27
 -14   4   9   33.52    3.50
 -14  -4   9   37.88    3.78
 -14  -4   9   30.24    3.36
 -13  -4   9   -1.04    2.76
 -13  -4   9   -0.07    2.43
 -12   4   9   97.32    6.04
 -12  -4   9   96.08    6.00
 -12  -4   9   79.92    5.50
 -11  -4   9   -0.01    2.74
 -11  -4   9   -0.57    2.35
 -10   4   9   91.15    5.48
 -10  -4   9   85.56    5.34
 -10  -4   9   78.83    5.12
  -9  -4   9    3.01    2.55
  -9  -4   9    2.75    2.48
  -8   4   9   54.02    4.81
  -8  -4   9   53.82    4.81
  -8  -4   9   53.03    4.85
  -7   4   9    3.30    4.77
  -7  -4   9    1.90    2.28
  -7  -4   9    1.59    2.14
  -6   4   9   59.90    5.10
  -6  -4   9   51.38    4.73
  -6  -4   9   46.46    4.41
  -5   4   9   11.55    3.23
  -5  -4   9   13.09    2.61
  -5  -4   9   18.97    2.73
  -4   4   9   41.13    4.33
  -4  -4   9   40.14    3.22
  -4  -4   9   29.34    3.02
  -3   4   9    2.84    2.18
  -3  -4   9    2.58    2.32
  -2   4   9   20.63    2.83
  -2  -4   9   16.94    2.61
  -1   4   9    4.12    2.26
  -1  -4   9    4.26    2.43
   0   4   9   80.60    6.26
   0  -4   9   77.44    6.02
   0  -4   9   72.91    5.91
   1   4   9   -1.31    2.09
   1  -4   9    0.11    2.08
   1  -4   9    0.45    2.51
   2   4   9    2.95    2.40
   2  -4   9    1.09    2.06
   2  -4   9    6.46    2.35
   3   4   9   -0.37    2.34
   3  -4   9    1.11    2.28
   3  -4   9    1.44    2.49
   4   4   9   10.48    2.60
   4  -4   9   11.35    2.34
   4  -4   9    5.38    2.21
  -4  -4  -9    6.13    2.34
   5  -4   9    3.37    2.42
   5  -4   9    0.82    2.33
  -5  -4  -9    2.55    2.48
   6  -4   9   10.92    2.26
   6  -4   9    6.38    2.65
  -6  -4  -9    7.67    2.55
   7  -4   9   -0.24    2.35
   7  -4   9    1.01    2.50
  -7  -4  -9    2.68    2.45
   8   4   9   18.69    3.08
   8  -4   9   23.55    3.15
   8  -4   9   11.15    3.05
  -8  -4  -9   13.40    3.27
   9   4   9   11.88    2.95
   9  -4   9    8.72    2.84
   9  -4   9   19.22    3.24
  -9  -4  -9   20.01    3.37
  10   4   9   15.78    2.83
  10  -4   9   16.93    2.90
  10  -4   9    8.25    3.13
 -10  -4  -9   11.26    3.04
  11   4   9    5.26    2.84
  11  -4   9    5.28    2.58
  11  -4   9    8.14    2.86
 -11  -4  -9    9.16    3.00
  12   4   9    1.90    2.85
  12  -4   9    2.47    2.83
  12  -4   9    0.97    3.09
 -12  -4  -9    0.58    2.41
  13   4   9    6.27    3.01
  13  -4   9    4.81    2.87
  13  -4   9    8.04    2.80
 -13  -4  -9    8.15    3.42
  14   4   9    0.55    3.08
  14  -4   9    0.41    3.79
 -14  -4  -9   -2.43    3.10
  15   4   9    5.00    2.92
  15  -4   9    4.58    3.54
  15  -4   9    8.69    2.90
 -15  -4  -9   10.28    3.84
 -20  -5   9    3.57    2.96
 -19  -5   9    0.58    2.39
 -18  -5   9    3.64    2.82
 -17  -5   9    0.74    2.62
 -16  -5   9    3.13    2.83
 -15  -5   9    0.85    2.51
 -15  -5   9   -0.65    2.34
 -14   5   9   35.68    3.33
 -14  -5   9   34.00    3.15
 -14  -5   9   32.19    3.23
 -13   5   9    0.38    2.34
 -13  -5   9    0.13    2.56
 -13  -5   9    0.56    2.53
 -12   5   9    0.39    3.50
 -12  -5   9    2.47    2.28
 -12  -5   9    0.95    2.46
 -11   5   9    7.59    2.41
 -11  -5   9    9.38    2.67
 -11  -5   9    9.16    2.66
 -10   5   9   -0.04    3.00
 -10  -5   9    0.23    2.61
 -10  -5   9    0.46    2.47
  -9  -5   9    0.18    2.10
  -9  -5   9    0.65    2.18
  -8   5   9   19.11    3.93
  -8  -5   9   22.21    2.99
  -8  -5   9   22.08    2.79
  -7   5   9    5.16    4.43
  -7  -5   9    5.44    2.49
  -7  -5   9    7.52    2.20
  -6   5   9    8.74    3.39
  -6  -5   9    7.88    2.09
  -6  -5   9    9.99    2.47
  -5   5   9   18.07    3.11
  -5  -5   9   19.06    2.94
  -5  -5   9   15.50    2.52
  -4   5   9   17.14    2.55
  -4  -5   9   17.49    2.66
  -3   5   9    6.87    3.59
  -3  -5   9    3.93    2.09
  -2   5   9    4.02    2.26
  -2  -5   9    5.98    2.26
  -1   5   9   45.08    4.32
  -1  -5   9   43.52    4.20
  -1  -5   9   45.55    4.42
   0   5   9    1.56    2.45
   0  -5   9    1.67    2.19
   0  -5   9    1.92    2.25
   1   5   9   19.64    3.06
   1  -5   9   20.85    2.86
   1  -5   9   16.87    2.66
   2   5   9   27.88    3.06
   2  -5   9   30.17    3.27
   2  -5   9   22.95    2.72
   3   5   9    7.29    2.43
   3  -5   9    7.37    2.02
   3  -5   9    9.44    2.36
   4   5   9   -1.98    2.50
   4  -5   9    0.84    2.38
   4  -5   9    0.58    2.21
  -4  -5  -9    1.75    2.73
   5   5   9    7.18    2.72
   5  -5   9    8.46    2.45
   5  -5   9    6.29    2.41
  -5  -5  -9    6.01    2.58
   6   5   9   23.75    3.10
   6  -5   9   21.74    3.22
   6  -5   9   29.54    3.45
  -6  -5  -9   26.23    3.22
   7  -5   9    1.27    2.26
   7  -5   9    0.53    2.48
  -7  -5  -9   -0.90    2.05
   8  -5   9   16.77    3.31
   8  -5   9   29.07    3.33
  -8  -5  -9   25.61    3.55
   9   5   9    0.30    2.35
   9  -5   9   -0.83    2.47
   9  -5   9   -0.85    2.61
  -9  -5  -9   -0.37    3.13
  10   5   9    7.95    2.70
  10  -5   9    9.21    3.01
  10  -5   9    8.78    3.04
 -10  -5  -9    7.83    3.32
  11   5   9    2.78    2.87
  11  -5   9    0.94    2.72
  11  -5   9    0.71    2.71
 -11  -5  -9    3.99    2.82
  12   5   9    0.17    2.56
  12  -5   9    1.41    2.71
  12  -5   9    2.10    3.09
 -12  -5  -9    0.93    3.18
  13   5   9   -0.99    2.93
  13  -5   9    0.97    3.05
  13  -5   9    1.76    2.72
 -13  -5  -9    1.36    3.37
  14   5   9    0.76    3.15
  14  -5   9   -0.72    2.94
  14  -5   9   -0.91    3.07
 -14  -5  -9   -0.55    2.11
 -20  -6   9   20.79    3.33
 -19  -6   9    1.38    2.65
 -18  -6   9   38.40    3.51
 -17  -6   9    0.35    3.85
 -16  -6   9   31.79    3.66
 -15  -6   9    8.69    3.08
 -15  -6   9    6.40    3.10
 -14  -6   9   62.81    3.96
 -14  -6   9   55.61    3.67
 -13  -6   9    2.10    2.44
 -12   6   9   50.24    5.18
 -12  -6   9   49.27    4.18
 -12  -6   9   47.01    4.24
 -11  -6   9    3.95    3.18
 -11  -6   9    2.88    2.23
 -10   6   9  110.96    5.66
 -10  -6   9  106.10    4.91
 -10  -6   9  102.99    6.22
  -9  -6   9    0.37    2.74
  -9  -6   9    2.16    2.19
  -8   6   9  133.39    5.48
  -8  -6   9  119.91    5.41
  -8  -6   9  124.61    5.54
  -7  -6   9    3.65    2.33
  -7  -6   9    5.99    2.14
  -6   6   9   67.65    6.65
  -6  -6   9   61.90    4.54
  -6  -6   9   57.83    4.36
  -5   6   9   20.47    9.36
  -5  -6   9   31.66    3.67
  -4   6   9   66.50    6.10
  -4  -6   9   45.94    4.34
  -3   6   9   22.72    5.25
  -3  -6   9   36.88    3.98
  -2   6   9   75.48    6.57
  -2  -6   9   77.32    6.04
  -2  -6   9   69.60    5.78
  -1   6   9   46.97    5.87
  -1  -6   9   40.31    4.19
  -1  -6   9   48.25    4.65
   0   6   9   74.02    5.18
   0  -6   9   79.42    4.99
   0  -6   9   70.33    4.64
   1   6   9   34.76    3.58
   1  -6   9   32.37    3.00
   1  -6   9   38.54    3.45
   2   6   9   10.61    2.73
   2  -6   9   14.37    2.98
   2  -6   9    9.70    2.32
   3   6   9   32.29    3.38
   3  -6   9   26.17    3.18
   3  -6   9   33.83    3.42
   4   6   9   12.00    3.22
   4  -6   9   13.92    2.86
   4  -6   9   10.73    2.34
   5   6   9   25.19    3.18
   5  -6   9   20.35    2.91
   5  -6   9   21.43    2.85
   6   6   9    4.90    2.60
   6  -6   9    4.96    2.53
   6  -6   9    2.21    2.22
   7   6   9   33.09    3.55
   7  -6   9   32.55    3.29
   7  -6   9   39.63    3.55
   8  -6   9    1.01    2.89
   8  -6   9    1.79    2.40
   9  -6   9   63.47    4.45
   9  -6   9   68.20    4.32
  10   6   9   23.78    3.20
  10  -6   9   21.97    3.27
  10  -6   9   16.82    3.32
  11   6   9   21.73    3.05
  11  -6   9   21.73    3.45
  11  -6   9   19.10    3.37
  12   6   9   -1.18    2.78
  12  -6   9   -0.30    3.07
  12  -6   9    1.09    2.95
  13   6   9   30.30    3.63
  13  -6   9   33.51    3.83
  13  -6   9   32.27    3.94
  14   6   9    0.90    3.25
  14  -6   9   -0.45    3.05
  14  -6   9   -0.15    3.18
 -20  -7   9   23.81    3.61
 -19  -7   9    4.96    2.75
 -18  -7   9   16.23    2.94
 -17  -7   9   21.22    3.35
 -16  -7   9   28.19    3.49
 -16  -7   9   24.81    3.60
 -15  -7   9    4.96    3.14
 -15  -7   9    7.62    2.76
 -14  -7   9    1.13    2.65
 -14  -7   9    1.32    2.63
 -13  -7   9  116.18    5.88
 -13  -7   9  122.48    6.11
 -12  -7   9   -0.55    2.85
 -12  -7   9    2.10    2.45
 -11   7   9   60.95    7.29
 -11  -7   9   90.36    4.49
 -11  -7   9   86.75    7.49
 -10  -7   9    9.48    2.99
 -10  -7   9   11.82    2.95
  -9   7   9  108.68    7.87
  -9  -7   9  127.93    6.11
  -9  -7   9  127.82    6.24
  -8  -7   9   23.59    3.09
  -8  -7   9   23.60    3.10
  -7   7   9  147.43    8.15
  -7  -7   9  175.25    6.48
  -7  -7   9  172.38    6.50
  -6  -7   9   17.42    2.72
  -5   7   9  185.07    8.40
  -5  -7   9  209.25    7.18
  -4  -7   9   32.37    3.24
  -3   7   9  222.77    8.40
  -3  -7   9  205.20    7.05
  -3  -7   9  226.41    7.51
  -2  -7   9   18.30    2.82
  -2  -7   9   17.65    3.04
  -1   7   9  135.31    5.68
  -1  -7   9  134.66    5.85
  -1  -7   9  138.20    5.87
   0  -7   9    2.16    1.78
   0  -7   9    1.91    2.12
   1   7   9  153.11    6.04
   1  -7   9  155.23    6.02
   1  -7   9  157.63    6.15
   2   7   9    2.81    3.05
   2  -7   9    1.64    2.34
   2  -7   9    0.69    2.35
   3   7   9  127.58    6.25
   3  -7   9  129.00    6.21
   3  -7   9  128.36    6.46
   4   7   9    1.32    2.63
   4  -7   9    2.28    2.42
   4  -7   9    1.65    2.39
   5   7   9  103.03    4.93
   5  -7   9  104.61    4.86
   5  -7   9   91.84    4.91
   6   7   9   14.64    3.18
   6  -7   9   16.33    2.99
   6  -7   9    8.26    2.92
   7   7   9   66.24    4.22
   7  -7   9   64.00    4.28
   7  -7   9   53.14    4.14
   8   7   9   12.29    3.54
   8  -7   9   11.43    2.84
   8  -7   9    4.50    2.97
   9  -7   9   71.98    5.02
   9  -7   9   58.65    4.25
  10  -7   9    0.25    3.02
  10  -7   9    2.55    2.81
  11   7   9   25.05    3.51
  11  -7   9   28.64    4.27
  11  -7   9   14.05    3.68
  12   7   9    1.13    2.69
  12  -7   9   -2.74    3.15
  12  -7   9    1.86    3.10
  13   7   9   32.04    3.62
  13  -7   9   31.35    3.81
  13  -7   9   25.60    3.82
 -19  -8   9   10.86    3.47
 -18  -8   9  166.74    6.17
 -17  -8   9    4.69    3.57
 -16  -8   9  215.60    6.64
 -16  -8   9  213.92    6.51
 -15  -8   9    0.88    3.05
 -14  -8   9  190.73    8.48
 -14  -8   9  177.72    8.41
 -13  -8   9    6.73    5.17
 -13  -8   9    7.73    2.90
 -12  -8   9  262.28    9.35
 -12  -8   9  265.61    7.17
 -11   8   9   -0.71    2.18
 -11  -8   9    0.65    2.38
 -11  -8   9    1.57    2.43
 -10   8   9  234.29    6.59
 -10  -8   9  233.02    6.64
 -10  -8   9  222.32    6.89
  -9  -8   9    0.16    2.97
  -9  -8   9    0.14    2.33
  -8   8   9  206.43    8.40
  -8  -8   9  195.66    8.06
  -8  -8   9  199.54    8.37
  -7  -8   9    1.82    2.41
  -6   8   9  293.44   10.96
  -6  -8   9  230.73    9.67
  -5  -8   9   47.40    3.79
  -4   8   9  194.30    8.59
  -4  -8   9  173.61    6.46
  -4  -8   9  143.01    5.78
  -3  -8   9   22.79    3.09
  -3  -8   9   36.01    3.53
  -2   8   9  106.56    5.84
  -2  -8   9  112.11    5.72
  -2  -8   9   80.08    5.42
  -1  -8   9    9.79    2.89
  -1  -8   9   19.99    3.07
   0   8   9  108.04    8.25
   0  -8   9  114.24    5.76
   0  -8   9   92.21    5.95
   1   8   9   44.17    6.00
   1  -8   9   37.49    3.68
   1  -8   9   49.94    4.04
   2   8   9   46.93    9.55
   2  -8   9   58.84    4.79
   2  -8   9   46.72    3.70
   3   8   9   87.99    8.39
   3  -8   9   82.51   10.03
   3  -8   9   94.96    4.69
   4   8   9   40.31    8.88
   4  -8   9   44.82    4.10
   4  -8   9   34.13    3.77
   5   8   9   84.38    8.61
   5  -8   9   75.69    4.41
   5  -8   9   95.34    5.47
   6   8   9   49.38    3.93
   6  -8   9   55.56    3.86
   6  -8   9   38.25    3.63
   7   8   9   76.03    5.02
   7  -8   9   73.79    4.89
   7  -8   9   94.92    5.79
   8   8   9   56.39    4.35
   8  -8   9   66.21    4.43
   8  -8   9   37.45    3.95
   9   8   9   29.07    3.70
   9  -8   9   23.01    3.24
   9  -8   9   34.78    3.71
  10  -8   9    5.88    2.92
  10  -8   9   10.01    3.36
  11  -8   9   73.63    6.23
  11  -8   9   86.37    5.03
  12   8   9    1.66    2.89
  12  -8   9    3.53    3.15
  12  -8   9    0.29    2.89
  13   8   9   26.07    3.46
  13  -8   9   26.45    4.24
  13  -8   9   29.23    3.92
 -18  -9   9    8.30    3.10
 -17  -9   9   12.87    3.39
 -16  -9   9    0.51    2.70
 -16  -9   9    0.60    2.96
 -15  -9   9   41.75    3.77
 -15  -9   9   42.01    3.56
 -14  -9   9   11.05    2.88
 -14  -9   9   10.90    2.83
 -13  -9   9   27.09    2.95
 -13  -9   9   24.29    3.13
 -12  -9   9    0.66    2.66
 -12  -9   9    1.38    2.70
 -11  -9   9  106.28    5.50
 -11  -9   9  111.40    5.80
 -10   9   9    0.89    2.35
 -10  -9   9    3.39    2.52
 -10  -9   9    1.54    2.94
  -9   9   9   67.99    6.05
  -9  -9   9   76.08    6.69
  -9  -9   9   74.61    6.68
  -8   9   9    0.75    2.22
  -8  -9   9    0.17    2.40
  -7   9   9  144.97    5.48
  -7  -9   9  168.62    5.91
  -6  -9   9    2.46    2.55
  -5   9   9  345.30   12.23
  -5  -9   9  364.75   12.70
  -5  -9   9  396.66   13.79
  -4  -9   9    9.95    2.99
  -4  -9   9   11.91    2.63
  -3   9   9   84.99    5.65
  -3  -9   9   83.59    5.54
  -3  -9   9   89.45    5.80
  -2  -9   9    3.37    2.17
  -2  -9   9    3.30    2.47
  -1   9   9   63.71    6.17
  -1  -9   9   65.36    4.95
  -1  -9   9   70.31    5.24
   0   9   9   17.37    8.79
   0  -9   9   16.09    2.91
   0  -9   9   18.84    3.28
   1   9   9   66.87    6.00
   1  -9   9   71.03    6.40
   1  -9   9   69.72    6.29
   2  -9   9    6.88    3.18
   2  -9   9    7.36    2.71
   3   9   9  157.56    5.97
   3  -9   9  151.41    5.57
   3  -9   9  150.41    5.69
   4  -9   9    4.98    2.52
   4  -9   9    6.03    2.80
   5   9   9  133.66    6.26
   5  -9   9  138.40    6.41
   5  -9   9  123.86    6.15
   6  -9   9    1.09    2.48
   6  -9   9    0.63    2.43
   7   9   9   78.16    5.19
   7  -9   9   78.18    5.13
   7  -9   9   77.91    5.05
   8   9   9   11.02    3.17
   8  -9   9    9.13    2.89
   8  -9   9    8.89    3.24
   9   9   9   11.71    3.07
   9  -9   9   14.57    3.68
   9  -9   9    9.26    3.01
  10   9   9    2.33    2.82
  10  -9   9    2.86    2.94
  10  -9   9   -0.59    3.33
  11  -9   9   34.91    3.70
  11  -9   9   24.47    3.72
  12  -9   9    3.32    3.31
  12  -9   9    6.21    3.33
 -17 -10   9   15.44    3.29
 -16 -10   9   29.16    3.50
 -16 -10   9   26.10    3.71
 -15 -10   9    7.57    2.76
 -15 -10   9    7.01    3.31
 -14 -10   9   44.02    3.85
 -14 -10   9   39.27    4.01
 -13 -10   9    3.75    2.92
 -13 -10   9    2.21    2.89
 -12 -10   9   28.42    3.50
 -12 -10   9   30.37    3.49
 -11 -10   9    3.46    2.71
 -11 -10   9    1.80    2.52
 -10 -10   9   32.28    3.54
 -10 -10   9   32.80    3.51
  -9 -10   9   -0.32    2.51
  -8  10   9   52.19    3.73
  -8 -10   9   49.14    3.87
  -7  10   9    3.50    2.44
  -7 -10   9    2.07    2.60
  -6  10   9   -0.22    2.01
  -6 -10   9   -0.80    2.62
  -6 -10   9    1.06    2.61
  -5  10   9    4.91    3.85
  -5 -10   9    2.48    2.36
  -5 -10   9    0.49    2.52
  -4  10   9    8.45    2.74
  -4 -10   9    7.72    2.51
  -4 -10   9    4.55    2.54
  -3 -10   9    2.17    2.46
  -3 -10   9    2.66    2.23
  -2  10   9   29.73    4.05
  -2 -10   9   29.11    3.17
  -2 -10   9   20.69    3.18
  -1  10   9    2.53    2.49
  -1 -10   9    5.60    2.35
  -1 -10   9    6.70    3.02
   0  10   9    3.50    2.41
   0 -10   9    5.11    2.43
   0 -10   9    2.85    2.57
   1  10   9    0.38    2.71
   1 -10   9   -0.10    2.45
   1 -10   9    0.56    2.28
   2  10   9    6.33    2.49
   2 -10   9    8.25    2.97
   2 -10   9    6.77    2.58
   3  10   9    2.43    2.40
   3 -10   9    0.22    2.65
   3 -10   9    2.06    2.63
   4  10   9   -1.33    2.42
   4 -10   9    0.47    2.28
   4 -10   9    0.58    2.62
   5  10   9    9.43    3.11
   5 -10   9    7.52    2.71
   5 -10   9    8.78    2.73
   6  10   9    2.35    2.65
   6 -10   9    0.45    2.83
   6 -10   9    2.53    2.73
   7  10   9    2.80    2.46
   7 -10   9    3.68    3.10
   7 -10   9    4.00    3.26
   8  10   9    4.22    2.97
   8 -10   9    4.03    3.02
   8 -10   9    3.10    2.47
   9  10   9   19.01    3.48
   9 -10   9   17.50    3.40
   9 -10   9   23.25    3.11
  10  10   9   19.48    3.39
  10 -10   9   22.88    3.51
  10 -10   9   13.66    3.31
  11  10   9    2.31    2.77
  11 -10   9    2.33    2.87
  11 -10   9    0.38    3.91
 -16 -11   9    2.92    3.16
 -16 -11   9    1.14    3.08
 -15 -11   9   -0.46    2.86
 -15 -11   9   -0.31    3.03
 -14 -11   9    0.70    3.02
 -14 -11   9    0.78    2.95
 -13 -11   9    1.41    2.62
 -13 -11   9   -0.37    2.87
 -12 -11   9    1.93    2.66
 -12 -11   9   -1.47    2.69
 -11 -11   9   -0.26    2.55
 -11 -11   9    2.99    2.68
 -10 -11   9    0.49    2.67
  -9 -11   9    6.64    3.00
  -8 -11   9   28.54    3.28
  -7  11   9    0.17    2.56
  -7 -11   9   -0.06    2.57
  -7 -11   9   -0.10    2.79
  -6  11   9   -0.13    2.39
  -6 -11   9   -0.35    2.51
  -6 -11   9    0.21    3.19
  -5  11   9   10.86    2.45
  -5 -11   9   11.73    2.91
  -5 -11   9    9.96    3.13
  -4  11   9    5.89    5.33
  -4 -11   9    6.53    2.49
  -4 -11   9    8.81    2.91
  -3  11   9   15.74    2.84
  -3 -11   9   13.78    3.05
  -3 -11   9   10.09    2.55
  -2  11   9   -2.45    3.75
  -2 -11   9    1.12    2.59
  -2 -11   9    0.57    2.10
  -1  11   9   11.83    2.74
  -1 -11   9    6.57    2.51
  -1 -11   9    6.25    3.08
   0  11   9    0.60    2.69
   0 -11   9    0.55    2.48
   0 -11   9    0.05    2.66
   1  11   9    7.52    2.48
   1 -11   9    7.86    3.01
   1 -11   9    5.61    2.87
   2  11   9    0.57    2.83
   2 -11   9    0.00    2.65
   2 -11   9    3.21    2.37
   3  11   9   -0.86    2.53
   3 -11   9    0.11    2.36
   3 -11   9    0.38    2.47
   4  11   9   -0.62    3.17
   4 -11   9    0.38    2.64
   4 -11   9    1.55    2.68
   5  11   9    8.78    3.03
   5 -11   9    6.71    2.77
   5 -11   9    7.20    2.67
   6  11   9    1.09    2.64
   6 -11   9   -0.17    2.42
   6 -11   9    1.50    2.87
   7  11   9    3.45    2.64
   7 -11   9    2.45    2.63
   7 -11   9    4.61    3.09
   8  11   9    2.94    2.54
   8 -11   9    0.66    2.99
   8 -11   9    4.28    2.92
   9  11   9    2.86    2.99
   9 -11   9    2.93    3.01
   9 -11   9    0.10    3.18
  10  11   9    2.99    3.50
  10 -11   9    2.44    3.03
  10 -11   9    1.23    3.32
 -15 -12   9    3.02    3.00
 -15 -12   9    0.76    2.85
 -14 -12   9   47.16    3.99
 -14 -12   9   48.16    3.88
 -13 -12   9   -0.01    2.81
 -13 -12   9    1.50    2.87
 -12 -12   9   57.28    4.00
 -12 -12   9   55.49    3.97
 -11 -12   9    5.90    2.83
 -10 -12   9   36.43    3.63
  -9 -12   9    3.52    2.82
  -8 -12   9  129.15    4.94
  -8 -12   9  119.49    5.08
  -7 -12   9    1.11    2.34
  -7 -12   9   -0.47    2.40
  -6  12   9   27.63    3.02
  -6 -12   9   25.25    3.27
  -6 -12   9   24.33    3.20
  -5  12   9    3.52    2.39
  -5 -12   9    5.36    2.75
  -5 -12   9   10.81    2.79
  -4  12   9   37.86    3.34
  -4 -12   9   36.42    3.81
  -4 -12   9   34.89    3.43
  -3  12   9    9.81    2.69
  -3 -12   9   10.75    2.81
  -3 -12   9   14.38    2.86
  -2  12   9   81.58    5.53
  -2 -12   9   85.37    5.22
  -2 -12   9   80.90    5.05
  -1 -12   9    3.97    2.57
  -1 -12   9    7.15    2.91
   0  12   9   51.53    3.88
   0 -12   9   60.57    4.29
   0 -12   9   51.43    3.88
   1 -12   9    0.61    3.06
   1 -12   9    1.01    2.60
   2  12   9   39.40    4.15
   2 -12   9   41.84    3.68
   2 -12   9   31.82    3.31
   3  12   9   13.56    3.44
   3 -12   9   11.74    3.10
   3 -12   9   17.55    3.11
   4  12   9   15.90    3.75
   4 -12   9   23.14    3.39
   4 -12   9   17.24    2.87
   5  12   9    8.74    2.89
   5 -12   9    8.52    3.44
   5 -12   9   10.45    2.83
   6  12   9    5.22    2.81
   6 -12   9    7.14    2.97
   6 -12   9    4.26    3.18
   7  12   9    1.74    2.75
   7 -12   9    1.78    2.65
   7 -12   9    3.24    3.16
   8  12   9   11.66    3.41
   8 -12   9   10.80    3.20
   8 -12   9    9.49    3.28
   9  12   9   10.04    2.93
   9 -12   9    6.61    2.98
   9 -12   9   13.61    3.19
 -14 -13   9    8.06    3.32
 -14 -13   9    6.82    3.21
 -13 -13   9    2.13    3.10
 -13 -13   9    3.10    2.79
 -12 -13   9   -0.13    2.88
 -11 -13   9   10.54    2.84
 -10 -13   9   -0.47    3.24
  -9 -13   9   13.61    3.08
  -9 -13   9   11.44    3.52
  -8 -13   9   19.34    3.22
  -8 -13   9   19.63    3.62
  -7 -13   9   37.82    3.59
  -7 -13   9   34.87    3.72
  -6 -13   9    1.43    2.74
  -6 -13   9    2.13    3.07
  -5  13   9   29.42    3.42
  -5 -13   9   39.51    3.50
  -5 -13   9   44.85    3.75
  -4  13   9    0.40    2.61
  -4 -13   9    1.00    2.83
  -4 -13   9    0.26    2.66
  -3  13   9   34.04    3.35
  -3 -13   9   35.49    3.50
  -3 -13   9   40.09    3.74
  -2  13   9    2.90    2.54
  -2 -13   9    3.12    2.84
  -2 -13   9    4.16    2.66
  -1  13   9   18.33    3.14
  -1 -13   9   25.18    3.20
  -1 -13   9   26.62    3.25
   0  13   9    9.37    2.88
   0 -13   9   11.81    3.12
   0 -13   9   11.68    2.83
   1  13   9   31.12    4.32
   1 -13   9   31.59    3.53
   1 -13   9   38.82    3.84
   2 -13   9   13.79    3.10
   2 -13   9   16.00    3.04
   3  13   9   67.75    4.67
   3 -13   9   67.36    4.39
   3 -13   9   74.35    4.30
   4  13   9   13.05    2.86
   4 -13   9   12.54    3.28
   4 -13   9   11.24    3.20
   5  13   9   28.03    3.96
   5 -13   9   25.44    3.12
   5 -13   9   25.01    3.46
   6  13   9    7.52    4.15
   6 -13   9    7.88    3.10
   6 -13   9    7.98    3.15
   7  13   9   41.39    4.27
   7 -13   9   38.29    3.60
   7 -13   9   41.42    3.82
 -12 -14   9   60.49    4.92
 -11 -14   9    1.53    3.33
 -10 -14   9   78.84    4.83
 -10 -14   9   79.64    4.72
  -9 -14   9    1.73    2.82
  -9 -14   9    2.86    3.00
  -8 -14   9   26.04    3.34
  -8 -14   9   28.49    3.54
  -7 -14   9    2.39    2.86
  -7 -14   9    3.66    2.82
  -6 -14   9   88.16    4.79
  -6 -14   9   83.14    4.73
  -5 -14   9    3.63    2.87
  -5 -14   9    1.78    2.58
  -4  14   9   61.19    4.18
  -4 -14   9   60.16    4.12
  -4 -14   9   59.88    3.88
  -3  14   9    2.73    2.56
  -3 -14   9    3.58    3.16
  -3 -14   9    9.60    2.82
  -2  14   9   52.30    3.86
  -2 -14   9   50.20    4.10
  -2 -14   9   42.70    3.88
  -1  14   9    1.03    2.51
  -1 -14   9    0.57    2.76
  -1 -14   9    1.80    2.62
   0  14   9   47.22    3.93
   0 -14   9   45.40    3.86
   0 -14   9   39.37    4.01
   1  14   9    3.37    2.77
   1 -14   9    3.56    2.92
   1 -14   9    4.06    2.96
   2  14   9   23.51    3.39
   2 -14   9   27.23    3.75
   2 -14   9   20.24    3.69
   3  14   9   -1.65    3.34
   3 -14   9    0.00    3.07
   3 -14   9   -0.98    2.98
   4  14   9   13.02    3.21
   4 -14   9   11.19    3.21
   5 -14   9    0.54    2.76
   5 -14   9    2.18    3.05
   6  14   9   25.99    3.35
   6 -14   9   30.65    3.58
   6 -14   9   24.47    3.68
 -10 -15   9    1.88    3.08
 -10 -15   9    1.49    2.90
  -9 -15   9    3.53    3.05
  -9 -15   9    1.14    2.77
  -8 -15   9    2.99    2.99
  -8 -15   9    3.74    3.19
  -7 -15   9   -1.63    3.12
  -7 -15   9    0.74    2.97
  -6 -15   9    4.78    2.66
  -6 -15   9    3.54    2.99
  -5 -15   9    1.43    2.94
  -5 -15   9    1.83    3.18
  -4 -15   9   -0.03    3.08
  -4 -15   9    1.85    2.80
  -3 -15   9    9.65    3.24
  -3 -15   9   14.68    3.44
  -2  15   9    9.45    3.07
  -2 -15   9   13.93    3.26
  -2 -15   9   11.83    3.87
  -1  15   9   10.25    2.66
  -1 -15   9   10.46    3.06
  -1 -15   9   13.04    3.51
   0  15   9   10.44    3.31
   0 -15   9   10.68    3.23
   0 -15   9   12.88    3.31
   1  15   9   21.80    3.14
   1 -15   9   20.74    3.11
   1 -15   9   24.17    3.13
   2  15   9    1.96    2.85
   2 -15   9    0.26    2.78
   2 -15   9    3.07    3.45
   3  15   9    0.97    2.76
   3 -15   9    0.93    2.88
   3 -15   9    1.29    2.83
  -5 -16   9    4.82    3.05
  -5 -16   9    3.50    3.08
  -4 -16   9    1.26    2.86
  -4 -16   9   -1.44    3.19
  -3 -16   9   13.39    3.32
  -3 -16   9   12.48    3.38
  -2 -16   9   -1.47    2.94
  -2 -16   9   -0.58    2.82
  -1  16   9    4.88    2.82
  -1 -16   9    3.35    2.97
  -1 -16   9    4.14    3.15
 -17   0  10   -1.02    2.27
 -16   0  10    6.62    3.28
 -15   0  10   27.77    6.41
 -14   0  10  115.27    5.61
 -12   0  10   27.63    5.01
 -11   0  10   41.55    6.07
 -10   0  10   35.51    3.37
  -9   0  10    9.49    2.56
  -8   0  10   22.54    3.11
  -7   0  10    1.08    2.11
  -6   0  10    1.88    2.44
  -5   0  10    0.16    2.50
  -4   0  10   22.67    2.90
  -3   0  10   31.42    3.28
  -2   0  10    6.91    2.65
  -1   0  10  101.70    4.95
   0   0  10   73.37    4.96
   1   0  10   35.98    3.26
   3   0  10   12.00    2.85
   4   0  10   40.16    3.24
   4   0  10   44.21    3.94
   5   0  10   50.30    5.19
   5   0  10   55.43    5.54
   6   0  10    4.46    2.48
   6   0  10    3.71    2.86
   7   0  10  149.92    6.70
   7   0  10  153.31    7.13
   8   0  10    4.83    2.88
   8   0  10    4.38    2.69
   9   0  10  103.00    5.93
   9   0  10   99.84    5.90
  10   0  10   24.79    3.61
  10   0  10   21.29    3.51
  11   0  10   61.53    4.01
  11   0  10   60.01    4.63
  12   0  10   18.91    3.38
  12   0  10   13.64    3.15
  13   0  10   66.19    4.60
 -18  -1  10   31.58    3.29
 -17   1  10    0.80    2.70
 -17  -1  10    0.22    2.74
 -16   1  10   18.60    2.92
 -16  -1  10   18.06    2.96
 -15   1  10    6.86    5.59
 -15  -1  10    6.94    3.58
 -14   1  10   59.77    3.94
 -14  -1  10   61.71    4.01
 -13  -1  10    9.86    6.96
 -12   1  10   66.70    6.07
 -12  -1  10   65.67    6.01
 -10   1  10   52.18    3.50
 -10  -1  10   51.55    3.61
  -9   1  10    3.90    2.48
  -9  -1  10    4.24    5.46
  -8   1  10   55.73    4.26
  -8  -1  10   55.84    4.23
  -7   1  10    0.65    3.19
  -7  -1  10    0.79    2.29
  -6   1  10   66.40    4.50
  -6  -1  10   62.72    4.53
  -5   1  10    2.52    2.31
  -5  -1  10    1.37    2.40
  -4   1  10   56.21    4.29
  -4  -1  10   54.45    4.23
  -3   1  10   -0.11    2.28
  -3  -1  10    1.81    2.24
  -2   1  10   64.82    4.56
  -2  -1  10   63.76    4.55
  -1   1  10   -0.23    2.34
  -1  -1  10    2.34    2.29
   0   1  10   99.44    4.61
   0  -1  10   91.08    5.46
   1   1  10    0.16    2.37
   1  -1  10    0.50    2.18
   2   1  10  155.24    6.91
   2  -1  10  127.46    6.40
   3  -1  10    1.18    2.38
   3  -1  10    1.90    2.65
   4  -1  10   33.92    3.47
   4  -1  10   26.36    3.17
   5   1  10   18.35    2.78
   5  -1  10   16.42    2.90
   5  -1  10   24.79    3.29
   6   1  10   40.69    3.83
   6  -1  10   39.36    4.07
   6   1  10   32.48    3.80
   6  -1  10   32.28    3.85
   7   1  10   38.93    3.52
   7  -1  10   39.66    3.65
   7   1  10   46.58    3.88
   7  -1  10   43.36    3.97
   8   1  10   39.06    3.70
   8  -1  10   42.11    3.62
   8   1  10   36.74    3.54
   8  -1  10   33.08    3.53
   9   1  10   39.84    3.51
   9  -1  10   32.97    3.73
   9   1  10   41.19    3.51
   9  -1  10   37.11    3.74
  10   1  10   36.18    3.54
  10  -1  10   37.22    3.78
  10   1  10   31.25    3.59
  10  -1  10   30.17    3.38
  11   1  10   19.17    3.50
  11  -1  10   23.57    3.96
  11  -1  10   23.10    3.45
  12   1  10   11.06    3.28
  12  -1  10   10.45    3.71
  12  -1  10   10.29    3.27
  13   1  10   33.67    4.24
  13  -1  10   30.66    3.47
  13  -1  10   30.00    3.59
 -19  -2  10   -1.61    2.72
 -18  -2  10    3.43    2.82
 -17  -2  10   12.30    2.71
 -16   2  10    5.98    2.65
 -16  -2  10    6.19    2.81
 -15   2  10    3.43    4.99
 -15  -2  10    3.64    2.41
 -14   2  10   33.85    3.48
 -14  -2  10   34.81    3.69
 -13   2  10    2.39    2.43
 -13  -2  10    0.59    3.79
 -12   2  10    0.45    3.62
 -12  -2  10    0.42    2.49
 -11   2  10    6.31    2.47
 -11  -2  10    6.29    2.60
 -10   2  10   -0.61    2.61
 -10  -2  10   -0.89    2.31
  -9   2  10   -0.60    2.56
  -9  -2  10   -1.00    2.30
  -8   2  10    0.73    2.25
  -8  -2  10   -0.09    2.20
  -7   2  10    3.38    2.61
  -7  -2  10    3.52    2.43
  -6   2  10    0.20    2.17
  -6  -2  10   -1.75    2.32
  -5   2  10    0.88    2.16
  -5  -2  10    1.39    2.45
  -4   2  10   50.22    3.93
  -4  -2  10   49.38    3.87
  -3   2  10    0.66    2.27
  -3  -2  10   -0.25    2.05
  -2   2  10   11.66    2.43
  -2  -2  10    9.95    2.45
  -1   2  10   -0.25    2.43
  -1  -2  10    0.56    2.13
   0   2  10    2.60    2.46
   0  -2  10   -0.81    2.55
   1   2  10    2.98    2.46
   1  -2  10    4.16    2.53
   2   2  10   -0.03    2.25
   2  -2  10    2.48    2.56
   2  -2  10    0.73    2.53
   3   2  10   18.20    3.04
   3  -2  10   16.89    2.62
   3  -2  10   18.96    2.93
   4  -2  10    1.96    2.29
   4  -2  10    1.63    2.31
   5  -2  10   20.22    3.15
   5  -2  10   26.22    3.11
   6   2  10    6.57    2.36
   6  -2  10    3.98    2.74
   6  -2  10    8.39    2.81
   7   2  10    8.05    2.92
   7  -2  10    8.35    2.68
   7  -2  10    6.84    2.77
   8   2  10   29.20    3.64
   8  -2  10   25.87    3.25
   8  -2  10   29.63    3.45
   9   2  10    3.32    3.07
   9  -2  10    3.78    2.85
   9  -2  10    3.82    2.77
  10   2  10    0.77    2.92
  10  -2  10    1.05    3.01
  10  -2  10    0.02    2.74
  11   2  10   10.78    3.03
  11  -2  10   11.94    3.41
  11  -2  10   11.63    3.25
  12   2  10    1.61    2.87
  12  -2  10    1.75    3.03
  12  -2  10    0.96    2.73
  13   2  10    8.83    3.34
  13  -2  10    5.88    3.19
  13  -2  10    8.92    3.46
 -19  -3  10   -1.45    2.69
 -18  -3  10   10.22    2.89
 -17  -3  10    0.89    2.53
 -16  -3  10   11.25    2.88
 -15   3  10   23.50    7.08
 -15  -3  10   21.88    3.16
 -14   3  10   55.86    4.32
 -14  -3  10   61.23    4.58
 -13   3  10   15.36    5.73
 -13  -3  10   19.29    5.18
 -12   3  10   52.75    5.14
 -12  -3  10   47.64    5.52
 -11  -3  10   -1.42    2.49
 -10   3  10   40.89    3.39
 -10  -3  10   42.34    3.57
  -9  -3  10    1.28    2.58
  -8   3  10   39.08    3.23
  -8  -3  10   40.58    3.29
  -7   3  10    4.55    3.62
  -7  -3  10    4.78    2.55
  -6   3  10    6.02    2.35
  -6  -3  10    7.32    2.59
  -5   3  10    6.01    2.52
  -5  -3  10    7.54    2.48
  -4   3  10    4.36    2.26
  -4  -3  10    6.79    2.51
  -3   3  10    9.71    2.62
  -3  -3  10   11.60    2.65
  -2   3  10   21.85    2.89
  -2  -3  10   22.35    2.80
  -2  -3  10   13.34    2.59
  -1   3  10    3.59    2.55
  -1  -3  10   10.99    2.50
   0   3  10    2.14    1.96
   0  -3  10   -0.37    2.35
   1   3  10    0.35    2.48
   1  -3  10   -0.44    2.43
   1  -3  10    0.37    2.25
   2   3  10   33.76    3.25
   2  -3  10   30.38    3.33
   2  -3  10   21.57    2.99
   3   3  10    0.09    2.37
   3  -3  10   -0.93    2.32
   3  -3  10    1.14    2.08
   4   3  10   -0.03    2.01
   4  -3  10    0.18    2.61
   4  -3  10    1.87    2.65
   5  -3  10   14.19    2.79
   5  -3  10   15.41    2.98
   6  -3  10    1.01    2.45
   6  -3  10    1.77    2.16
   7   3  10   25.96    3.11
   7  -3  10   25.15    3.23
   7  -3  10   24.82    3.14
   8   3  10    0.38    2.41
   8  -3  10    0.33    3.26
   8  -3  10   -1.03    2.68
   9   3  10   13.76    3.20
   9  -3  10    9.03    2.90
   9  -3  10   11.30    3.11
  10   3  10    4.32    3.08
  10  -3  10    3.91    3.51
  10  -3  10    2.76    2.93
  11   3  10   -0.50    2.83
  11  -3  10    0.32    2.72
  11  -3  10    0.08    2.58
  12   3  10    4.45    2.98
  12  -3  10   -0.96    2.86
  12  -3  10   -0.04    2.77
  13   3  10    3.04    3.13
  13  -3  10    1.44    3.00
  13  -3  10    2.98    3.35
 -19  -4  10   -1.42    2.85
 -18  -4  10    1.72    2.79
 -17  -4  10   13.11    2.96
 -16  -4  10   24.05    3.94
 -15  -4  10   45.46    3.62
 -14   4  10    9.98    2.98
 -14  -4  10    8.10    4.65
 -13   4  10    2.74    2.78
 -13  -4  10    5.90    3.35
 -12   4  10    2.13    4.51
 -12  -4  10   -1.21    2.55
 -11   4  10   17.89    3.63
 -11  -4  10   19.92    2.99
 -10   4  10    6.33    4.99
 -10  -4  10    9.84    2.83
  -9   4  10   22.43    5.78
  -9  -4  10   25.62    3.17
  -8   4  10   14.89    4.52
  -8  -4  10   17.31    2.87
  -7   4  10   21.77    3.56
  -7  -4  10   26.03    2.96
  -6  -4  10    1.25    2.37
  -5   4  10    9.10    2.57
  -5  -4  10   10.57    2.99
  -4  -4  10    1.35    2.28
  -4  -4  10    2.44    2.18
  -3   4  10   64.96    4.61
  -3  -4  10   60.75    4.41
  -3  -4  10   70.02    4.80
  -2   4  10   11.16    2.56
  -2  -4  10   13.55    2.74
  -1   4  10   64.88    4.62
  -1  -4  10   70.27    4.73
   0   4  10   24.66    3.75
   0  -4  10   26.19    3.15
   0  -4  10   28.88    3.12
   1   4  10   35.40    3.37
   1  -4  10   35.44    3.07
   1  -4  10   52.00    3.87
   2   4  10   24.50    2.92
   2  -4  10   20.43    3.17
   2  -4  10   26.09    3.07
   3   4  10   74.21    6.66
   3  -4  10   63.69    5.86
   3  -4  10   75.78    6.67
   4   4  10   17.06    3.03
   4  -4  10   16.82    2.88
   4  -4  10   11.21    3.24
   5   4  10   69.99    4.28
   5  -4  10   68.72    4.50
   5  -4  10   60.97    4.27
   6  -4  10    0.07    2.91
   6  -4  10   -1.14    2.62
   7  -4  10   46.90    4.11
   7  -4  10   41.47    3.80
   8   4  10    3.93    2.87
   8  -4  10    0.90    3.25
   8  -4  10    1.18    3.17
   9   4  10   36.02    3.49
   9  -4  10   42.02    3.82
   9  -4  10   28.25    3.59
  10   4  10    5.75    3.22
  10  -4  10    5.35    2.98
  10  -4  10    3.73    2.67
  11   4  10   25.84    3.54
  11  -4  10   26.44    3.47
  11  -4  10   22.56    3.56
  12   4  10    4.47    3.10
  12  -4  10    4.47    3.03
  12  -4  10    3.38    3.10
 -19  -5  10   -0.98    2.89
 -18  -5  10  136.81    5.33
 -17  -5  10    7.34    3.03
 -16  -5  10  121.83    5.09
 -15  -5  10    9.51    3.83
 -14  -5  10  166.30    7.89
 -12   5  10  196.19    7.71
 -12  -5  10  182.11    7.37
 -11  -5  10    2.35    2.84
 -10   5  10  178.84    6.02
 -10  -5  10  173.03    5.90
  -9  -5  10    1.98    3.16
  -8   5  10  168.95    7.28
  -8  -5  10  156.37    6.94
  -7  -5  10    1.18    2.38
  -6   5  10  266.10   10.16
  -6  -5  10  272.64   10.22
  -5  -5  10   12.25    2.76
  -5  -5  10   16.14    2.64
  -4   5  10  151.48    7.84
  -4  -5  10  152.13    6.89
  -4  -5  10  127.31    6.18
  -3  -5  10   17.44    2.94
  -2   5  10  141.59    7.62
  -2  -5  10  123.68    5.99
  -1   5  10   25.08    7.99
  -1  -5  10   20.35    2.98
  -1  -5  10   31.13    3.18
   0   5  10  138.00    6.39
   0  -5  10  145.43    6.62
   0  -5  10  118.22    5.91
   1   5  10   20.27    2.85
   1  -5  10   18.27    2.98
   1  -5  10   31.06    3.28
   2   5  10   43.50    4.30
   2  -5  10   46.35    4.23
   2  -5  10   21.68    3.00
   3   5  10   21.37    6.19
   3  -5  10   22.79    3.01
   4   5  10   73.94    6.43
   5   5  10   23.51    3.18
   5  -5  10   21.73    3.04
   6   5  10   31.29    3.28
   6  -5  10   39.27    3.98
   6  -5  10   13.52    2.96
   7  -5  10   42.78    3.93
   7  -5  10   69.85    4.84
   8  -5  10   27.71    3.52
   8  -5  10    9.33    2.67
   9   5  10   81.29    4.64
   9  -5  10   74.65    4.56
  10   5  10   11.23    3.21
  10  -5  10   13.83    3.39
  10  -5  10    4.31    2.96
  11   5  10   59.33    4.46
  11  -5  10   57.73    4.44
  11  -5  10   64.28    4.71
  12   5  10    1.27    3.12
  12  -5  10    1.45    3.00
  12  -5  10    1.69    2.67
 -19  -6  10   10.65    3.43
 -18  -6  10    1.89    2.79
 -17  -6  10   20.88    3.53
 -16  -6  10   -1.02    2.78
 -15  -6  10    2.52    2.64
 -14  -6  10    1.25    2.68
 -13  -6  10   33.92    3.46
 -12   6  10    0.00    3.72
 -12  -6  10   -1.42    2.61
 -11   6  10   13.28    2.52
 -11  -6  10   17.32    2.83
 -10  -6  10    3.12    2.61
  -9   6  10   36.16    4.07
  -9  -6  10   41.09    4.03
  -8  -6  10    2.51    2.85
  -7   6  10   33.18    8.53
  -7  -6  10   37.48    4.00
  -7  -6  10   51.98    5.14
  -6   6  10   43.35    7.50
  -6  -6  10   46.64    3.57
  -6  -6  10   65.49    4.75
  -5   6  10   40.99   11.25
  -5  -6  10   45.21    3.66
  -5  -6  10   57.31    4.80
  -4   6  10   83.46    8.32
  -4  -6  10   97.52    6.16
  -3   6  10   39.04    9.66
  -3  -6  10   49.03    3.64
  -2   6  10   40.02    3.45
  -2  -6  10   37.70    3.36
  -2  -6  10   40.36    3.45
  -1   6  10   48.51    3.50
  -1  -6  10   46.68    3.67
  -1  -6  10   52.47    3.81
   0   6  10    4.09    4.63
   0  -6  10    2.72    2.43
   0  -6  10    4.85    2.29
   1   6  10   80.83    6.98
   1  -6  10   78.13    6.91
   1  -6  10   89.80    7.89
   2   6  10   15.91    3.58
   2  -6  10   14.48    2.98
   2  -6  10   17.46    3.07
   3   6  10   96.96    4.82
   3  -6  10   99.66    4.80
   3  -6  10   99.46    5.03
   4   6  10   19.62    3.24
   4  -6  10   18.27    3.04
   4  -6  10   17.24    3.42
   5   6  10   69.29    4.19
   5  -6  10   65.51    4.18
   5  -6  10   71.08    4.36
   6   6  10   53.57    4.56
   6  -6  10   53.36    4.05
   6  -6  10   44.58    3.89
   7   6  10   58.85    3.92
   7  -6  10   54.57    4.22
   7  -6  10   54.83    4.12
   8  -6  10   24.73    3.71
   8  -6  10   17.50    3.09
   9  -6  10   70.35    4.42
   9  -6  10   62.45    4.33
  10   6  10    4.10    2.78
  10  -6  10    5.82    3.23
  10  -6  10    0.93    3.45
  11   6  10   50.13    4.05
  11  -6  10   51.30    4.29
  11  -6  10   36.41    4.12
  12   6  10    6.60    3.31
  12  -6  10    9.62    3.10
  12  -6  10    2.62    3.12
 -18  -7  10   25.51    3.75
 -17  -7  10   -0.10    2.66
 -16  -7  10   45.46    3.92
 -15  -7  10    7.77    3.26
 -14  -7  10   34.38    3.58
 -13  -7  10   12.71    2.84
 -12  -7  10   40.45    3.49
 -11  -7  10    1.01    2.89
 -10   7  10   29.20    3.18
 -10  -7  10   27.53    3.28
  -9  -7  10    4.57    2.31
  -8   7  10   94.15    4.56
  -8  -7  10   95.23    4.79
  -8  -7  10   90.40    4.48
  -7  -7  10    3.27    2.59
  -7  -7  10    3.81    2.62
  -6   7  10   32.10    4.60
  -6  -7  10   31.76    3.64
  -6  -7  10   21.39    3.10
  -5  -7  10    4.21    2.75
  -4   7  10   66.85    6.39
  -4  -7  10   55.86    5.51
  -3  -7  10    9.84    2.73
  -3  -7  10    6.10    2.28
  -2   7  10   25.77    3.31
  -2  -7  10   28.77    3.18
  -2  -7  10   22.54    2.87
  -1  -7  10    2.43    2.34
  -1  -7  10    0.13    2.23
   0   7  10   22.28    3.21
   0  -7  10   26.43    3.09
   0  -7  10   21.65    3.07
   1   7  10   23.45    3.92
   1  -7  10   18.71    3.18
   1  -7  10   24.94    3.18
   2   7  10   18.56    4.73
   2  -7  10   24.35    3.11
   2  -7  10   14.53    2.76
   3   7  10   33.20    3.40
   3  -7  10   34.87    3.42
   3  -7  10   41.11    3.54
   4   7  10   14.21    2.89
   4  -7  10   14.93    2.95
   4  -7  10    6.92    3.33
   5   7  10   20.12    3.15
   5  -7  10   21.80    3.18
   5  -7  10   31.96    3.39
   6   7  10   26.45    3.43
   6  -7  10   33.60    3.60
   6  -7  10   11.91    2.90
   7   7  10    6.91    2.82
   7  -7  10    7.76    2.87
   7  -7  10   14.80    3.46
   8   7  10    5.61    2.90
   8  -7  10   11.40    3.28
   8  -7  10    2.32    2.70
   9  -7  10    3.46    3.21
   9  -7  10    9.36    3.26
  10  -7  10   -0.16    2.84
  10  -7  10    4.48    3.43
  11   7  10   43.61    3.89
  11  -7  10   38.64    4.00
  11  -7  10   52.36    4.13
 -17  -8  10    3.14    3.15
 -16  -8  10   -0.47    2.98
 -15  -8  10    0.55    3.12
 -14  -8  10   -2.05    2.85
 -13  -8  10    0.95    2.69
 -12  -8  10    0.48    2.85
 -11  -8  10   -0.33    2.42
 -10   8  10    3.73    2.48
 -10  -8  10    4.83    2.92
  -9   8  10    0.60    2.15
  -9  -8  10    0.16    2.53
  -9  -8  10   -0.36    2.83
  -8   8  10   -0.30    2.24
  -8  -8  10    0.93    2.60
  -8  -8  10    2.32    2.28
  -7   8  10    1.10    2.12
  -7  -8  10   -2.37    2.37
  -7  -8  10    0.00    2.40
  -6   8  10    0.66    3.29
  -6  -8  10    2.94    2.57
  -5   8  10    8.07    2.51
  -5  -8  10   11.28    2.82
  -4   8  10   -0.37    3.27
  -4  -8  10    0.02    1.95
  -4  -8  10    3.24    2.47
  -3   8  10    0.65    3.05
  -3  -8  10   -1.37    1.98
  -3  -8  10    0.90    2.43
  -2   8  10    8.12    2.42
  -2  -8  10    7.27    2.69
  -2  -8  10    7.44    2.68
  -1  -8  10    2.92    2.68
  -1  -8  10   -1.14    2.67
   0   8  10   19.67    2.96
   0  -8  10   18.53    2.76
   0  -8  10   19.24    2.86
   1   8  10   -0.05    2.89
   1  -8  10    0.93    2.64
   1  -8  10    0.22    2.61
   2   8  10    4.21    2.57
   2  -8  10    3.58    2.65
   2  -8  10    5.49    2.36
   3   8  10    1.21    3.55
   3  -8  10    1.39    2.61
   3  -8  10    0.30    2.79
   4   8  10   16.73    3.14
   4  -8  10   14.04    3.16
   4  -8  10   12.87    2.63
   5   8  10    3.13    2.77
   5  -8  10    4.10    2.71
   5  -8  10    2.40    3.00
   6   8  10    1.00    2.51
   6  -8  10    2.01    2.60
   6  -8  10    0.40    2.71
   7   8  10    1.35    3.16
   7  -8  10    1.16    2.89
   7  -8  10    0.66    2.72
   8   8  10   13.31    3.16
   8  -8  10   10.69    3.33
   8  -8  10    9.88    3.00
   9   8  10   -0.84    3.01
   9  -8  10   -1.85    3.09
   9  -8  10   -0.22    2.69
  10  -8  10    3.42    2.96
  10  -8  10    2.01    2.99
 -17  -9  10    7.38    3.21
 -16  -9  10   33.03    3.98
 -15  -9  10   11.87    2.98
 -14  -9  10   23.30    3.41
 -13  -9  10    2.65    2.80
 -12  -9  10   34.08    3.43
 -11  -9  10    8.83    3.36
 -10  -9  10   36.24    3.38
  -9   9  10   38.70    3.53
  -9  -9  10   44.16    3.86
  -9  -9  10   42.60    3.51
  -8   9  10   64.71    7.27
  -8  -9  10   70.08    4.92
  -8  -9  10   72.40    4.92
  -7   9  10   38.02    7.47
  -7  -9  10   38.20    3.71
  -6   9  10   10.05    6.57
  -6  -9  10    5.30    2.78
  -5  -9  10    1.56    2.55
  -5  -9  10    5.60    2.87
  -4   9  10   44.78    3.57
  -4  -9  10   40.80    3.43
  -4  -9  10   34.94    3.50
  -3  -9  10    2.12    2.68
  -3  -9  10    1.94    2.43
  -2   9  10    4.27    3.93
  -2  -9  10    4.44    2.93
  -2  -9  10    4.37    2.51
  -1   9  10   10.81    4.61
  -1  -9  10    5.74    2.66
  -1  -9  10    8.82    2.49
   0   9  10   10.84    4.34
   0  -9  10    7.43    2.78
   0  -9  10    9.47    2.64
   1   9  10   13.73    3.57
   1  -9  10   14.60    3.25
   1  -9  10   13.74    3.11
   2   9  10    3.70    3.48
   2  -9  10    2.81    2.84
   2  -9  10    2.09    2.89
   3   9  10    5.77    4.17
   3  -9  10    7.68    3.30
   3  -9  10    7.17    2.90
   4   9  10   15.46    3.93
   4  -9  10   18.35    3.39
   4  -9  10   16.49    3.04
   5   9  10   14.36    4.03
   5  -9  10   10.42    5.45
   5  -9  10   13.69    3.42
   6   9  10   22.28    3.23
   6  -9  10   22.88    3.46
   6  -9  10   20.37    3.31
   7   9  10    1.04    3.11
   7  -9  10    0.18    2.78
   7  -9  10    3.10    3.05
   8   9  10    7.58    3.11
   8  -9  10    5.63    3.04
   8  -9  10    5.35    3.15
   9   9  10    0.42    3.09
   9  -9  10    2.89    3.10
   9  -9  10    4.69    3.02
  10   9  10   -1.35    3.19
  10  -9  10    2.69    2.87
  10  -9  10    0.61    3.02
 -16 -10  10    1.96    3.12
 -15 -10  10   16.50    3.31
 -14 -10  10    8.05    2.99
 -13 -10  10   20.18    3.58
 -12 -10  10    1.26    2.94
 -11 -10  10   31.79    3.86
 -10 -10  10    0.12    2.41
  -9 -10  10   37.89    3.66
  -9 -10  10   34.82    3.17
  -8  10  10    4.91    2.72
  -8 -10  10    5.91    3.10
  -7  10  10   14.14    4.76
  -7 -10  10   17.51    3.08
  -6  10  10   15.40    8.91
  -6 -10  10   17.62    3.11
  -6 -10  10   21.89    3.28
  -5  10  10   87.58    6.12
  -5 -10  10   89.36    5.42
  -5 -10  10  102.44    5.71
  -4 -10  10    9.87    2.86
  -4 -10  10   13.42    3.12
  -3  10  10   38.80    3.43
  -3 -10  10   38.92    3.43
  -3 -10  10   40.37    3.44
  -2 -10  10    0.54    2.43
  -2 -10  10    1.47    2.52
  -1  10  10   22.10    4.02
  -1 -10  10   19.38    3.17
  -1 -10  10   25.83    3.47
   0  10  10    3.75    6.90
   0 -10  10    6.73    2.96
   0 -10  10    5.17    2.50
   1  10  10   34.54    3.35
   1 -10  10   30.40    3.51
   1 -10  10   31.31    3.81
   2 -10  10   -0.22    2.78
   2 -10  10    2.72    2.72
   3  10  10   58.03    4.06
   3 -10  10   56.91    3.86
   3 -10  10   55.30    3.98
   4 -10  10    1.78    2.45
   4 -10  10    2.75    2.65
   5  10  10   49.09    3.84
   5 -10  10   50.44    3.85
   5 -10  10   51.50    3.91
   6  10  10    4.29    3.71
   6 -10  10    4.76    3.09
   6 -10  10    3.79    2.91
   7  10  10   35.97    3.74
   7 -10  10   33.54    3.56
   7 -10  10   34.82    3.72
   8  10  10    7.51    3.86
   8 -10  10    6.75    3.19
   8 -10  10    7.91    3.10
   9  10  10   36.03    3.72
   9 -10  10   32.66    3.60
   9 -10  10   33.37    4.13
 -14 -11  10  103.34    5.95
 -13 -11  10    3.91    2.88
 -12 -11  10   81.62    4.66
 -11 -11  10   10.05    3.18
 -10 -11  10   47.56    3.93
 -10 -11  10   50.84    3.82
  -9 -11  10    6.93    2.82
  -8 -11  10   51.36    3.60
  -7  11  10    5.26    2.65
  -7 -11  10    8.53    2.79
  -7 -11  10   12.67    3.01
  -6  11  10  102.53    4.97
  -6 -11  10   94.05    4.41
  -6 -11  10   83.53    4.58
  -5 -11  10   -1.86    2.50
  -5 -11  10    0.89    3.19
  -4  11  10   33.36    5.96
  -4 -11  10   34.38    3.42
  -4 -11  10   25.66    3.29
  -3  11  10   30.57   10.40
  -3 -11  10   27.78    3.64
  -3 -11  10   35.56    3.64
  -2  11  10   81.84    4.41
  -2 -11  10   80.84    4.58
  -2 -11  10   70.27    4.36
  -1  11  10    6.48    4.24
  -1 -11  10    5.09    2.64
  -1 -11  10    9.89    2.94
   0  11  10   14.32    2.92
   0 -11  10   17.83    3.13
   0 -11  10   12.76    3.10
   1  11  10    1.40    4.15
   1 -11  10    2.19    2.64
   1 -11  10    4.02    3.00
   2  11  10   21.47    6.20
   2 -11  10   23.45    3.31
   2 -11  10   17.61    3.30
   3  11  10   32.47    5.58
   3 -11  10   31.10    3.65
   3 -11  10   33.77    3.81
   4  11  10   31.61    4.16
   4 -11  10   35.53    3.42
   4 -11  10   28.75    3.32
   5  11  10   15.67    3.45
   5 -11  10   18.46    3.18
   5 -11  10   18.15    3.47
   6  11  10    5.86    4.05
   6 -11  10    7.42    3.23
   6 -11  10    3.51    2.99
   7  11  10   14.43    3.54
   7 -11  10   15.55    3.54
   7 -11  10   25.38    3.83
 -13 -12  10   15.83    3.63
 -12 -12  10    3.60    3.11
 -11 -12  10   19.73    3.25
 -10 -12  10    3.42    3.12
  -9 -12  10   35.37    3.56
  -8 -12  10   22.46    3.17
  -8 -12  10   25.22    3.35
  -7 -12  10   31.81    3.79
  -7 -12  10   30.42    3.76
  -6 -12  10   -1.01    2.86
  -6 -12  10    1.64    2.68
  -5  12  10   20.69    3.07
  -5 -12  10   21.74    3.08
  -5 -12  10   25.07    3.16
  -4  12  10    1.03    2.74
  -4 -12  10    3.22    2.86
  -4 -12  10    2.39    2.61
  -3  12  10   46.54    3.98
  -3 -12  10   44.53    3.73
  -3 -12  10   46.20    3.88
  -2  12  10    8.71    5.93
  -2 -12  10    6.80    3.03
  -2 -12  10    9.33    3.10
  -1  12  10   16.68    4.47
  -1 -12  10   17.35    3.08
  -1 -12  10   14.70    3.35
   0  12  10   15.03    7.16
   0 -12  10   15.07    2.97
   0 -12  10   13.07    2.93
   1  12  10   36.18    3.68
   1 -12  10   37.66    3.71
   1 -12  10   36.35    3.91
   2 -12  10    7.42    3.09
   2 -12  10    4.93    2.66
   3  12  10   43.77    3.61
   3 -12  10   45.81    3.69
   3 -12  10   43.73    4.27
   4  12  10    3.20    3.95
   4 -12  10    2.25    2.86
   4 -12  10    1.04    2.88
   5  12  10   12.75    3.14
   5 -12  10   18.87    3.10
   5 -12  10   16.02    3.38
   6  12  10    4.51    3.50
   6 -12  10    7.66    3.24
   6 -12  10    6.17    3.29
  -9 -13  10    0.52    2.76
  -9 -13  10   -0.46    2.63
  -8 -13  10    1.70    3.19
  -8 -13  10   -1.20    2.93
  -7 -13  10    6.86    2.86
  -7 -13  10    5.27    3.22
  -6 -13  10    4.02    3.00
  -6 -13  10    4.82    3.03
  -5 -13  10    0.01    2.92
  -5 -13  10   -1.90    2.80
  -4  13  10    0.37    2.38
  -4 -13  10    0.03    2.72
  -4 -13  10    0.44    3.12
  -3  13  10   -0.57    2.63
  -3 -13  10   -0.64    3.00
  -3 -13  10   -0.52    2.86
  -2  13  10    0.04    2.61
  -2 -13  10   -0.85    2.57
  -2 -13  10    0.77    2.76
  -1  13  10    3.19    2.81
  -1 -13  10    3.53    3.07
  -1 -13  10    3.82    2.85
   0  13  10    4.19    2.84
   0 -13  10    5.84    2.68
   0 -13  10    3.86    2.71
   1  13  10    1.36    2.71
   1 -13  10    1.01    2.95
   1 -13  10    0.24    3.04
   2  13  10   -0.39    2.89
   2 -13  10   -0.17    2.73
   2 -13  10    1.18    2.92
   3  13  10    4.64    2.70
   3 -13  10    1.29    2.95
   3 -13  10    2.44    2.63
   4  13  10    3.47    2.70
   4 -13  10    2.40    3.03
   4 -13  10    5.28    3.57
  -8 -14  10    1.64    3.18
  -8 -14  10    0.12    3.00
  -7 -14  10    0.71    3.42
  -7 -14  10   -0.69    3.15
  -6 -14  10    2.36    3.19
  -6 -14  10   -0.25    2.71
  -5 -14  10   -0.67    3.10
  -5 -14  10    1.53    3.08
  -4 -14  10   -1.96    2.78
  -4 -14  10    1.19    2.81
  -3  14  10   -0.14    2.68
  -3 -14  10    1.27    2.99
  -3 -14  10    1.51    2.87
  -2  14  10    1.55    2.82
  -2 -14  10   -1.00    3.29
  -2 -14  10   -0.16    3.26
  -1  14  10   -0.16    3.18
  -1 -14  10    0.13    2.71
  -1 -14  10   -0.24    2.96
   0  14  10   -0.53    3.44
   0 -14  10   -0.94    3.07
   0 -14  10    1.18    2.72
   1  14  10    4.76    3.28
   1 -14  10    3.96    3.34
   1 -14  10    3.34    2.89
 -17   0  11   -0.74    2.72
 -16   0  11    0.85    2.66
 -15   0  11    0.94    2.71
 -14   0  11   -0.39    2.56
 -13   0  11    0.22    2.57
 -12   0  11   -0.59    2.51
 -11   0  11    0.07    2.67
 -10   0  11   -0.06    2.51
  -9   0  11   -0.77    2.27
  -8   0  11   -0.49    2.35
  -7   0  11    1.35    2.68
  -6   0  11   -0.08    2.38
  -5   0  11    0.41    2.49
  -4   0  11    0.46    2.09
  -3   0  11   -1.52    2.21
  -2   0  11   -0.80    2.44
  -1   0  11    0.60    2.65
   0   0  11   -1.57    2.53
   1   0  11   -2.60    2.82
   5   0  11    1.31    2.69
   6   0  11   -2.00    2.78
   7   0  11    1.33    2.54
   8   0  11   -1.49    2.78
   9   0  11   -0.82    2.86
  10   0  11    0.24    3.17
  11   0  11   -0.63    3.01
 -17  -1  11    1.22    2.80
 -16   1  11   16.96    3.74
 -16  -1  11   14.46    3.46
 -15   1  11   37.09    3.80
 -15  -1  11   40.65    3.79
 -14   1  11    3.26    2.98
 -14  -1  11    2.95    2.53
 -12   1  11   27.26    3.58
 -12  -1  11   27.69    3.58
 -11   1  11   12.71    8.00
 -11  -1  11   13.39    2.95
 -10   1  11   44.58    4.53
 -10  -1  11   44.70    5.14
  -9   1  11   13.45    2.91
  -9  -1  11    9.43    2.82
  -8  -1  11    2.47    2.52
  -7   1  11   23.72    3.34
  -7  -1  11   22.90    3.04
  -6   1  11   10.20    3.88
  -6  -1  11    9.19    2.66
  -5   1  11   35.05    3.64
  -5  -1  11   32.56    3.52
  -4   1  11    1.11    2.56
  -4  -1  11    1.80    2.35
  -3   1  11   53.88    5.23
  -3  -1  11   51.89    5.10
  -2   1  11   -1.29    2.61
  -2  -1  11   -1.16    2.46
  -1   1  11   73.49    6.49
  -1  -1  11   79.90    6.98
   0   1  11   25.13    3.27
   0  -1  11   22.00    3.03
   1   1  11   17.72    3.05
   2   1  11    8.79    2.60
   4  -1  11   18.26    2.86
   5  -1  11   13.50    2.98
   6   1  11    0.54    2.91
   6  -1  11   -1.02    3.08
   7   1  11   27.30    3.38
   7  -1  11   26.97    3.34
   8   1  11   -0.80    2.62
   8  -1  11   -0.90    2.53
   9   1  11    8.91    2.60
   9  -1  11    6.15    3.02
  10   1  11    3.91    2.91
  10  -1  11    0.73    2.70
  11  -1  11   -0.06    3.00
  11   1  11    1.16    2.92
 -18  -2  11   95.43    5.00
 -16  -2  11  128.78    5.38
 -15  -2  11   11.98    4.33
 -14   2  11  140.93    5.65
 -14  -2  11  140.79    5.42
 -13  -2  11   20.93    6.71
 -12   2  11  102.36    5.73
 -12  -2  11   97.98    5.68
 -10   2  11  122.72    5.94
 -10  -2  11  121.66    5.78
  -8   2  11  108.47    6.65
  -8  -2  11  107.04    4.85
  -7  -2  11   15.95    6.10
  -6   2  11  163.12   12.80
  -6  -2  11  165.92    5.75
  -5   2  11   90.35    8.70
  -5  -2  11   89.92    7.63
  -4   2  11   88.26   10.29
  -4  -2  11   82.97    7.20
  -3   2  11   76.76    7.10
  -3  -2  11   84.75    7.38
  -2   2  11   80.41    7.00
  -2  -2  11   70.08    6.57
  -1   2  11   51.06    5.22
  -1  -2  11   54.73    5.44
   0   2  11   13.97    2.88
   1   2  11   51.61    3.70
   2   2  11   94.24    5.35
   3   2  11   81.33    4.52
   3  -2  11   69.43    3.89
   4  -2  11   27.20    3.25
   5  -2  11   89.07    5.48
   6  -2  11    4.44    2.95
   7   2  11  124.65    5.33
   7  -2  11  126.42    5.88
   8   2  11    5.41    3.29
   8  -2  11    4.89    2.88
   9   2  11   84.45    4.81
   9  -2  11   79.03    4.57
  10   2  11    2.24    3.08
  10  -2  11    0.73    2.63
  11   2  11   29.37    4.03
  11  -2  11   30.51    3.72
 -18  -3  11    3.37    3.08
 -17  -3  11    8.80    2.87
 -16  -3  11    0.16    3.13
 -15  -3  11    9.66    4.49
 -14   3  11   47.68    7.09
 -14  -3  11   51.62    3.94
 -13   3  11   46.89    4.80
 -13  -3  11   49.46    4.53
 -12   3  11   20.02    4.46
 -12  -3  11   20.68    3.81
 -11   3  11   33.69    4.80
 -11  -3  11   32.07    4.20
 -10   3  11   15.81    7.63
 -10  -3  11   18.01    4.14
  -9   3  11   70.05    9.40
  -9  -3  11   72.34    4.60
  -8   3  11   50.49    6.89
  -8  -3  11   49.46    6.39
  -7   3  11   92.99    6.64
  -7  -3  11   94.77    4.75
  -6  -3  11   21.11    3.29
  -5   3  11   78.07    9.20
  -5  -3  11   82.45    7.19
  -4   3  11   51.79   12.84
  -4  -3  11   50.08    3.91
  -3   3  11  115.29    7.07
  -3  -3  11  116.59    5.07
  -2   3  11   64.90    6.50
  -2  -3  11   61.72    5.94
  -1   3  11  104.89    4.92
   0   3  11   15.24    3.41
   1   3  11  169.82    7.14
   2   3  11   12.10    3.14
   2  -3  11   11.51    3.21
   3   3  11   55.15    4.17
   3  -3  11   56.43    4.04
   4   3  11    9.52    3.24
   4  -3  11   11.03    2.66
   5  -3  11   86.81    5.40
   6  -3  11    6.77    2.95
   7  -3  11   57.09    4.16
   8   3  11    2.00    3.00
   8  -3  11    4.23    2.80
   9   3  11   16.24    3.37
   9  -3  11   20.21    3.32
  10   3  11    0.55    2.92
  10  -3  11    1.71    2.72
 -18  -4  11   77.94    5.06
 -17  -4  11   -0.22    2.65
 -16  -4  11   64.60    4.26
 -15  -4  11    6.01    4.11
 -14  -4  11   64.02    3.92
 -13  -4  11    1.10    3.65
 -12   4  11  114.49    6.24
 -12  -4  11  106.39    5.95
 -11  -4  11    3.33    5.05
 -10   4  11  100.39    6.16
 -10  -4  11   93.47    5.38
  -9  -4  11    9.19    2.66
  -8   4  11   78.03    4.42
  -8  -4  11   75.70    4.60
  -7  -4  11   13.95    3.01
  -6   4  11   75.79    4.61
  -6  -4  11   67.86    4.21
  -5  -4  11    4.54    2.91
  -4   4  11   69.55    6.74
  -4  -4  11   72.35    6.60
  -3   4  11   13.51    5.32
  -3  -4  11   13.69    2.94
  -2   4  11   33.27    3.72
  -1   4  11   53.35    8.05
   0   4  11   58.61    7.45
   1   4  11  121.94    5.67
   1  -4  11  121.53    5.99
   2   4  11    0.81    2.77
   2  -4  11    2.07    2.51
   3   4  11   71.34    4.79
   3  -4  11   66.54    4.34
   4   4  11   13.93    2.75
   4  -4  11   19.13    3.54
   5   4  11   27.01    3.36
   5  -4  11   24.46    3.25
   6  -4  11    2.54    2.91
   7  -4  11   43.19    3.90
   8  -4  11    0.56    2.63
   9   4  11   40.05    3.73
   9  -4  11   42.49    3.88
  10   4  11    0.50    3.00
  10  -4  11    2.54    3.09
 -17  -5  11   -0.35    2.90
 -16  -5  11    1.84    2.79
 -15  -5  11    2.59    3.15
 -14  -5  11    0.69    2.94
 -13  -5  11    1.57    2.88
 -12   5  11    0.26    2.81
 -12  -5  11   -0.11    2.51
 -11   5  11    1.01    2.53
 -11  -5  11    2.30    2.93
 -10   5  11    5.85    2.72
 -10  -5  11    4.74    3.38
  -9   5  11    4.13    2.65
  -9  -5  11    4.80    2.62
  -8  -5  11    1.24    2.78
  -7   5  11   27.64    7.19
  -7  -5  11   25.61    3.35
  -6   5  11   33.34    5.80
  -6  -5  11   41.69    3.65
  -5   5  11   23.16    5.12
  -5  -5  11   24.80    3.35
  -4   5  11   14.54    3.21
  -4  -5  11   16.41    3.21
  -3   5  11    5.21    2.65
  -2   5  11   -0.18    2.42
  -1   5  11   15.76    3.06
   0   5  11    1.73    2.52
   0  -5  11    2.69    2.79
   1   5  11    5.39    2.80
   1  -5  11    6.36    3.05
   2   5  11    7.96    2.76
   2  -5  11   10.48    2.81
   3   5  11   40.53    3.71
   3  -5  11   44.63    3.90
   4   5  11   -1.24    3.00
   4  -5  11    1.64    2.64
   5   5  11    4.61    3.23
   5  -5  11    0.42    2.94
   6   5  11   -2.58    3.19
   6  -5  11    0.31    2.91
   7  -5  11    2.60    2.62
   8  -5  11    0.03    3.17
   9  -5  11    5.50    3.09
  10   5  11   -0.41    2.83
  10  -5  11    1.18    3.66
 -17  -6  11    6.93    3.31
 -16  -6  11   10.27    2.91
 -15  -6  11   14.63    3.10
 -14  -6  11   -0.62    2.78
 -13  -6  11   13.16    2.93
 -12  -6  11   -2.59    2.94
 -11   6  11    0.44    2.65
 -11  -6  11   -0.59    2.45
 -10   6  11    1.73    2.61
 -10  -6  11    2.96    2.60
  -9   6  11   -0.46    2.29
  -9  -6  11   -1.09    2.71
  -8   6  11   -1.39    2.42
  -8  -6  11    2.51    2.68
  -7  -6  11   -0.53    2.84
  -6   6  11   16.56    3.04
  -6  -6  11   14.60    3.46
  -5   6  11    0.72    2.78
  -5  -6  11    1.86    2.59
  -4   6  11   -0.83    3.76
  -3   6  11   13.33    2.83
  -2   6  11    1.22    2.85
  -1   6  11    3.35    2.69
  -1  -6  11    3.40    2.51
   0   6  11   10.39    2.78
   0  -6  11   13.60    3.13
   1   6  11    5.53    2.62
   1  -6  11    5.84    2.51
   2   6  11    6.59    2.95
   2  -6  11    2.17    3.06
   3   6  11    4.25    2.85
   3  -6  11    1.75    2.59
   4   6  11   21.67    3.28
   4  -6  11   23.50    3.21
   5   6  11    1.70    2.96
   5  -6  11    1.07    2.79
   6   6  11    7.80    3.05
   6  -6  11   12.98    2.90
   7   6  11    9.05    3.26
   7  -6  11   10.51    3.37
   8  -6  11    1.01    2.80
   9  -6  11    1.48    3.00
 -16  -7  11    4.61    3.27
 -15  -7  11   10.44    2.92
 -14  -7  11   20.95    4.41
 -13  -7  11    9.47    2.78
 -12  -7  11    1.63    2.75
 -11  -7  11    8.74    3.24
 -10   7  11    5.10    4.42
 -10  -7  11    9.76    3.09
  -9   7  11   13.26    3.78
  -9  -7  11   14.59    3.20
  -8  -7  11    4.97    2.66
  -7   7  11   46.86    4.73
  -7  -7  11   53.15    3.98
  -6  -7  11   12.38    2.90
  -5   7  11   18.68    4.67
  -4   7  11   13.76    5.72
  -3   7  11   17.76    5.07
  -2  -7  11    5.21    2.90
  -1   7  11   33.65    3.36
  -1  -7  11   28.68    3.24
   0   7  11    3.97    3.69
   0  -7  11    2.02    2.75
   1   7  11   18.97    3.20
   1  -7  11   15.77    3.17
   2  -7  11    4.81    2.79
   3   7  11   51.82    4.15
   3  -7  11   52.54    4.14
   4   7  11    7.34    2.82
   4  -7  11    1.61    2.45
   5   7  11   18.13    3.15
   5  -7  11   19.89    3.07
   6   7  11    3.84    3.11
   6  -7  11    4.12    2.80
   7   7  11   13.50    3.31
   7  -7  11   13.75    3.56
   8   7  11    3.86    3.23
   8  -7  11    3.63    3.15
 -15  -8  11    1.77    2.93
 -14  -8  11   52.57    3.89
 -13  -8  11    0.38    3.46
 -12  -8  11   47.29    4.29
 -11  -8  11   11.75    2.83
 -10  -8  11   81.99    4.51
  -9   8  11   25.11    8.51
  -9  -8  11   29.88    3.49
  -8   8  11   77.44    6.54
  -8  -8  11   77.04    4.50
  -7  -8  11    2.73    2.75
  -6   8  11   10.25    6.02
  -5   8  11   26.46    9.84
  -4   8  11   71.89    7.22
  -3  -8  11    4.07    2.96
  -2   8  11   43.97    5.91
  -2  -8  11   48.62    3.99
  -1   8  11   26.94    6.59
  -1  -8  11   23.10    3.25
   0   8  11   27.08    6.37
   0  -8  11   30.42    3.21
   1   8  11   53.16    4.81
   1  -8  11   45.77    3.92
   2   8  11   12.05    7.18
   2  -8  11   14.71    2.91
   3   8  11   54.71    4.97
   3  -8  11   57.15    4.18
   4   8  11   11.39    5.52
   4  -8  11   15.03    3.10
   5   8  11   40.70    3.60
   5  -8  11   41.82    3.86
   6   8  11    4.95    3.20
   6  -8  11    6.96    3.39
   7   8  11   20.81    3.39
   7  -8  11   14.78    3.15
   8   8  11    7.95    3.49
   8  -8  11   13.43    3.27
 -14  -9  11   12.01    3.52
 -13  -9  11   18.25    3.17
 -12  -9  11   21.26    3.43
 -11  -9  11   25.10    3.48
 -10  -9  11    8.60    3.27
  -9  -9  11   19.41    3.54
  -8   9  11   34.63    4.67
  -8  -9  11   38.42    4.01
  -7   9  11    8.43    5.05
  -6   9  11   35.10    7.29
  -5   9  11   50.54    6.03
  -4  -9  11    2.40    2.69
  -3   9  11   28.97    6.00
  -3  -9  11   25.66    3.22
  -2   9  11   17.97    8.21
  -2  -9  11   15.42    3.02
  -1   9  11   54.50    6.00
  -1  -9  11   48.55    3.94
   0   9  11   21.66    8.33
   0  -9  11   19.21    3.20
   1   9  11   41.05    5.58
   1  -9  11   40.62    4.00
   2   9  11    6.55    4.40
   2  -9  11    6.98    2.90
   3   9  11   27.01    3.31
   3  -9  11   27.14    3.34
   4   9  11    9.74    4.89
   4  -9  11    9.18    3.16
   5   9  11   18.90    3.33
   5  -9  11   15.93    3.11
   6   9  11    9.92    5.99
   6  -9  11    7.79    3.00
   7   9  11   27.44    3.64
   7  -9  11   28.22    3.47
 -13 -10  11    2.01    3.11
 -12 -10  11   15.45    3.26
 -11 -10  11   -0.56    2.43
 -10 -10  11    0.79    3.22
  -9 -10  11   -1.70    3.21
  -7  10  11    4.72    2.74
  -6  10  11    6.70    3.07
  -5  10  11    9.48    2.97
  -5 -10  11    8.84    2.76
  -4  10  11    1.82    3.62
  -4 -10  11   -0.25    2.70
  -3  10  11    1.13    3.06
  -3 -10  11    4.30    3.19
  -2  10  11    5.14    2.82
  -2 -10  11    8.39    2.74
  -1  10  11   -0.65    2.77
  -1 -10  11    2.25    2.93
   0  10  11    2.53    2.80
   0 -10  11    3.47    2.78
   1  10  11   -1.85    2.55
   1 -10  11    0.37    2.73
   2  10  11   -1.06    2.83
   2 -10  11   -1.09    2.95
   3  10  11    3.60    2.84
   3 -10  11    6.65    3.02
   4  10  11    2.93    3.12
   4 -10  11    0.61    2.83
   5  10  11    2.32    3.18
   5 -10  11    1.28    3.41
 -11 -11  11    3.10    3.00
 -10 -11  11   -0.51    3.43
  -6  11  11    0.24    2.77
  -6 -11  11    0.89    2.49
  -5  11  11    5.26    2.52
  -5 -11  11    4.64    2.87
  -4  11  11    7.07    3.05
  -4 -11  11    6.21    3.13
  -3  11  11    0.01    2.65
  -3 -11  11    1.31    2.98
  -2  11  11    2.04    2.92
  -2 -11  11    4.86    2.86
  -1  11  11    7.21    3.15
  -1 -11  11    6.42    3.08
   0  11  11    2.81    2.93
   0 -11  11    1.43    2.84
   1  11  11    1.07    2.74
   1 -11  11    0.04    2.69
   2  11  11    1.00    3.11
   2 -11  11    0.35    3.08
   3  11  11    1.50    2.87
   3 -11  11    0.69    2.83
   4  11  11    0.82    2.76
   4 -11  11    1.95    2.99
  -7 -12  11   38.86    3.56
  -6 -12  11    5.36    2.82
  -5 -12  11    0.58    2.89
  -4  12  11   17.76    3.25
  -4 -12  11   21.39    3.38
  -3  12  11   11.67    7.19
  -3 -12  11   10.66    3.27
  -2  12  11   25.64    5.54
  -2 -12  11   27.80    3.52
  -1  12  11   15.05    5.34
  -1 -12  11   14.25    3.15
   0  12  11   19.09    7.21
   0 -12  11   21.90    3.33
   1  12  11   36.19    3.95
   1 -12  11   32.55    3.60
 -16   0  12   24.36    6.14
 -15   0  12   69.72    4.89
 -13   0  12  115.15    8.27
 -12   0  12   68.74    7.51
 -11   0  12   75.62    7.79
 -10   0  12   54.38   11.33
  -9   0  12  105.02    4.92
  -8   0  12    8.19    6.26
  -7   0  12   57.22    5.72
  -6   0  12   33.17    3.49
  -5   0  12   49.94    3.92
  -4   0  12   20.00    6.64
  -3   0  12  142.24    6.99
  -2   0  12   19.77    3.19
  -1   0  12  121.02    6.61
   0   0  12   21.71    3.35
   1   0  12   31.11    3.76
   2   0  12    7.26    3.09
   5   0  12   24.58    3.48
   6   0  12    1.65    3.10
   7   0  12    6.05    3.32
   8   0  12   -0.58    3.11
 -16  -1  12   80.98    4.32
 -14   1  12  114.85    5.37
 -14  -1  12  114.28    5.56
 -13   1  12   24.51    8.87
 -13  -1  12   23.64    8.41
 -12   1  12   70.30    5.67
 -12  -1  12   78.04    5.68
 -11   1  12   24.16    5.19
 -11  -1  12   20.93    8.49
 -10   1  12   42.32    5.87
 -10  -1  12   41.03    4.83
  -9   1  12   19.48    7.99
  -9  -1  12   20.58    5.07
  -8   1  12   54.05    8.10
  -8  -1  12   51.79    4.08
  -7   1  12   50.84    8.85
  -7  -1  12   53.14    4.74
  -6   1  12   67.62    4.08
  -6  -1  12   66.37    4.79
  -5   1  12   79.19    5.05
  -5  -1  12   75.44    4.88
  -4   1  12   18.72    3.21
  -4  -1  12   19.15    3.32
  -3   1  12   61.72    4.29
  -3  -1  12   61.35    4.21
  -2   1  12    9.98    2.87
  -2  -1  12    8.08    2.91
  -1   1  12   52.65    4.14
  -1  -1  12   55.06    4.24
   0   1  12   -0.21    2.97
   0  -1  12    3.54    2.88
   1   1  12   59.45    4.23
   1  -1  12   57.08    3.89
   2   1  12    4.26    2.76
   3   1  12   64.54    4.15
   4  -1  12    1.40    2.83
   5  -1  12   40.46    3.65
   6   1  12   -1.27    3.05
   6  -1  12   -1.37    2.95
   7   1  12   40.91    3.89
   7  -1  12   40.50    4.29
   8   1  12    0.41    3.13
   8  -1  12   -0.39    3.54
 -16  -2  12    0.30    2.65
 -15  -2  12    6.88    2.99
 -14   2  12    1.86    2.99
 -14  -2  12    3.87    3.31
 -13   2  12   11.22    2.98
 -13  -2  12   14.06    2.88
 -12  -2  12    0.77    4.01
 -11   2  12   24.04    3.33
 -11  -2  12   20.39    3.40
 -10   2  12    1.56    5.40
 -10  -2  12    1.28    4.84
  -9   2  12   20.47    3.43
  -9  -2  12   22.22    3.28
  -8   2  12    7.51    3.38
  -8  -2  12    7.47    3.42
  -7   2  12   39.01    3.78
  -7  -2  12   36.89    3.66
  -6  -2  12    1.43    2.66
  -5   2  12   17.01    3.03
  -5  -2  12   17.68    3.14
  -4   2  12   11.43    2.81
  -4  -2  12   11.60    3.17
  -3   2  12    2.87    2.56
  -3  -2  12    0.81    2.66
  -2   2  12    5.61    2.91
  -2  -2  12    3.55    2.60
  -1   2  12    9.49    3.00
  -1  -2  12   10.85    2.92
   0   2  12    1.02    2.85
   0  -2  12    0.07    2.78
   1   2  12   12.97    2.80
   2   2  12   10.88    3.08
   3   2  12    2.89    3.05
   3  -2  12    2.64    2.62
   4   2  12    4.11    3.03
   4  -2  12    1.15    2.67
   5  -2  12    2.31    2.96
   6  -2  12   -1.84    3.38
   7   2  12    5.17    3.25
   7  -2  12    6.89    3.55
   8   2  12   -0.82    2.93
   8  -2  12   -0.39    2.93
 -16  -3  12    0.99    2.91
 -15  -3  12    0.27    2.75
 -14  -3  12    8.17    2.87
 -13   3  12    0.53    2.54
 -13  -3  12    1.43    2.58
 -12   3  12   -1.22    2.67
 -12  -3  12   -1.56    2.32
 -11   3  12   -0.21    2.62
 -11  -3  12    0.44    2.89
 -10   3  12   -0.18    2.44
 -10  -3  12    0.24    2.63
  -9   3  12    0.52    2.34
  -9  -3  12    1.13    2.79
  -8   3  12    0.92    2.60
  -8  -3  12   -0.49    2.80
  -7   3  12    4.29    4.95
  -7  -3  12    7.14    2.92
  -6   3  12   15.07    2.93
  -6  -3  12   13.62    3.03
  -5   3  12    0.64    3.80
  -5  -3  12    3.66    2.71
  -4   3  12    6.22    2.99
  -4  -3  12    4.81    2.75
  -3   3  12    6.33    2.68
  -3  -3  12    7.22    2.82
  -2   3  12    4.42    2.48
  -2  -3  12    4.78    3.06
  -1   3  12    1.33    2.68
  -1  -3  12    7.36    2.79
   0   3  12    0.32    2.78
   1   3  12   -0.27    2.66
   2   3  12    5.79    2.87
   2  -3  12    6.83    2.99
   3   3  12    7.92    2.84
   3  -3  12    8.01    2.46
   4   3  12    1.41    2.93
   4  -3  12    1.00    2.74
   5   3  12    3.17    2.68
   5  -3  12    1.76    2.74
   6  -3  12   -0.31    2.96
   7  -3  12    1.05    3.31
 -15  -4  12    8.88    3.15
 -14  -4  12    3.21    2.71
 -13  -4  12   34.51    4.09
 -12   4  12   32.16    7.12
 -12  -4  12   31.61    3.47
 -11   4  12   38.75    4.25
 -11  -4  12   38.20    3.89
 -10   4  12    9.93    5.07
 -10  -4  12   12.87    3.02
  -9   4  12   19.40    5.94
  -9  -4  12   22.06    3.55
  -8   4  12   18.55    4.12
  -8  -4  12   17.33    3.27
  -7   4  12   12.08    3.10
  -7  -4  12   12.73    3.01
  -6   4  12    7.53    5.07
  -6  -4  12    6.34    2.66
  -5   4  12   16.23    4.03
  -5  -4  12   16.10    3.03
  -4   4  12   21.50    5.37
  -4  -4  12   21.30    3.31
  -3   4  12   22.25    4.76
  -3  -4  12   19.13    3.00
  -2   4  12   13.31    3.16
  -2  -4  12   19.26    3.36
  -1   4  12   35.17    3.41
   0   4  12    3.71    2.86
   1   4  12   24.87    3.53
   1  -4  12   28.50    3.30
   2   4  12   41.29    3.55
   2  -4  12   37.90    3.55
   3   4  12   -1.54    3.01
   3  -4  12    0.65    2.61
   4   4  12    7.46    3.10
   4  -4  12    8.82    3.06
   5   4  12    1.30    2.89
   5  -4  12    4.49    3.40
   6   4  12    2.11    3.21
   6  -4  12    0.75    3.56
   7  -4  12   15.62    4.02
 -15  -5  12    0.08    3.21
 -14  -5  12   50.39    4.11
 -13  -5  12    7.66    3.24
 -12  -5  12   79.74    4.48
 -11   5  12   15.17    7.26
 -11  -5  12   17.39    4.21
 -10   5  12   75.58    7.07
 -10  -5  12   72.62    5.61
  -9   5  12   32.17    8.24
  -9  -5  12   33.46    3.70
  -8   5  12   77.55    7.33
  -8  -5  12   80.58    4.46
  -7   5  12   40.98    8.53
  -7  -5  12   48.74    4.33
  -6   5  12   45.45    6.67
  -6  -5  12   45.53    3.68
  -5   5  12   45.48    6.23
  -5  -5  12   45.98    3.80
  -4   5  12   18.80    5.30
  -4  -5  12   19.37    3.36
  -3   5  12   29.05    3.36
  -3  -5  12   30.89    3.29
  -1   5  12   66.80    4.31
   0   5  12   24.70    7.18
   0  -5  12   25.26    3.36
   1   5  12  117.49    5.18
   1  -5  12  113.04    5.28
   2   5  12    5.65    3.75
   2  -5  12    3.27    2.79
   3   5  12   43.21    3.97
   3  -5  12   39.06    3.96
   4   5  12    6.90    2.81
   4  -5  12    7.03    2.92
   5   5  12   48.22    4.17
   5  -5  12   49.56    4.16
   6   5  12    1.37    3.37
   6  -5  12   -0.10    3.03
 -14  -6  12   37.71    3.90
 -13  -6  12   24.43    3.58
 -12  -6  12    5.17    3.40
 -11  -6  12   16.78    3.34
 -10   6  12   19.65    4.69
 -10  -6  12   21.39    3.56
  -9   6  12   43.68    5.32
  -9  -6  12   41.85    3.56
  -8  -6  12   10.16    3.23
  -7   6  12   96.46    7.93
  -7  -6  12  104.05    5.35
  -6   6  12   38.60    8.89
  -6  -6  12   43.47    4.10
  -5   6  12   45.32    7.69
  -5  -6  12   46.55    3.99
  -4   6  12   35.43    6.08
  -4  -6  12   38.07    3.65
  -3   6  12   21.15    3.67
  -2   6  12    9.33    3.56
  -1   6  12   20.14    4.95
  -1  -6  12   19.24    3.14
   0   6  12   18.25    4.28
   0  -6  12   19.94    3.45
   1   6  12   19.79    3.49
   1  -6  12   21.19    3.39
   2  -6  12    5.44    2.87
   3   6  12   37.49    3.66
   3  -6  12   42.08    4.02
   4   6  12    1.34    3.27
   4  -6  12    5.65    3.38
   5   6  12   19.95    3.23
   5  -6  12   18.14    3.43
   6   6  12    6.44    2.97
   6  -6  12    9.52    3.30
 -13  -7  12    1.76    3.08
 -12  -7  12   14.25    3.26
 -11  -7  12   12.90    2.99
 -10  -7  12   10.64    3.07
  -9   7  12   -0.22    3.28
  -9  -7  12    2.12    2.92
  -8   7  12    4.62    2.53
  -8  -7  12    5.13    3.09
  -7   7  12    0.69    3.27
  -7  -7  12    1.82    2.97
  -6   7  12    5.02    4.40
  -6  -7  12    4.93    3.04
  -5   7  12   18.29    3.94
  -5  -7  12   17.75    3.35
  -4   7  12    8.72    4.31
  -3   7  12   22.15    3.83
  -2   7  12    5.47    4.47
  -2  -7  12    7.12    2.97
  -1   7  12    4.69    2.78
  -1  -7  12    6.59    2.77
   0   7  12    2.62    2.95
   0  -7  12   -0.50    2.85
   1   7  12    1.57    2.60
   1  -7  12    1.02    2.96
   2   7  12   -2.36    3.00
   2  -7  12    1.05    2.92
   3   7  12    6.19    3.13
   3  -7  12    5.71    3.07
   4   7  12   -0.26    3.18
   4  -7  12    0.78    3.36
   5   7  12    8.86    3.27
   5  -7  12    6.92    2.94
 -12  -8  12    1.70    2.86
 -11  -8  12    0.69    2.78
 -10  -8  12   -0.60    2.97
  -9  -8  12   -0.31    2.98
  -8   8  12   -0.33    2.64
  -8  -8  12   -0.85    3.23
  -7   8  12    1.00    2.70
  -7  -8  12   -1.03    3.54
  -6   8  12   -0.23    2.84
  -6  -8  12    4.62    3.16
  -5   8  12    4.71    3.10
  -4   8  12    4.81    2.72
  -3   8  12    1.09    2.94
  -3  -8  12   -0.20    3.97
  -2   8  12   -0.37    2.78
  -2  -8  12    1.12    2.63
  -1   8  12    1.63    2.99
  -1  -8  12    0.62    2.60
   0   8  12    2.43    3.16
   0  -8  12    2.20    2.70
   1   8  12   -0.93    2.87
   1  -8  12   -0.35    2.90
   2   8  12   -2.93    2.76
   2  -8  12   -1.81    3.10
   3   8  12   -1.43    3.15
   3  -8  12   -0.61    2.94
   4   8  12    1.67    3.19
   4  -8  12    1.30    3.02
 -10  -9  12   19.93    3.48
  -9  -9  12    7.91    3.33
  -8  -9  12   26.25    3.46
  -7   9  12   12.37    7.16
  -7  -9  12   15.60    3.23
  -6   9  12   25.87    6.46
  -5   9  12   43.53    6.29
  -4   9  12   14.29    7.52
  -4  -9  12   16.64    3.42
  -3   9  12   46.17    3.88
  -3  -9  12   45.14    3.88
  -2  -9  12    3.72    3.08
  -1   9  12   22.39    3.23
  -1  -9  12   21.96    3.42
   0  -9  12    1.33    3.15
   1   9  12   33.65    3.69
   1  -9  12   29.25    3.83
   2   9  12    1.35    4.01
   2  -9  12    3.53    3.35
  -8 -10  12   22.78    3.35
  -6  10  12   41.89    8.53
  -5  10  12   52.50    6.93
  -5 -10  12   48.17    4.00
  -4 -10  12    6.71    3.01
  -3  10  12    7.74    4.18
  -3 -10  12    7.24    3.08
  -2  10  12   11.89    6.49
  -2 -10  12   10.84    3.21
  -1  10  12   21.45    3.54
  -1 -10  12   24.35    3.38
   0  10  12    7.82    4.48
   0 -10  12    8.15    3.09
 -13   0  13    0.04    2.98
 -12   0  13    0.71    3.19
 -11   0  13    0.36    2.88
 -10   0  13   -1.80    2.65
  -9   0  13   -1.44    2.63
  -8   0  13    0.10    2.56
  -7   0  13    2.22    2.79
  -6   0  13    0.42    2.97
  -5   0  13    1.45    2.65
  -4   0  13    0.23    2.73
  -3   0  13    0.45    2.72
  -2   0  13    1.00    2.29
  -1   0  13   -0.97    2.72
   0   0  13   -0.67    3.12
   1   0  13    0.15    2.80
   2   0  13   -0.67    3.09
 -13   1  13   18.58    4.46
 -13  -1  13   18.44    5.16
 -12   1  13   30.59    3.93
 -12  -1  13   27.82    3.47
 -11   1  13    9.78    3.15
 -11  -1  13    8.89    3.42
 -10   1  13    9.01    3.09
 -10  -1  13   10.57    3.02
  -9   1  13    4.28    4.17
  -9  -1  13    7.28    3.36
  -8   1  13    9.52    3.40
  -8  -1  13    9.57    2.98
  -7   1  13    1.91    3.62
  -7  -1  13    2.68    3.27
  -6   1  13   14.48    3.01
  -6  -1  13   12.27    3.13
  -5   1  13    2.35    2.98
  -5  -1  13   -0.23    2.88
  -4   1  13    0.69    2.70
  -4  -1  13   -0.64    2.51
  -3   1  13   12.89    2.97
  -3  -1  13   13.15    2.85
  -2   1  13    3.19    3.29
  -2  -1  13    3.99    2.97
  -1   1  13   18.45    3.28
  -1  -1  13   15.90    3.67
   0   1  13    3.97    2.99
   0  -1  13    0.67    3.04
   1   1  13    4.29    2.90
   1  -1  13    5.68    3.01
   2   1  13    5.94    3.19
   3   1  13    0.83    3.37
   4  -1  13    3.70    3.20
 -13   2  13   33.08    5.69
 -13  -2  13   31.20    6.21
 -12   2  13   49.47    4.31
 -12  -2  13   44.15    4.28
 -11   2  13   10.89    4.64
 -11  -2  13    9.84    3.18
 -10   2  13   11.00    4.63
 -10  -2  13   12.34    3.70
  -9   2  13   23.48    3.66
  -9  -2  13   20.92    3.53
  -8  -2  13    5.03    4.73
  -7   2  13   33.96    5.36
  -7  -2  13   32.88    3.60
  -6   2  13   19.38    3.40
  -6  -2  13   16.58    3.26
  -5   2  13   31.84    4.67
  -5  -2  13   33.00    3.55
  -4   2  13   19.81    5.78
  -4  -2  13   17.80    3.20
  -3   2  13   34.22    3.60
  -3  -2  13   30.29    3.80
  -2   2  13   11.88    3.13
  -2  -2  13   15.30    4.44
  -1   2  13   53.97    4.00
  -1  -2  13   49.33    4.22
   0   2  13    4.34    2.85
   0  -2  13    1.64    2.97
   1   2  13   33.38    3.55
   2   2  13    2.30    3.08
   3   2  13   54.93    4.20
   3  -2  13   48.58    3.90
 -12   3  13   22.49    3.56
 -12  -3  13   21.62    4.15
 -11   3  13   17.75    4.54
 -11  -3  13   15.88    6.93
 -10   3  13   42.18    4.93
 -10  -3  13   44.26    5.77
  -9   3  13   27.42    4.75
  -9  -3  13   28.77    4.01
  -8   3  13   24.14    5.40
  -8  -3  13   20.68    5.75
  -7   3  13   27.16    3.32
  -7  -3  13   27.01    3.87
  -6   3  13    5.58    5.13
  -6  -3  13    8.28    2.97
  -5   3  13   30.49    5.07
  -5  -3  13   32.66    3.35
  -4   3  13   20.48    3.28
  -4  -3  13   20.87    3.36
  -3   3  13   20.89    3.13
  -3  -3  13   22.06    3.50
  -2   3  13    4.84    3.11
  -2  -3  13    8.27    3.62
  -1   3  13   13.86    3.42
  -1  -3  13   11.02    3.26
   0   3  13   12.16    3.36
   1   3  13   13.38    3.16
   2   3  13   15.55    3.22
   2  -3  13   16.35    3.21
   3   3  13   20.56    3.56
   3  -3  13   21.37    3.44
 -12  -4  13   15.38    3.31
 -11   4  13   13.44    4.57
 -11  -4  13   14.47    3.89
 -10   4  13   18.98    3.89
 -10  -4  13   19.29    4.04
  -9   4  13   13.53    4.08
  -9  -4  13   13.64    3.76
  -8   4  13   17.34    3.53
  -8  -4  13   16.76    3.55
  -7   4  13   11.83    3.98
  -7  -4  13   16.48    3.64
  -6   4  13    8.40    6.54
  -6  -4  13    7.58    3.10
  -5   4  13   24.97    3.27
  -5  -4  13   24.52    3.47
  -4   4  13    2.11    2.83
  -4  -4  13    0.69    2.92
  -3   4  13   14.48    2.99
  -3  -4  13   12.66    3.84
  -2   4  13   -0.60    3.15
  -2  -4  13   -2.33    2.83
  -1   4  13   17.39    3.16
   0   4  13    4.26    3.81
   1   4  13   42.99    3.85
   1  -4  13   45.03    3.91
   2   4  13   -0.06    3.07
   2  -4  13    0.18    3.44
 -11  -5  13    0.41    2.96
 -10   5  13    1.22    2.50
 -10  -5  13    0.56    2.98
  -9   5  13    1.66    2.88
  -9  -5  13    2.54    3.23
  -8   5  13    0.35    2.75
  -8  -5  13   -1.29    3.07
  -7   5  13    6.33    3.60
  -7  -5  13    7.92    3.27
  -6   5  13    7.44    2.88
  -6  -5  13    8.25    4.04
  -5   5  13    0.49    3.51
  -5  -5  13    0.87    3.01
  -4   5  13    8.09    2.89
  -4  -5  13    5.70    3.22
  -3   5  13    2.80    3.30
  -3  -5  13    0.74    3.30
  -2   5  13    3.46    2.97
  -1   5  13    6.30    2.96
   0   5  13   -0.11    3.05
   0  -5  13    4.18    2.92
   1   5  13    4.42    2.84
   1  -5  13    8.37    3.00
   2   5  13    2.66    2.97
   2  -5  13    3.48    3.39
  -9   6  13    6.19    3.24
  -9  -6  13    4.31    3.15
  -8   6  13    5.70    3.54
  -8  -6  13    4.00    3.03
  -7   6  13    0.26    4.13
  -7  -6  13   -0.46    3.40
  -6   6  13   10.47    3.40
  -6  -6  13    7.33    3.40
  -5   6  13   10.03    3.00
  -5  -6  13   11.31    3.21
  -4   6  13    0.28    2.81
  -4  -6  13   -2.30    3.50
  -3   6  13   -0.43    3.15
  -2   6  13    1.09    2.95
  -1   6  13   -1.84    3.03
  -1  -6  13    3.30    3.33
   0   6  13    0.61    3.19
   0  -6  13    0.72    3.20
  -7   7  13    6.57    4.33
  -7  -7  13    7.48    4.74
  -6   7  13   14.93    3.67
  -6  -7  13   15.53    3.53
  -5   7  13    7.65    5.69
  -5  -7  13    3.19    3.22
  -4   7  13   23.67    4.62
  -3   7  13    8.61    5.10
  -2   7  13   14.91    3.33
  -2  -7  13   16.71    3.23
   0   0   0    0.00    0.00
;
_shelx_hkl_checksum              76338
loop_
_space_group_symop_operation_xyz
'x, y, z'
'-x, y+1/2, -z+1/2'
'-x, -y, -z'
'x, -y-1/2, z-1/2'
loop_
_atom_site_label
_atom_site_type_symbol
_atom_site_fract_x
_atom_site_fract_y
_atom_site_fract_z
_atom_site_U_iso_or_equiv
_atom_site_adp_type
_atom_site_occupancy
_atom_site_site_symmetry_order
_atom_site_calc_flag
_atom_site_refinement_flags_posn
_atom_site_refinement_flags_adp
_atom_site_refinement_flags_occupancy
Zn1 Zn 0.01063(2) 0.65856(3) 0.04794(4) 0.01814(16) Uani 1 1 d . . .
Zn2 Zn -0.50095(2) 0.65312(2) 0.01872(4) 0.01645(16) Uani 1 1 d . . .
C11 C 0.02362(19) 0.7772(2) 0.2855(4) 0.0194(8) Uani 1 1 d . . .
N11 N 0.02197(17) 0.7639(2) 0.4071(3) 0.0238(7) Uani 1 1 d . . .
C12 C 0.0215(2) 0.8585(2) 0.2217(4) 0.0226(9) Uani 1 1 d . . .
H12A H -0.0069 0.8955 0.2617 0.027 Uiso 1 1 calc R U .
H12B H -0.0020 0.8521 0.1336 0.027 Uiso 1 1 calc R U .
N12 N 0.0229(2) 0.6818(2) 0.4232(4) 0.0325(9) Uani 1 1 d . . .
C13 C 0.1459(2) 0.8550(3) 0.1989(6) 0.0391(13) Uani 1 1 d . . .
H13A H 0.1418 0.7986 0.1862 0.047 Uiso 1 1 calc R U .
N13 N 0.0240(2) 0.6463(2) 0.3149(4) 0.0311(9) Uani 1 1 d . . .
C14 C 0.2077(2) 0.8939(3) 0.1911(5) 0.0404(12) Uani 1 1 d . . .
H14A H 0.2454 0.8632 0.1745 0.048 Uiso 1 1 calc R U .
N14 N 0.02418(17) 0.7052(2) 0.2254(3) 0.0226(7) Uani 1 1 d . . .
C15 C 0.2152(2) 0.9783(2) 0.2073(4) 0.0242(9) Uani 1 1 d . . .
N15 N 0.49797(17) 1.22724(18) 0.3294(3) 0.0205(7) Uani 1 1 d . . .
C16 C 0.1577(2) 1.0208(2) 0.2358(5) 0.0305(10) Uani 1 1 d . . .
H16A H 0.1606 1.0772 0.2490 0.037 Uiso 1 1 calc R U .
N16 N 0.52224(19) 1.3042(2) 0.3564(3) 0.0296(8) Uani 1 1 d . . .
C17 C 0.0969(2) 0.9796(2) 0.2445(4) 0.0305(10) Uani 1 1 d . . .
H17A H 0.0591 1.0085 0.2642 0.037 Uiso 1 1 calc R U .
N17 N 0.5264(2) 1.3413(2) 0.2510(4) 0.0310(9) Uani 1 1 d . . .
C18 C 0.2815(2) 1.0223(2) 0.1947(4) 0.0229(8) Uani 1 1 d . . .
N18 N 0.50443(17) 1.28922(19) 0.1525(3) 0.0213(7) Uani 1 1 d . . .
C19 C 0.3453(2) 0.9812(2) 0.2075(4) 0.0264(9) Uani 1 1 d . . .
H19A H 0.3481 0.9256 0.2279 0.032 Uiso 1 1 calc R U .
N19 N 0.09130(17) 0.89763(19) 0.2247(3) 0.0219(7) Uani 1 1 d . . .
C21 C -0.20042(19) 0.4613(2) -0.0658(4) 0.0225(8) Uani 1 1 d . . .
O21 O -0.08095(14) 0.61012(18) 0.0512(3) 0.0305(7) Uani 1 1 d . . .
C22 C -0.2678(2) 0.4307(2) -0.0685(4) 0.0245(9) Uani 1 1 d . . .
H22A H -0.2766 0.3751 -0.0833 0.029 Uiso 1 1 calc R U .
O22 O -0.10026(17) 0.5908(2) -0.1566(3) 0.0466(9) Uani 1 1 d . . .
C23 C -0.32242(19) 0.4821(2) -0.0492(4) 0.0205(8) Uani 1 1 d . . .
O23 O -0.35537(15) 0.69669(17) 0.0088(3) 0.0340(7) Uani 1 1 d . . .
C24 C -0.30835(19) 0.5652(2) -0.0231(4) 0.0191(8) Uani 1 1 d . . .
O24 O -0.41815(14) 0.58570(17) 0.0328(3) 0.0259(6) Uani 1 1 d . . .
C25 C -0.24103(19) 0.5962(2) -0.0238(4) 0.0224(8) Uani 1 1 d . . .
H25A H -0.2322 0.6519 -0.0098 0.027 Uiso 1 1 calc R U .
O25 O -0.43799(15) 0.45716(19) -0.1644(3) 0.0330(7) Uani 1 1 d . . .
C26 C -0.18726(19) 0.5449(2) -0.0452(4) 0.0204(8) Uani 1 1 d . . .
O26 O -0.40494(14) 0.39477(17) 0.0213(3) 0.0272(7) Uani 1 1 d . . .
C27 C -0.1431(2) 0.4017(2) -0.0791(4) 0.0271(9) Uani 1 1 d . . .
O27 O -0.15801(19) 0.3343(2) -0.1268(5) 0.0736(16) Uani 1 1 d . . .
C28 C -0.3946(2) 0.4442(2) -0.0659(4) 0.0225(9) Uani 1 1 d . . .
O28 O -0.08056(14) 0.42459(18) -0.0347(3) 0.0324(7) Uani 1 1 d . . .
C29 C -0.36405(19) 0.6217(2) 0.0067(4) 0.0207(8) Uani 1 1 d . . .
C110 C 0.4042(2) 1.0224(2) 0.1901(4) 0.0254(9) Uani 1 1 d . . .
H11A H 0.4467 0.9944 0.1989 0.031 Uiso 1 1 calc R U .
N110 N 0.40156(16) 1.10276(18) 0.1603(3) 0.0198(7) Uani 1 1 d . . .
C111 C 0.3414(2) 1.1448(2) 0.1531(5) 0.0310(10) Uani 1 1 d . . .
H11B H 0.3402 1.2007 0.1346 0.037 Uiso 1 1 calc R U .
C112 C 0.2815(2) 1.1061(3) 0.1729(5) 0.0340(10) Uani 1 1 d . . .
H11C H 0.2407 1.1364 0.1715 0.041 Uiso 1 1 calc R U .
C113 C 0.4640(2) 1.1441(2) 0.1269(4) 0.0225(9) Uani 1 1 d . . .
H11D H 0.4531 1.1588 0.0375 0.027 Uiso 1 1 calc R U .
H11E H 0.5028 1.1054 0.1389 0.027 Uiso 1 1 calc R U .
C114 C 0.48710(19) 1.2198(2) 0.2034(4) 0.0183(8) Uani 1 1 d . . .
C210 C -0.1166(2) 0.5833(2) -0.0517(4) 0.0248(9) Uani 1 1 d . . .
O1W O -0.3904(3) 0.5367(3) -0.3684(5) 0.1015(18) Uani 1 1 d . . .
O2W O -0.1254(3) 0.8022(4) 0.0247(6) 0.1029(18) Uani 1 1 d . . .
O3W O -0.1617(3) 0.7643(3) -0.2410(6) 0.110(2) Uani 1 1 d . . .
O4W O -0.3072(4) 0.8180(4) 0.1848(6) 0.123(2) Uani 1 1 d . . .
O5WB O -0.1896(8) 0.5662(10) -0.3887(12) 0.129(4) Uani 0.5 1 d . . P
O6W O -0.3700(6) 0.3789(7) -0.4298(12) 0.106(4) Uani 0.5 1 d . . P
O5WA O -0.1372(8) 0.5169(10) -0.3901(13) 0.129(4) Uani 0.5 1 d . . P
O7W O -0.3268(7) 0.2622(8) 0.2015(19) 0.164(7) Uani 0.5 1 d . . P
loop_
_atom_site_aniso_label
_atom_site_aniso_U_11
_atom_site_aniso_U_22
_atom_site_aniso_U_33
_atom_site_aniso_U_23
_atom_site_aniso_U_13
_atom_site_aniso_U_12
Zn1 0.0177(3) 0.0190(3) 0.0191(3) -0.00032(16) 0.00671(18) -0.00142(16)
Zn2 0.0171(3) 0.0166(3) 0.0169(3) -0.00086(16) 0.00669(18) -0.00056(16)
C11 0.0147(18) 0.025(2) 0.020(2) -0.0033(15) 0.0071(15) -0.0027(15)
N11 0.0265(18) 0.0256(18) 0.0225(18) -0.0039(14) 0.0123(14) -0.0029(14)
C12 0.018(2) 0.023(2) 0.028(2) -0.0029(16) 0.0082(17) -0.0035(16)
N12 0.048(2) 0.0239(18) 0.029(2) 0.0003(16) 0.0168(18) 0.0000(17)
C13 0.029(2) 0.020(2) 0.073(4) -0.008(2) 0.022(2) -0.0021(18)
N13 0.046(2) 0.0250(19) 0.024(2) -0.0042(15) 0.0106(17) -0.0038(16)
C14 0.027(2) 0.024(2) 0.075(4) -0.002(2) 0.024(2) -0.0025(19)
N14 0.0262(17) 0.0239(17) 0.0191(18) -0.0011(14) 0.0082(14) -0.0051(14)
C15 0.024(2) 0.022(2) 0.027(2) -0.0005(16) 0.0056(16) -0.0049(17)
N15 0.0258(17) 0.0175(16) 0.0192(17) 0.0018(13) 0.0068(14) -0.0032(13)
C16 0.030(2) 0.020(2) 0.044(3) -0.0066(18) 0.013(2) -0.0049(18)
N16 0.044(2) 0.0254(18) 0.0201(19) -0.0003(15) 0.0076(16) -0.0105(16)
C17 0.029(2) 0.022(2) 0.044(3) -0.0054(18) 0.014(2) -0.0003(18)
N17 0.048(2) 0.0232(19) 0.022(2) -0.0020(14) 0.0081(17) -0.0125(16)
C18 0.022(2) 0.0219(19) 0.025(2) 0.0018(16) 0.0048(16) -0.0050(16)
N18 0.0272(17) 0.0189(16) 0.0191(17) 0.0011(13) 0.0078(14) -0.0068(14)
C19 0.026(2) 0.0156(19) 0.037(2) 0.0053(16) 0.0055(18) -0.0047(16)
N19 0.0227(17) 0.0194(16) 0.0257(18) -0.0040(13) 0.0100(14) -0.0045(13)
C21 0.0168(18) 0.025(2) 0.026(2) -0.0011(16) 0.0054(15) -0.0008(16)
O21 0.0192(14) 0.0354(17) 0.0367(18) -0.0056(14) 0.0054(13) -0.0092(13)
C22 0.0198(19) 0.020(2) 0.035(2) -0.0039(17) 0.0092(17) 0.0004(16)
O22 0.0357(18) 0.079(3) 0.0298(19) 0.0036(17) 0.0165(15) -0.0230(18)
C23 0.0165(19) 0.024(2) 0.022(2) 0.0035(16) 0.0051(15) -0.0001(15)
O23 0.0294(16) 0.0179(15) 0.056(2) -0.0032(14) 0.0118(14) -0.0007(12)
C24 0.0145(18) 0.0229(19) 0.020(2) 0.0016(15) 0.0037(15) -0.0003(15)
O24 0.0192(14) 0.0257(14) 0.0359(17) 0.0028(12) 0.0127(12) 0.0022(12)
C25 0.0192(19) 0.0192(19) 0.029(2) -0.0003(16) 0.0058(16) -0.0017(15)
O25 0.0231(15) 0.0395(18) 0.0332(18) 0.0017(14) -0.0022(13) -0.0042(13)
C26 0.0136(17) 0.025(2) 0.023(2) 0.0020(16) 0.0056(15) -0.0015(15)
O26 0.0209(14) 0.0310(16) 0.0303(17) 0.0047(13) 0.0065(12) -0.0068(12)
C27 0.020(2) 0.025(2) 0.039(3) -0.0022(18) 0.0128(18) -0.0006(17)
O27 0.030(2) 0.046(2) 0.147(5) -0.050(3) 0.022(2) -0.0027(17)
C28 0.0182(19) 0.0171(19) 0.033(2) -0.0038(16) 0.0086(17) -0.0010(15)
O28 0.0179(14) 0.0315(16) 0.047(2) -0.0085(14) 0.0058(13) 0.0056(12)
C29 0.0190(19) 0.024(2) 0.019(2) 0.0011(16) 0.0027(15) 0.0007(16)
C110 0.0200(19) 0.023(2) 0.033(2) 0.0012(17) 0.0033(17) -0.0001(16)
N110 0.0199(16) 0.0183(16) 0.0206(18) 0.0003(13) 0.0030(13) -0.0051(13)
C111 0.027(2) 0.019(2) 0.047(3) 0.0101(18) 0.008(2) 0.0010(17)
C112 0.024(2) 0.025(2) 0.054(3) 0.004(2) 0.009(2) -0.0002(18)
C113 0.023(2) 0.023(2) 0.023(2) 0.0001(16) 0.0095(17) -0.0056(16)
C114 0.0144(17) 0.0192(18) 0.022(2) 0.0024(15) 0.0045(15) -0.0008(15)
C210 0.0177(19) 0.021(2) 0.036(3) 0.0045(17) 0.0071(18) 0.0013(16)
O1W 0.156(5) 0.094(4) 0.054(3) 0.023(3) 0.020(3) 0.005(4)
O2W 0.080(4) 0.134(5) 0.092(4) 0.021(4) 0.009(3) -0.006(4)
O3W 0.126(5) 0.102(4) 0.096(4) -0.015(3) 0.009(4) 0.055(4)
O4W 0.150(6) 0.101(4) 0.101(5) -0.053(4) -0.016(4) 0.002(4)
O5WB 0.131(10) 0.164(11) 0.078(6) -0.024(7) -0.017(7) -0.014(7)
O6W 0.112(9) 0.091(8) 0.095(9) -0.014(7) -0.026(7) 0.011(7)
O5WA 0.131(10) 0.164(11) 0.078(6) -0.024(7) -0.017(7) -0.014(7)
O7W 0.075(8) 0.092(9) 0.30(2) -0.058(12) -0.017(10) 0.009(7)
loop_
_atom_type_symbol
_atom_type_description
_atom_type_scat_dispersion_real
_atom_type_scat_dispersion_imag
_atom_type_scat_source
C C 0.0033 0.0016 'International Tables Vol C Tables 4.2.6.8 and 6.1.1.4'
H H 0.0000 0.0000 'International Tables Vol C Tables 4.2.6.8 and 6.1.1.4'
N N 0.0061 0.0033 'International Tables Vol C Tables 4.2.6.8 and 6.1.1.4'
O O 0.0106 0.0060 'International Tables Vol C Tables 4.2.6.8 and 6.1.1.4'
Zn Zn 0.2839 1.4301 'International Tables Vol C Tables 4.2.6.8 and 6.1.1.4'
loop_
_geom_angle_atom_site_label_1
_geom_angle_atom_site_label_2
_geom_angle_atom_site_label_3
_geom_angle
_geom_angle_site_symmetry_1
_geom_angle_site_symmetry_3
O28 Zn1 O21 111.76(13) 3_565 .
O28 Zn1 N11 101.62(13) 3_565 4_575
O21 Zn1 N11 120.13(13) . 4_575
O28 Zn1 N14 111.63(13) 3_565 .
O21 Zn1 N14 94.87(13) . .
N11 Zn1 N14 117.28(13) 4_575 .
O24 Zn2 O26 121.18(12) . 3_465
O24 Zn2 N15 112.76(13) . 2_545
O26 Zn2 N15 107.03(13) 3_465 2_545
O24 Zn2 N18 102.17(13) . 3_575
O26 Zn2 N18 97.00(12) 3_465 3_575
N15 Zn2 N18 116.04(13) 2_545 3_575
N11 C11 N14 109.5(3) . .
N11 C11 C12 126.3(3) . .
N14 C11 C12 124.1(4) . .
C11 N11 N12 106.5(3) . .
C11 N11 Zn1 131.4(3) . 4_576
N12 N11 Zn1 121.8(3) . 4_576
C11 C12 N19 115.3(3) . .
C11 C12 H12A 108.4 . .
N19 C12 H12A 108.4 . .
C11 C12 H12B 108.4 . .
N19 C12 H12B 108.4 . .
H12A C12 H12B 107.5 . .
N13 N12 N11 109.2(3) . .
N19 C13 C14 120.6(4) . .
N19 C13 H13A 119.7 . .
C14 C13 H13A 119.7 . .
N12 N13 N14 108.7(3) . .
C13 C14 C15 121.2(4) . .
C13 C14 H14A 119.4 . .
C15 C14 H14A 119.4 . .
C11 N14 N13 106.1(3) . .
C11 N14 Zn1 140.5(3) . .
N13 N14 Zn1 112.5(2) . .
C14 C15 C16 116.8(4) . .
C14 C15 C18 122.0(4) . .
C16 C15 C18 121.2(4) . .
C114 N15 N16 106.3(3) . .
C114 N15 Zn2 137.6(3) . 2
N16 N15 Zn2 115.4(2) . 2
C17 C16 C15 120.3(4) . .
C17 C16 H16A 119.8 . .
C15 C16 H16A 119.8 . .
N17 N16 N15 108.9(3) . .
N19 C17 C16 120.9(4) . .
N19 C17 H17A 119.5 . .
C16 C17 H17A 119.5 . .
N16 N17 N18 108.8(3) . .
C19 C18 C112 117.5(4) . .
C19 C18 C15 121.6(4) . .
C112 C18 C15 120.9(4) . .
C114 N18 N17 106.2(3) . .
C114 N18 Zn2 142.3(3) . 3_575
N17 N18 Zn2 111.1(2) . 3_575
C110 C19 C18 120.1(4) . .
C110 C19 H19A 119.9 . .
C18 C19 H19A 119.9 . .
C13 N19 C17 120.1(3) . .
C13 N19 C12 121.7(3) . .
C17 N19 C12 118.0(3) . .
C22 C21 C26 119.5(3) . .
C22 C21 C27 118.4(3) . .
C26 C21 C27 122.0(3) . .
C210 O21 Zn1 117.9(3) . .
C21 C22 C23 121.2(4) . .
C21 C22 H22A 119.4 . .
C23 C22 H22A 119.4 . .
C22 C23 C24 119.1(3) . .
C22 C23 C28 116.7(3) . .
C24 C23 C28 124.1(3) . .
C23 C24 C25 119.5(3) . .
C23 C24 C29 121.1(3) . .
C25 C24 C29 119.4(3) . .
C29 O24 Zn2 115.3(2) . .
C26 C25 C24 121.0(4) . .
C26 C25 H25A 119.5 . .
C24 C25 H25A 119.5 . .
C25 C26 C21 119.5(3) . .
C25 C26 C210 118.2(3) . .
C21 C26 C210 122.2(3) . .
C28 O26 Zn2 111.4(2) . 3_465
O27 C27 O28 123.5(4) . .
O27 C27 C21 120.1(4) . .
O28 C27 C21 116.4(4) . .
O25 C28 O26 123.7(4) . .
O25 C28 C23 119.5(4) . .
O26 C28 C23 116.5(3) . .
C27 O28 Zn1 113.4(3) . 3_565
O23 C29 O24 124.4(3) . .
O23 C29 C24 120.7(3) . .
O24 C29 C24 114.9(3) . .
N110 C110 C19 121.1(4) . .
N110 C110 H11A 119.5 . .
C19 C110 H11A 119.5 . .
C111 N110 C110 120.1(3) . .
C111 N110 C113 119.6(3) . .
C110 N110 C113 120.1(3) . .
N110 C111 C112 120.6(4) . .
N110 C111 H11B 119.7 . .
C112 C111 H11B 119.7 . .
C111 C112 C18 120.4(4) . .
C111 C112 H11C 119.8 . .
C18 C112 H11C 119.8 . .
N110 C113 C114 114.1(3) . .
N110 C113 H11D 108.7 . .
C114 C113 H11D 108.7 . .
N110 C113 H11E 108.7 . .
C114 C113 H11E 108.7 . .
H11D C113 H11E 107.6 . .
N18 C114 N15 109.8(3) . .
N18 C114 C113 123.2(4) . .
N15 C114 C113 126.9(3) . .
O22 C210 O21 124.8(4) . .
O22 C210 C26 118.5(4) . .
O21 C210 C26 116.5(4) . .
loop_
_geom_bond_atom_site_label_1
_geom_bond_atom_site_label_2
_geom_bond_distance
_geom_bond_site_symmetry_2
Zn1 O28 1.940(3) 3_565
Zn1 O21 1.948(3) .
Zn1 N11 2.013(3) 4_575
Zn1 N14 2.016(3) .
Zn2 O24 1.925(3) .
Zn2 O26 1.952(3) 3_465
Zn2 N15 2.018(3) 2_545
Zn2 N18 2.051(3) 3_575
C11 N11 1.328(5) .
C11 N14 1.338(5) .
C11 C12 1.487(5) .
N11 N12 1.347(5) .
N11 Zn1 2.013(3) 4_576
C12 N19 1.489(5) .
C12 H12A 0.9700 .
C12 H12B 0.9700 .
N12 N13 1.300(5) .
C13 N19 1.338(5) .
C13 C14 1.373(6) .
C13 H13A 0.9300 .
N13 N14 1.357(5) .
C14 C15 1.389(6) .
C14 H14A 0.9300 .
C15 C16 1.394(6) .
C15 C18 1.500(5) .
N15 C114 1.331(5) .
N15 N16 1.349(4) .
N15 Zn2 2.018(3) 2
C16 C17 1.375(6) .
C16 H16A 0.9300 .
N16 N17 1.298(5) .
C17 N19 1.352(5) .
C17 H17A 0.9300 .
N17 N18 1.355(5) .
C18 C19 1.389(5) .
C18 C112 1.385(6) .
N18 C114 1.326(5) .
N18 Zn2 2.051(3) 3_575
C19 C110 1.367(5) .
C19 H19A 0.9300 .
C21 C22 1.393(5) .
C21 C26 1.395(5) .
C21 C27 1.502(5) .
O21 C210 1.258(5) .
C22 C23 1.395(5) .
C22 H22A 0.9300 .
O22 C210 1.233(5) .
C23 C24 1.397(5) .
C23 C28 1.506(5) .
O23 C29 1.232(5) .
C24 C25 1.400(5) .
C24 C29 1.500(5) .
O24 C29 1.279(5) .
C25 C26 1.389(5) .
C25 H25A 0.9300 .
O25 C28 1.232(5) .
C26 C210 1.520(5) .
O26 C28 1.279(5) .
O26 Zn2 1.952(3) 3_465
C27 O27 1.220(5) .
C27 O28 1.268(5) .
O28 Zn1 1.940(3) 3_565
C110 N110 1.345(5) .
C110 H11A 0.9300 .
N110 C111 1.340(5) .
N110 C113 1.488(5) .
C111 C112 1.374(6) .
C111 H11B 0.9300 .
C112 H11C 0.9300 .
C113 C114 1.499(5) .
C113 H11D 0.9700 .
C113 H11E 0.9700 .
O5WB O5WA 1.298(18) .
