#------------------------------------------------------------------------------
#$Date: 2019-11-23 07:45:00 +0200 (Sat, 23 Nov 2019) $
#$Revision: 232466 $
#$URL: file:///home/coder/svn-repositories/cod/cif/4/34/77/4347719.cif $
#------------------------------------------------------------------------------
#
# This file is available in the Crystallography Open Database (COD),
# http://www.crystallography.net/
#
# All data on this site have been placed in the public domain by the
# contributors.
#
data_4347719
loop_
_publ_author_name
'Aboutorabi, Leila'
'Morsali, Ali'
'Tahmasebi, Elham'
'B\"uy\"ukg\"ungor, Orhan'
_publ_section_title
;
 Metal-Organic Framework Based on Isonicotinate N-Oxide for Fast and
 Highly Efficient Aqueous Phase Cr(VI) Adsorption.
;
_journal_issue                   11
_journal_name_full               'Inorganic chemistry'
_journal_page_first              5507
_journal_page_last               5513
_journal_paper_doi               10.1021/acs.inorgchem.6b00522
_journal_volume                  55
_journal_year                    2016
_chemical_formula_moiety         '2(C12 H8 N2 O6 Pb), C2 H4 N O'
_chemical_formula_sum            'C26 H20 N5 O13 Pb2'
_chemical_formula_weight         1024.85
_space_group_crystal_system      monoclinic
_space_group_IT_number           15
_space_group_name_Hall           '-C 2yc'
_space_group_name_H-M_alt        'C 1 2/c 1'
_atom_sites_solution_hydrogens   geom
_audit_creation_method           SHELXL-2013
_cell_angle_alpha                90
_cell_angle_beta                 137.543(6)
_cell_angle_gamma                90
_cell_formula_units_Z            4
_cell_length_a                   27.722(3)
_cell_length_b                   7.3936(6)
_cell_length_c                   21.633(2)
_cell_measurement_reflns_used    8233
_cell_measurement_temperature    296
_cell_measurement_theta_max      28.05
_cell_measurement_theta_min      1.89
_cell_volume                     2993.1(6)
_computing_cell_refinement       X-AREA
_computing_data_collection       'X-AREA (Stoe & Cie, 2002)'
_computing_data_reduction        'X-RED32 (Stoe & Cie, 2002)'
_computing_molecular_graphics    'ORTEP-3 for Windows (Farrugia, 1997)'
_computing_publication_material  'WinGX (Farrugia, 1999)'
_computing_structure_refinement  'SHELXL-97 (Sheldrick, 1997)'
_computing_structure_solution    'SHELXS97 (Sheldrick, 2008)'
_diffrn_ambient_temperature      296
_diffrn_measured_fraction_theta_full 0.998
_diffrn_measured_fraction_theta_max 0.998
_diffrn_measurement_device_type  'STOE IPDS 2'
_diffrn_measurement_method       'w scan,rotation method'
_diffrn_radiation_type           MoK\a
_diffrn_radiation_wavelength     0.71073
_diffrn_reflns_av_R_equivalents  0.1046
_diffrn_reflns_av_unetI/netI     0.0741
_diffrn_reflns_Laue_measured_fraction_full 0.998
_diffrn_reflns_Laue_measured_fraction_max 0.998
_diffrn_reflns_limit_h_max       34
_diffrn_reflns_limit_h_min       -25
_diffrn_reflns_limit_k_max       8
_diffrn_reflns_limit_k_min       -9
_diffrn_reflns_limit_l_max       26
_diffrn_reflns_limit_l_min       -26
_diffrn_reflns_number            8233
_diffrn_reflns_point_group_measured_fraction_full 0.998
_diffrn_reflns_point_group_measured_fraction_max 0.998
_diffrn_reflns_theta_full        25.242
_diffrn_reflns_theta_max         26.491
_diffrn_reflns_theta_min         1.887
_exptl_absorpt_coefficient_mu    11.311
_exptl_absorpt_correction_T_max  0.4228
_exptl_absorpt_correction_T_min  0.0403
_exptl_absorpt_correction_type   integration
_exptl_absorpt_process_details   '(X-RED32; Stoe & Cie, 2002)'
_exptl_crystal_colour            colorless
_exptl_crystal_density_diffrn    2.274
_exptl_crystal_description       prism
_exptl_crystal_F_000             1916
_exptl_crystal_size_max          0.61
_exptl_crystal_size_mid          0.34
_exptl_crystal_size_min          0.08
_refine_diff_density_max         2.764
_refine_diff_density_min         -3.628
_refine_diff_density_rms         0.290
_refine_ls_extinction_method     none
_refine_ls_goodness_of_fit_ref   1.036
_refine_ls_hydrogen_treatment    constr
_refine_ls_matrix_type           full
_refine_ls_number_parameters     217
_refine_ls_number_reflns         3084
_refine_ls_number_restraints     21
_refine_ls_restrained_S_all      1.035
_refine_ls_R_factor_all          0.0663
_refine_ls_R_factor_gt           0.0528
_refine_ls_shift/su_max          0.001
_refine_ls_shift/su_mean         0.000
_refine_ls_structure_factor_coef Fsqd
_refine_ls_weighting_details
'w=1/[\s^2^(Fo^2^)+(0.0746P)^2^] where P=(Fo^2^+2Fc^2^)/3'
_refine_ls_weighting_scheme      calc
_refine_ls_wR_factor_gt          0.1206
_refine_ls_wR_factor_ref         0.1272
_reflns_Friedel_coverage         0.000
_reflns_number_gt                2541
_reflns_number_total             3084
_reflns_threshold_expression     'I > 2\s(I)'
_cod_data_source_file            ic6b00522_si_002.cif
_cod_data_source_block           shelx
_cod_original_cell_volume        2993.0(5)
_cod_original_sg_symbol_H-M      'C 2/c'
_cod_database_code               4347719
_shelx_space_group_comment
;
The symmetry employed for this shelxl refinement is uniquely defined
by the following loop, which should always be used as a source of
symmetry information in preference to the above space-group names.
They are only intended as comments.
;
_shelxl_version_number           2013-4
_shelx_res_file
;
TITL TEST STRUCTURE D:\DATA\MORSALI15_DENE\MORSALI15
CELL  0.71073  27.7215   7.3936  21.6326   90.000  137.543   90.000
ZERR     4.00   0.0029   0.0006   0.0021    0.000    0.006    0.000
LATT   7
SYMM  - X,   Y, 1/2 - Z
SFAC  C    H    N    O    PB
UNIT  104  80   20   52   8
MERG   2
OMIT    -4.00  53.00
DFIX     1.200   0.020 C14 O7
DFIX     1.470   0.020 N3 C14
DFIX     1.470   0.020 N3 C13
ISOR     0.010 C13 O7 C14 N3
FMAP   2
PLAN    5
ACTA
BOND
BOND   $H
CONF
L.S.  10
WGHT    0.074600
FVAR       0.12465
MOLE    1
C1    1    0.389306    0.854851    0.376713    11.00000    0.02200    0.03583 =
         0.02523   -0.00573    0.01468    0.00127
C2    1    0.461362    0.778568    0.460820    11.00000    0.02154    0.02977 =
         0.02446    0.00027    0.01341    0.00189
C3    1    0.476236    0.705713    0.533041    11.00000    0.03175    0.04782 =
         0.04202   -0.00097    0.02832   -0.00340
AFIX  43
H3    2    0.439402    0.688237    0.526454    11.00000   -1.20000
AFIX   0
C4    1    0.544876    0.659827    0.613606    11.00000    0.04035    0.03895 =
         0.04005    0.00700    0.03071    0.00555
AFIX  43
H4    2    0.555031    0.614941    0.662395    11.00000   -1.20000
AFIX   0
C5    1    0.584046    0.732620    0.550406    11.00000    0.02730    0.04194 =
         0.03999   -0.00014    0.02345    0.00127
AFIX  43
H5    2    0.620836    0.733986    0.556289    11.00000   -1.20000
AFIX   0
C6    1    0.515878    0.784133    0.469211    11.00000    0.03105    0.05650 =
         0.02979   -0.00137    0.02097   -0.00239
AFIX  43
H6    2    0.506610    0.822460    0.420294    11.00000   -1.20000
AFIX   0
C7    1    0.219715    1.033998    0.040430    11.00000    0.06467    0.02589 =
         0.05194    0.00270    0.04911    0.00308
C8    1    0.224825    0.984779   -0.023623    11.00000    0.06186    0.02779 =
         0.04697    0.00020    0.04611    0.00434
C9    1    0.283159    1.024766   -0.000339    11.00000    0.05572    0.05615 =
         0.03575   -0.00765    0.03601   -0.00686
AFIX  43
H9    2    0.319274    1.092907    0.051967    11.00000   -1.20000
AFIX   0
C10   1    0.290542    0.963713   -0.055132    11.00000    0.06724    0.03337 =
         0.05947   -0.01104    0.05640   -0.01365
AFIX  43
H10   2    0.331841    0.990968   -0.038111    11.00000   -1.20000
AFIX   0
C11   1    0.177689    0.836761   -0.157732    11.00000    0.03589    0.06332 =
         0.03267    0.00084    0.02411    0.01129
AFIX  43
H11   2    0.140897    0.774476   -0.212065    11.00000   -1.20000
AFIX   0
C12   1    0.169538    0.896396   -0.105522    11.00000    0.04426    0.05527 =
         0.04858    0.00349    0.03632    0.00428
AFIX  43
H12   2    0.126597    0.877054   -0.125514    11.00000   -1.20000
AFIX   0
N1    3    0.596825    0.680176    0.621279    11.00000    0.03248    0.02946 =
         0.03484    0.00195    0.02246    0.00490
N2    3    0.259960    0.630223    0.129120    11.00000    0.05760    0.02191 =
         0.04116    0.01487    0.04143    0.02459
O1    4    0.382836    0.938943    0.321681    11.00000    0.02958    0.04549 =
         0.03262    0.00061    0.02097    0.00441
O2    4    0.339727    0.834965    0.369564    11.00000    0.03014    0.06075 =
         0.03640   -0.01062    0.02398   -0.00553
O3    4    0.664572    0.644177    0.701841    11.00000    0.03186    0.05859 =
         0.03425    0.01575    0.01865    0.01574
O4    4    0.276945    1.082161    0.119153    11.00000    0.08212    0.05767 =
         0.05775    0.00078    0.05954   -0.00615
O5    4    0.160849    1.010269    0.011609    11.00000    0.08345    0.07841 =
         0.07020   -0.00778    0.06788    0.00018
O6    4    0.249443    0.701936    0.173697    11.00000    0.05624    0.04029 =
         0.03989   -0.00001    0.04149    0.00463
PB1   5    0.256946    1.046378    0.211679    11.00000    0.02860    0.03587 =
         0.02505    0.00037    0.01975    0.00120
MOLE    2
PART   -1
C13   1    0.543534    0.263542    0.283008    10.50000    0.10939    0.10069 =
         0.10497    0.00769    0.07365   -0.00511
AFIX  33
H13A  2    0.529581    0.352507    0.299801    10.50000   -1.50000
H13B  2    0.536315    0.310954    0.235344    10.50000   -1.50000
H13C  2    0.593096    0.234192    0.335404    10.50000   -1.50000
AFIX   0
O7    4    0.508319   -0.167584    0.212885    10.50000    0.11815
C14   1    0.533221   -0.013678    0.234949    10.50000    0.06446    0.07396 =
         0.05865   -0.00531    0.05039    0.00876
AFIX  43
H14   2    0.568549    0.024765    0.241117    10.50000   -1.20000
AFIX   0
PART    0
N3    3    0.500000    0.099418    0.250000    10.50000    0.10432    0.11182 =
         0.08571    0.00000    0.07133    0.00000
HKLF    4

REM  TEST STRUCTURE D:\DATA\MORSALI15_DENE\MORSALI15
REM R1 =  0.0528 for    2541 Fo > 4sig(Fo)  and  0.0663 for all    3084 data
REM    217 parameters refined using     21 restraints

END

WGHT      0.0746      0.0000

REM Highest difference peak  2.764,  deepest hole -3.628,  1-sigma level  0.290
Q1    1   0.2522  1.0557  0.2448  11.00000  0.05    2.76
Q2    1   0.2573  1.0030  0.1725  11.00000  0.05    2.52
Q3    1   0.2563  1.0936  0.1739  11.00000  0.05    2.42
Q4    1   0.2247  0.9450  0.1717  11.00000  0.05    1.67
Q5    1   0.2857  0.9474  0.2517  11.00000  0.05    1.56
;
_shelx_res_checksum              81625
_shelx_hkl_file
;
   2   0   0 9610.30   54.41   0
  -2   0   0 9576.13   53.45   0
   4   0   0 9307.52   38.15   0
  -4   0   0 9999.99   38.74   0
  -6   0   0 3840.22   20.76   0
   6   0   0 3542.14   20.60   0
  -8   0   0 5022.47   21.01   0
   8   0   0 4552.45   20.66   0
  10   0   0 2905.01   16.50   0
 -10   0   0 3211.07   16.37   0
  12   0   0 2133.52   14.05   0
 -12   0   0 2501.70   14.15   0
  14   0   0 1686.05   13.28   0
 -14   0   0 1913.29   12.93   0
  16   0   0  381.92    9.53   0
 -16   0   0  439.20    8.79   0
 -18   0   0  303.88    8.74   0
  18   0   0  236.32    9.55   0
 -20   0   0  218.11    9.09   0
  20   0   0  186.59    9.84   0
  22   0   0  140.46    9.87   0
  24   0   0   73.79   10.73   0
  -1  -1   0   86.37   25.30   0
   1   1   0   92.28   34.61   0
  -3  -1   0   13.95   12.83   0
   3   1   0   11.68   13.98   0
   3  -1   0   12.48    9.14   0
   5   1   0  144.03   10.97   0
  -5  -1   0  146.85   10.39   0
   5  -1   0  166.86    9.26   0
  -7   1   0  410.73    9.26   0
   7  -1   0  413.82    9.60   0
  -7  -1   0  389.61   10.08   0
   7   1   0  357.65   10.88   0
   9   1   0 1028.97   12.83   0
  -9  -1   0 1270.89   12.58   0
  -9   1   0 1329.20   11.66   0
   9  -1   0 1255.50   11.66   0
  11   1   0  522.57   10.29   0
  11  -1   0  649.79    9.60   0
 -11   1   0  681.19    9.44   0
 -11  -1   0  649.78   11.00   0
  13   1   0  276.78    9.60   0
  13  -1   0  309.53    8.81   0
 -13  -1   0  319.87    8.74   0
 -13   1   0  335.72    8.32   0
  15  -1   0  330.41    9.36   0
 -15   1   0  344.64    8.63   0
  15   1   0  291.80    9.90   0
 -15  -1   0  337.11    9.16   0
  17   1   0  339.41    9.98   0
  17  -1   0  394.32    9.35   0
 -17  -1   0  461.38    8.97   0
  19   1   0  250.81    9.91   0
  19  -1   0  284.84    9.59   0
 -19  -1   0  348.18    8.87   0
  21  -1   0  205.58    9.75   0
 -21  -1   0  248.89    9.28   0
  21   1   0  190.17   10.42   0
  23   1   0  185.54   10.96   0
  23  -1   0  223.30   10.66   0
 -23  -1   0  228.43    9.63   0
   0  -2   0 2586.78   32.66   0
   0   2   0 2905.99   28.76   0
  -2  -2   0 5806.24   45.28   0
   2   2   0 4293.25   55.02   0
  -4  -2   0 2604.74   23.61   0
   4   2   0 2406.50   26.84   0
   6   2   0 2081.17   19.77   0
   6  -2   0 2790.91   16.30   0
  -6  -2   0 2406.77   18.22   0
  -8  -2   0 1839.31   15.21   0
   8   2   0 1537.99   17.35   0
   8  -2   0 1947.03   13.32   0
 -10  -2   0 1159.94   12.57   0
  10   2   0  939.43   13.58   0
  10  -2   0 1246.82   11.01   0
 -12  -2   0  622.96   10.05   0
  12   2   0  510.01   11.32   0
  12  -2   0  592.42    9.37   0
  14   2   0  345.15   11.97   0
 -14  -2   0  431.00   10.39   0
  14  -2   0  398.08    8.77   0
 -16  -2   0  475.73    9.32   0
  16   2   0  357.59   12.11   0
  16  -2   0  476.53    9.30   0
  18  -2   0  153.82    8.46   0
  18   2   0  128.27    9.91   0
 -18  -2   0  169.90    8.28   0
 -20  -2   0  143.91    8.81   0
  20   2   0  113.15   10.67   0
  20  -2   0  125.53    8.85   0
  22   2   0   46.68   10.87   0
 -22  -2   0   79.77    8.62   0
  22  -2   0   83.42    9.23   0
  -1  -3   0   36.55   21.89   0
   1   3   0   52.96   10.98   0
   1  -3   0   63.36   13.07   0
  -3  -3   0   24.48   13.96   0
   3   3   0   30.43   18.18   0
  -5  -3   0   40.04   10.92   0
   5   3   0   27.73   17.45   0
   7   3   0  210.62   13.69   0
   7  -3   0  304.66    8.60   0
  -7  -3   0  253.34   10.85   0
   9  -3   0  130.87    7.67   0
   9   3   0   85.22   12.62   0
  -9  -3   0   99.99   10.05   0
 -11  -3   0  121.96    8.58   0
  11   3   0   91.54   11.00   0
  11  -3   0  128.98    7.99   0
  13  -3   0  108.08    7.66   0
  13   3   0   76.52   11.77   0
 -13  -3   0  105.81    7.91   0
  15   3   0  148.94   11.39   0
 -15  -3   0  221.56    9.72   0
  15  -3   0  208.73    8.20   0
  17   3   0   88.13   11.36   0
 -17  -3   0  138.02    9.82   0
  17  -3   0  138.63    8.30   0
  19   3   0   89.29   11.75   0
  19  -3   0  150.19    8.85   0
 -19  -3   0  156.77    9.94   0
  21  -3   0   94.69    9.18   0
 -21  -3   0  108.65   10.17   0
  21   3   0   97.90   14.00   0
  23  -3   0   46.03    9.38   0
 -23  -3   0   31.42    8.88   0
  23   3   0   27.24   12.67   0
   0  -4   0  346.78   19.85   0
  -2  -4   0  221.83   18.65   0
   2   4   0  247.79   13.22   0
   2  -4   0  276.72   12.69   0
   4   4   0  488.60   18.61   0
  -4  -4   0  596.90   15.35   0
   6   4   0  185.19   24.49   0
  -6  -4   0  398.17   12.31   0
   8  -4   0  271.67    8.26   0
   8   4   0  153.90   18.77   0
  -8  -4   0  221.87   10.96   0
 -10  -4   0  130.07   10.19   0
  10   4   0  130.54   15.95   0
  10  -4   0  150.11    8.14   0
 -12  -4   0   66.66    8.46   0
  12   4   0   38.88   14.80   0
  12  -4   0   79.87    7.74   0
  14   4   0   30.45   14.74   0
  14  -4   0   58.75    7.92   0
 -14  -4   0   54.92    9.57   0
 -16  -4   0   41.54    8.25   0
  16   4   0   32.32   14.73   0
  16  -4   0   31.82    7.78   0
  18  -4   0   65.08    9.80   0
 -18  -4   0   78.11    8.89   0
  18   4   0   78.50   16.21   0
  20   4   0   10.27   14.16   0
 -20  -4   0   17.45    9.77   0
  20  -4   0   22.81    8.68   0
  22  -4   0    5.52    9.37   0
  22   4   0    5.05   16.79   0
 -22  -4   0    4.63    8.90   0
   1  -5   0   13.84   13.88   0
  -1  -5   0  -19.54   20.09   0
  -3  -5   0    4.27   14.74   0
   3  -5   0   18.87   13.13   0
   3   5   0   12.48   12.18   0
   5   5   0   19.01   14.24   0
  -5  -5   0   13.85   12.13   0
   5  -5   0   12.58    9.93   0
  -7  -5   0   16.21   10.61   0
   7   5   0    8.87   19.70   0
   9  -5   0    9.15    7.50   0
  -9  -5   0    5.43   10.02   0
   9   5   0   -5.09   22.17   0
 -11  -5   0    6.20    9.47   0
  11   5   0   16.41   20.34   0
  11  -5   0    9.12    8.63   0
  13  -5   0    5.78    8.05   0
  13   5   0    6.13   19.21   0
 -13  -5   0    3.33    9.29   0
  15  -5   0    6.03    8.08   0
 -15  -5   0   12.11    8.22   0
  15   5   0   26.22   19.04   0
  17  -5   0    2.03    8.41   0
  17   5   0   -1.97   19.91   0
 -17  -5   0   10.29    9.46   0
  19  -5   0   -2.44    8.74   0
 -19  -5   0   17.81    9.71   0
  19   5   0  -16.13   17.70   0
   0  -6   0   -1.67   23.11   0
  -2  -6   0   17.93   17.13   0
   2  -6   0   20.46   14.13   0
  -4  -6   0   40.34   13.91   0
   4   6   0   28.23   12.26   0
   4  -6   0   45.77   13.87   0
   6   6   0   32.15   13.58   0
   6  -6   0   43.26   12.84   0
  -6  -6   0   46.22   11.93   0
   8  -6   0   23.67   10.23   0
   8   6   0   17.23   16.18   0
  -8  -6   0   27.46   10.52   0
  10   6   0  -15.25   20.40   0
 -10  -6   0   12.27   10.04   0
  10  -6   0   26.90    7.53   0
 -12  -6   0    1.81   10.04   0
  12   6   0   26.23   28.21   0
  12  -6   0    8.98    7.58   0
  14   6   0   -0.49   28.69   0
 -14  -6   0    4.89    9.75   0
  14  -6   0   26.53    9.38   0
 -16  -6   0   21.06   10.14   0
  16  -6   0   10.13    8.45   0
  16   6   0    9.38   27.47   0
  18  -6   0   15.39    8.89   0
  18   6   0    6.06   23.92   0
 -18  -6   0    1.70   10.19   0
  -1  -7   0    4.74   14.71   0
   1  -7   0   -8.81   24.16   0
  -3  -7   0   14.74   14.31   0
   3  -7   0    5.37   19.00   0
  -5  -7   0   23.84   13.23   0
   5  -7   0   23.32   13.66   0
   7  -7   0    8.71   12.20   0
  -7  -7   0   14.59   11.41   0
   7   7   0   10.88   13.21   0
  -9  -7   0   15.67   10.70   0
   9  -7   0   20.89   12.98   0
   9  -7   0   14.07    9.30   0
   9   7   0    4.39   15.47   0
  11   7   0   36.50   18.58   0
  11  -7   0   44.99    8.17   0
 -11  -7   0   43.09   10.56   0
  11  -7   0   51.33   11.38   0
  13   7   0   14.06   22.57   0
 -13  -7   0   32.65   10.96   0
  13  -7   0   19.73    8.12   0
  15  -7   0   42.02    8.73   0
 -15  -7   0   36.09   10.58   0
  15   7   0   56.22   27.43   0
   0  -8   0  155.73   19.62   0
   2  -8   0  105.12   26.98   0
  -2  -8   0  148.53   14.82   0
   4  -8   0  102.56   21.09   0
  -4  -8   0  131.20   14.49   0
   6  -8   0  117.02   18.48   0
  -6  -8   0  134.36   12.75   0
   8  -8   0  177.58    9.07   0
   8   8   0  119.61   13.99   0
   8  -8   0  120.68   15.07   0
  -8  -8   0  131.90   12.72   0
  10  -8   0   99.68   10.04   0
  10   8   0   68.27   15.41   0
  10  -8   0   65.83   13.70   0
 -10  -8   0   68.22   11.63   0
  12  -8   0   48.69   15.34   0
  12   8   0   57.36   17.19   0
  12  -8   0   71.01    8.95   0
 -12  -8   0   43.00   11.58   0
   1  -9   0   10.55   20.59   0
  -1  -9   0   20.13   16.91   0
  -3  -9   0    3.81   15.09   0
   3  -9   0   -9.13   27.02   0
   5  -9   0   -8.56   25.80   0
  -5  -9   0   15.29   14.98   0
   7  -9   0   13.27   10.16   0
   7  -9   0   25.90   18.99   0
  -7  -9   0   14.30   13.83   0
  25   1  -1    8.53   10.64   0
  25  -1  -1   -8.54    9.95   0
  23  -1  -1   37.99    9.57   0
 -23  -1   1   40.55    9.32   0
  23   1  -1   19.62    9.85   0
 -21  -1   1   54.48    9.01   0
  21   1  -1   30.96    9.32   0
  21  -1  -1   54.92    9.07   0
 -19  -1   1   53.16    7.42   0
  19   1  -1   25.78    9.08   0
  19  -1  -1   33.53    8.77   0
 -17  -1   1   19.70    7.37   0
  17  -1  -1   17.28    8.06   0
  17   1  -1   21.88    8.74   0
  15   1  -1   81.24    8.96   0
 -15  -1   1  100.94    7.91   0
  15  -1  -1   93.77    8.27   0
  13   1  -1   37.87    9.93   0
 -13  -1   1   39.25    7.53   0
  13  -1  -1   34.45    7.43   0
  11   1  -1   34.95    9.98   0
  11  -1  -1   32.19    7.62   0
 -11  -1   1   42.43    8.98   0
   9  -1  -1  181.62    8.41   0
  -9  -1   1  180.48    8.57   0
   9   1  -1  164.93   10.80   0
   7  -1  -1  174.12    8.86   0
   7   1  -1  144.59   10.11   0
  -7  -1   1  165.39    9.14   0
   5  -1  -1    6.26    8.67   0
  -5  -1   1   10.05   11.29   0
   5   1  -1   17.07   12.47   0
   3   1  -1   13.18   15.60   0
  -3  -1   1    7.46   14.09   0
  -1  -1   1    4.71   20.41   0
   1  -1  -1    4.66   19.81   0
  -1   1   1    9.39   17.78   0
   1   1   1   22.83   16.25   0
   1  -1   1   30.96   10.84   0
  -1  -1  -1   23.04   14.12   0
   3   1   1   75.13   11.85   0
  -3  -1  -1   67.53   11.08   0
  -3   1  -1   92.24    9.08   0
   3  -1   1   86.76    9.29   0
  -5  -1  -1    1.44    8.93   0
   5   1   1   10.19   10.98   0
   5  -1   1    8.57    9.68   0
  -5   1  -1    7.44    8.02   0
  -7  -1  -1  190.27    9.24   0
  -7   1  -1  198.66    8.33   0
   7  -1   1  189.22    8.20   0
   7   1   1  164.52    9.82   0
  -9  -1  -1    7.52    9.03   0
   9   1   1   21.03    8.85   0
  -9   1  -1    7.36    6.90   0
   9  -1   1   12.41    7.41   0
  11  -1   1   51.39    7.47   0
 -11   1  -1   60.64    7.22   0
  11   1   1   40.13    8.65   0
 -11  -1  -1   57.65    7.69   0
 -13   1  -1   88.90    7.52   0
  13   1   1   68.76    9.04   0
 -13  -1  -1   77.40    7.99   0
  13  -1   1   74.67    8.17   0
  15  -1   1    9.99    8.07   0
 -15   1  -1   26.59    7.55   0
 -15  -1  -1   11.24    7.50   0
  15   1   1   19.71    8.71   0
 -17  -1  -1   20.79    7.92   0
  17  -1   1   18.87    8.15   0
 -17   1  -1   13.18    7.44   0
  17   1   1   26.04    9.17   0
 -19  -1  -1   22.46    7.90   0
  19   1   1   31.65    9.17   0
  19  -1   1   19.96    8.59   0
  21   1   1   23.85   11.22   0
  21  -1   1   11.91    9.14   0
 -21  -1  -1   16.67    9.55   0
  23  -1   1   -0.84   10.14   0
 -23  -1  -1   -1.32    9.56   0
  23   1   1    6.53   12.05   0
 -24  -2   1   12.34    8.45   0
  24  -2  -1    0.66    9.48   0
  24   2  -1   12.43   12.82   0
 -22  -2   1   16.10    7.96   0
  22   2  -1    6.26   10.55   0
  22  -2  -1    5.53    8.61   0
 -20  -2   1   30.19    8.00   0
  20  -2  -1   26.74    8.52   0
  20   2  -1   26.57   11.43   0
 -18  -2   1  178.58    8.28   0
  18   2  -1  137.54   11.06   0
  18  -2  -1  182.57    8.35   0
 -16  -2   1   74.79    7.83   0
  16   2  -1   57.63    9.55   0
  16  -2  -1   74.77    7.87   0
 -14  -2   1  125.69    9.05   0
  14  -2  -1  116.09    7.93   0
  14   2  -1   86.72   10.81   0
  12   2  -1  319.52   12.34   0
  12  -2  -1  396.61    8.39   0
 -12  -2   1  383.28   10.61   0
 -10  -2   1  646.41   10.76   0
  10  -2  -1  687.25    9.61   0
  10   2  -1  524.02   13.19   0
   8  -2  -1  806.99   10.41   0
  -8  -2   1  722.18   12.59   0
   8   2  -1  613.53   13.07   0
  -6  -2   1 1431.03   17.10   0
   6   2  -1 1224.02   19.68   0
  -4  -2   1 2231.84   26.00   0
   4   2  -1 1985.24   35.82   0
   2   2  -1  883.45   24.25   0
   2  -2  -1  901.91   17.96   0
  -2  -2   1  611.81   36.02   0
   0   2   1  811.70   21.79   0
   0  -2  -1  668.55   33.78   0
   2   2   1 3735.58   36.95   0
  -2  -2  -1 4387.76   33.05   0
  -4  -2  -1 3019.60   21.54   0
   4  -2   1 3851.46   19.66   0
   4   2   1 2787.04   24.87   0
   6   2   1 1160.07   15.51   0
   6  -2   1 1572.78   12.80   0
  -6  -2  -1 1342.89   14.33   0
   8   2   1  832.95   13.09   0
   8  -2   1 1067.65   11.31   0
  -8  -2  -1  983.07   12.09   0
 -10  -2  -1  647.19   10.32   0
  10  -2   1  669.82    9.61   0
  10   2   1  550.94   11.56   0
  12  -2   1  554.63    9.44   0
 -12  -2  -1  500.76    9.97   0
  12   2   1  457.42   11.09   0
  14   2   1  277.73   10.35   0
  14  -2   1  344.37    8.58   0
 -14  -2  -1  363.41    8.99   0
  16  -2   1  501.66    9.58   0
  16   2   1  431.94   11.95   0
 -16  -2  -1  559.56    9.82   0
 -18  -2  -1  185.47    8.74   0
  18  -2   1  168.87    8.74   0
  18   2   1  137.60   10.04   0
  20   2   1   55.41    9.97   0
  20  -2   1   43.89    8.64   0
 -20  -2  -1   80.92    8.62   0
  22  -2   1   36.45    9.11   0
 -22  -2  -1   31.34    8.74   0
  22   2   1    8.35   11.20   0
  23   3  -1   80.44   13.06   0
  23  -3  -1  110.21    9.55   0
 -23  -3   1  127.94   10.50   0
  21  -3  -1  259.92    9.39   0
  21   3  -1  175.32   12.52   0
 -21  -3   1  281.26    9.25   0
 -19  -3   1  254.93    8.97   0
  19   3  -1  131.53   13.67   0
  19  -3  -1  209.86    8.82   0
 -17  -3   1  368.96   10.46   0
  17  -3  -1  329.87    8.88   0
  17   3  -1  213.78   13.37   0
 -15  -3   1  356.94    8.86   0
  15  -3  -1  339.76    8.39   0
  15   3  -1  239.03   12.84   0
 -13  -3   1  660.87   11.11   0
  13   3  -1  478.89   12.42   0
  13  -3  -1  671.37    9.57   0
  11   3  -1  358.28   13.91   0
 -11  -3   1  528.78   10.07   0
  11  -3  -1  573.52    9.06   0
   9   3  -1  236.35   14.03   0
  -9  -3   1  327.45   10.88   0
   9  -3  -1  355.22    8.51   0
   7   3  -1  770.70   19.84   0
  -7  -3   1  972.41   14.19   0
  -5  -3   1  647.43   15.21   0
   5   3  -1  450.55   27.17   0
   3  -3  -1  161.44   11.28   0
  -3  -3   1  143.64   19.51   0
   3   3  -1  151.44   15.03   0
  -1  -3   1  180.95   17.67   0
   1  -3  -1  176.81   17.42   0
  -1  -3  -1  176.11   19.33   0
   1   3   1  225.81   14.73   0
  -3  -3  -1   68.06   13.30   0
   3   3   1   48.58   21.92   0
  -5  -3  -1   33.79    9.34   0
   5  -3   1   47.80    7.80   0
   5   3   1   20.49   13.59   0
  -7  -3  -1   35.24   10.12   0
   7   3   1   23.40   13.56   0
   7  -3   1   38.31    7.39   0
  -9  -3  -1   27.98    8.44   0
   9  -3   1   43.76    7.27   0
   9   3   1   30.62   10.96   0
 -11  -3  -1   97.04    9.53   0
  11  -3   1   99.08    7.80   0
  11   3   1   70.18   12.02   0
 -13  -3  -1  123.60    8.61   0
  13  -3   1  128.79    7.85   0
  13   3   1   95.36   10.39   0
 -15  -3  -1  111.55    9.15   0
  15  -3   1  120.16    8.06   0
  15   3   1   83.88   10.38   0
 -17  -3  -1   63.29    8.50   0
  17   3   1   32.94   11.03   0
  17  -3   1   65.82    7.95   0
  19   3   1   79.18   11.30   0
  19  -3   1   93.57    8.55   0
 -19  -3  -1   97.68    9.82   0
 -21  -3  -1   87.31   10.13   0
  21  -3   1   60.02    8.85   0
  21   3   1   48.73   12.28   0
 -22  -4   1   16.93    8.70   0
  22   4  -1   26.28   17.24   0
  22  -4  -1   26.59    8.87   0
  20  -4  -1   86.53    8.57   0
 -20  -4   1  106.77    8.63   0
  20   4  -1   75.18   16.51   0
 -18  -4   1   50.78    9.47   0
  18   4  -1   27.87   13.65   0
  18  -4  -1   72.94    7.85   0
  16   4  -1  136.35   16.07   0
 -16  -4   1  168.48    8.57   0
  16  -4  -1  209.34    8.26   0
  14   4  -1  246.03   16.02   0
  14  -4  -1  361.48    8.69   0
 -14  -4   1  308.42   10.63   0
  12  -4  -1  707.38   10.90   0
  12   4  -1  453.09   17.59   0
 -12  -4   1  669.29   11.57   0
 -10  -4   1  535.97   12.02   0
  10  -4  -1  615.17   10.50   0
  10   4  -1  349.31   19.14   0
  -8  -4   1  831.82   13.50   0
   8   4  -1  495.48   24.52   0
  -6  -4   1  940.81   15.12   0
   6   4  -1  680.73   23.33   0
   4  -4  -1 1513.97   17.19   0
   4   4  -1 1430.02   20.56   0
  -4  -4   1 1504.71   21.25   0
   2  -4  -1 1485.73   20.15   0
  -2  -4   1 1093.94   28.61   0
   0  -4   1 1955.11   24.63   0
   0  -4  -1 1527.51   32.78   0
   0   4   1 2170.69   19.83   0
  -2  -4  -1 1005.25   19.05   0
   2  -4   1 1090.88   16.79   0
   2   4   1  971.87   18.33   0
  -4  -4  -1 1682.87   18.75   0
   4   4   1 1145.52   26.93   0
   6  -4   1 1712.22   12.73   0
  -6  -4  -1 1333.86   16.00   0
   6   4   1  917.24   24.02   0
   8   4   1  804.61   18.88   0
   8  -4   1 1345.47   11.56   0
  -8  -4  -1 1060.54   14.32   0
  10  -4   1 1508.25   11.94   0
 -10  -4  -1 1277.76   13.67   0
  10   4   1  951.61   18.23   0
 -12  -4  -1  804.32   12.48   0
  12   4   1  627.53   14.96   0
  12  -4   1  945.78   10.31   0
 -14  -4  -1  542.66   10.80   0
  14   4   1  421.27   16.56   0
  14  -4   1  575.69    9.49   0
 -16  -4  -1  214.26    9.14   0
  16  -4   1  259.00    8.77   0
  16   4   1  160.14   13.73   0
  18  -4   1  294.54    9.57   0
  18   4   1  241.58   14.57   0
 -18  -4  -1  301.40    9.82   0
  20   4   1  118.04   15.04   0
 -20  -4  -1  145.99   10.67   0
  20  -4   1  123.86    9.15   0
  21  -5  -1  164.93    9.37   0
 -21  -5   1  185.20   10.98   0
  21   5  -1  115.45   22.89   0
 -19  -5   1  309.93   10.84   0
  19   5  -1  163.81   21.98   0
  19  -5  -1  331.57    9.68   0
  17  -5  -1  300.18   10.38   0
 -17  -5   1  282.35   10.69   0
  17   5  -1  154.13   18.33   0
 -15  -5   1  451.92   11.14   0
  15   5  -1  267.25   21.06   0
  15  -5  -1  511.73    9.56   0
  13   5  -1  243.63   21.12   0
 -13  -5   1  493.80   11.22   0
  13  -5  -1  558.04    9.66   0
  11  -5  -1  523.06    9.14   0
  11   5  -1  204.28   26.13   0
 -11  -5   1  421.47   11.51   0
  -9  -5   1  541.36   12.44   0
   9   5  -1  369.96   26.91   0
   7   5  -1  280.46   17.77   0
  -7  -5   1  381.43   13.23   0
   7  -5  -1  344.25   11.18   0
   5  -5  -1  422.15   12.87   0
  -5  -5   1  467.02   15.67   0
   5   5  -1  420.71   16.07   0
  -3  -5   1  247.81   19.87   0
   3  -5  -1  227.24   14.96   0
  -1  -5   1  105.33   23.50   0
   1  -5  -1  132.91   19.53   0
  -1  -5  -1  102.02   18.73   0
   1   5   1  140.79   11.97   0
   1  -5   1  129.19   14.33   0
  -3  -5  -1   16.11   14.07   0
   3  -5   1   22.97   12.41   0
   3   5   1   28.03   13.55   0
   5   5   1   -2.72   17.71   0
  -5  -5  -1    9.87   11.51   0
   7   5   1   18.76   24.81   0
  -7  -5  -1   16.26    9.32   0
   7  -5   1   27.43    7.13   0
  -9  -5  -1   24.53    8.59   0
   9   5   1    3.77   20.93   0
   9  -5   1    5.12    7.39   0
  11  -5   1   69.61    7.57   0
  11   5   1   17.35   19.16   0
 -11  -5  -1   32.40    9.73   0
 -13  -5  -1   91.18    9.94   0
  13  -5   1  103.02    8.27   0
  13   5   1   63.08   18.88   0
 -15  -5  -1   46.35    9.77   0
  15  -5   1   56.31    8.43   0
  15   5   1   40.73   16.45   0
  17  -5   1  118.93    8.84   0
 -17  -5  -1  113.76    9.01   0
  17   5   1   70.01   19.61   0
  19  -5   1   79.77    9.18   0
 -19  -5  -1   73.60    9.30   0
  19   5   1   58.42   20.52   0
 -18  -6   1   77.08   10.28   0
  18   6  -1   43.29   30.36   0
  18  -6  -1  112.71    9.10   0
  16  -6  -1  144.14    8.78   0
  16   6  -1   64.54   32.26   0
 -16  -6   1  125.54   10.57   0
  14  -6  -1  285.96    8.96   0
  14   6  -1  145.84   28.83   0
 -14  -6   1  226.58   10.99   0
 -12  -6   1  327.82   11.48   0
  12  -6  -1  380.80   10.09   0
  12   6  -1  224.94   26.77   0
  10  -6  -1  658.90    9.69   0
 -10  -6   1  531.64   12.87   0
  10   6  -1  389.45   20.53   0
  -8  -6   1  479.09   12.85   0
   8  -6  -1  414.65   12.19   0
   8   6  -1  396.47   17.36   0
   6  -6  -1  694.42   14.46   0
  -6  -6   1  751.89   17.21   0
   6   6  -1  595.96   16.06   0
   4  -6  -1  838.94   17.99   0
  -4  -6   1  892.99   20.44   0
   2  -6  -1  811.49   22.12   0
  -2  -6   1  822.47   22.51   0
   0  -6   1  581.30   23.60   0
   0  -6  -1  591.57   23.03   0
   2  -6   1  852.79   19.47   0
  -2  -6  -1  909.77   19.37   0
   2   6   1  942.37   14.33   0
   4   6   1  673.88   16.40   0
  -4  -6  -1  818.86   16.54   0
   4  -6   1  716.76   16.36   0
  -6  -6  -1  722.16   14.52   0
   6  -6   1  664.33   13.50   0
   6   6   1  545.72   16.54   0
   8  -6   1  971.90   11.63   0
   8   6   1  543.96   22.81   0
  -8  -6  -1  747.07   13.15   0
  10   6   1  384.38   28.84   0
 -10  -6  -1  553.94   12.37   0
  10  -6   1  707.73    9.88   0
  12  -6   1  581.11    9.74   0
  12   6   1  235.13   30.85   0
 -12  -6  -1  456.50   11.35   0
 -14  -6  -1  252.76   11.36   0
  14   6   1  122.24   26.54   0
  14  -6   1  333.88    9.25   0
 -16  -6  -1  194.66   11.68   0
  16  -6   1  268.16    9.51   0
  16   6   1  118.43   26.72   0
 -18  -6  -1   94.63   11.19   0
  18  -6   1  128.59    9.71   0
  17  -7  -1  123.71    9.50   0
 -17  -7   1   92.14   11.11   0
  17   7  -1   47.09   32.63   0
  15   7  -1   95.44   23.08   0
 -15  -7   1  113.79   11.27   0
  15  -7  -1  131.27    8.89   0
 -13  -7   1  115.58   11.16   0
  13   7  -1   98.99   21.22   0
  13  -7  -1  192.17    8.99   0
  13  -7  -1  106.87   11.33   0
  11  -7  -1  198.95    9.03   0
  11   7  -1  129.96   16.66   0
 -11  -7   1  160.43   11.27   0
  11  -7  -1  141.25   12.96   0
   9   7  -1  103.47   14.33   0
   9  -7  -1  122.67   12.35   0
  -9  -7   1  153.49   12.78   0
   7  -7  -1  113.51   13.46   0
   7   7  -1  120.66   13.00   0
  -7  -7   1  132.15   12.45   0
   5  -7  -1   69.76   16.96   0
  -5  -7   1   64.08   13.29   0
  -3  -7   1   53.68   15.42   0
   3  -7  -1   50.27   21.13   0
  -1  -7   1   30.95   19.15   0
   1  -7  -1   41.51   19.95   0
   1  -7   1   17.92   22.90   0
  -1  -7  -1   26.35   16.77   0
   3  -7   1    6.79   14.82   0
  -3  -7  -1   28.59   13.77   0
  -5  -7  -1    3.73   12.02   0
   5   7   1   -0.27   12.90   0
   5  -7   1   11.96   14.57   0
   7  -7   1   21.91   13.34   0
   7  -7   1    3.18    8.03   0
  -7  -7  -1   10.39   11.16   0
   7   7   1    0.73   15.51   0
   9  -7   1   10.93   13.48   0
  -9  -7  -1    5.17   10.55   0
   9  -7   1   -9.55    8.28   0
   9   7   1   10.65   17.39   0
  11  -7   1   11.49    7.89   0
  11   7   1   12.67   21.57   0
 -11  -7  -1   10.29   10.46   0
  13  -7   1   24.84    8.30   0
 -13  -7  -1   19.51   10.47   0
  13   7   1   25.31   25.79   0
  15   7   1   20.73   35.61   0
 -15  -7  -1   42.99   11.16   0
  15  -7   1   49.51    8.74   0
 -14  -8   1   19.12   10.95   0
  14  -8  -1   10.70   13.00   0
  14   8  -1   22.21   17.46   0
  14  -8  -1   26.33   10.29   0
  12  -8  -1   46.73   13.81   0
  12  -8  -1   76.68    8.73   0
 -12  -8   1   52.93   11.61   0
  12   8  -1   47.20   17.62   0
  10   8  -1   57.62   14.22   0
  10  -8  -1   57.95   13.81   0
  10  -8  -1   85.65   10.03   0
 -10  -8   1   59.73   11.34   0
  -8  -8   1  114.22   12.16   0
   8  -8  -1   88.32   17.34   0
  -6  -8   1  149.17   14.67   0
   6  -8  -1  132.46   16.92   0
  -4  -8   1  178.84   15.09   0
   4  -8  -1  128.61   23.55   0
   2  -8  -1  136.36   24.39   0
  -2  -8   1  142.28   17.48   0
   0  -8   1  102.93   21.65   0
   0  -8  -1  136.92   19.01   0
   2  -8   1   96.93   26.70   0
  -2  -8  -1  156.77   16.46   0
  -4  -8  -1  179.81   14.18   0
   4  -8   1  132.40   18.05   0
   6  -8   1  113.44   16.22   0
   6  -8   1  212.88    8.90   0
  -6  -8  -1  150.30   13.15   0
   8  -8   1  167.81   10.37   0
   8  -8   1  114.45   14.56   0
   8   8   1   86.06   15.87   0
  -8  -8  -1  107.77   12.76   0
  10   8   1   94.70   19.68   0
  10  -8   1  152.85    9.07   0
 -10  -8  -1   96.67   12.13   0
  10  -8   1   83.61   13.91   0
  12  -8   1   44.92   13.77   0
 -12  -8  -1   43.09   11.73   0
  12   8   1   47.47   19.55   0
  12  -8   1   79.26    9.02   0
   9  -9  -1    9.11    8.95   0
   9  -9  -1    3.29   17.45   0
  -9  -9   1    4.11   13.59   0
   7  -9  -1   27.96   19.58   0
  -7  -9   1   13.29   14.20   0
   5  -9  -1   38.44   27.92   0
  -5  -9   1   10.67   13.77   0
  -3  -9   1    6.88   15.37   0
   3  -9  -1   23.35   25.22   0
   1  -9  -1   28.50   19.83   0
  -1  -9   1   13.81   18.34   0
   1  -9   1    1.98   21.64   0
  -1  -9  -1   15.65   16.76   0
   3  -9   1   -1.41   28.50   0
  -3  -9  -1    6.89   14.84   0
   5  -9   1    5.29   24.63   0
   5  -9   1    8.64    9.56   0
  -5  -9  -1  -11.38   13.83   0
   7  -9   1   18.11   18.95   0
  -7  -9  -1    4.23   11.29   0
   7  -9   1    3.53    8.72   0
  26   0  -2    2.50   10.15   0
  24   0  -2    5.80    9.56   0
  22   0  -2   16.94    9.00   0
  20   0  -2   35.23    9.09   0
  18   0  -2   19.48    9.68   0
 -18   0   2   19.62    8.52   0
  16   0  -2  694.84   10.79   0
 -16   0   2  810.19   10.08   0
  14   0  -2  645.46   10.24   0
 -14   0   2  730.29    9.70   0
  12   0  -2  962.10   11.71   0
 -12   0   2 1086.03   11.23   0
  10   0  -2 1510.69   13.64   0
 -10   0   2 1725.71   13.71   0
  -8   0   2 3418.51   19.58   0
   8   0  -2 3129.03   19.64   0
   6   0  -2 1302.66   16.50   0
  -6   0   2 1371.57   16.24   0
   2   0  -2 4719.20   91.36   0
   0   0  -2 3043.56   30.66   0
   0   0   2 3093.52   30.71   0
  -2   0  -2 1455.47   17.23   0
   2   0   2 1474.68   17.32   0
  -4   0  -2 4896.54   23.61   0
   4   0   2 4839.27   23.57   0
   6   0   2 4854.49   21.06   0
  -6   0  -2 5108.14   21.11   0
   8   0   2 3555.40   17.37   0
  -8   0  -2 3906.18   17.63   0
 -10   0  -2 2953.08   15.28   0
  10   0   2 2740.70   15.41   0
 -12   0  -2 2525.30   14.34   0
  12   0   2 2288.77   14.49   0
 -14   0  -2 1701.71   12.40   0
  14   0   2 1470.51   12.60   0
  16   0   2  911.39   11.33   0
 -16   0  -2 1106.16   11.01   0
 -18   0  -2  786.83   11.04   0
  18   0   2  668.55   11.36   0
 -20   0  -2  510.56   10.24   0
  20   0   2  422.40   10.94   0
  22   0   2  216.05   10.55   0
  25   1  -2  240.24   11.56   0
  25  -1  -2  260.69   10.80   0
  23   1  -2  288.03   10.68   0
  23  -1  -2  330.35   10.59   0
  21  -1  -2  480.80   10.49   0
  21   1  -2  420.33   12.02   0
 -21  -1   2  585.88   10.99   0
  19   1  -2  839.93   12.71   0
  19  -1  -2  931.88   11.28   0
 -19  -1   2 1067.81   10.84   0
  17  -1  -2 1092.57   11.44   0
 -17  -1   2 1257.08   12.07   0
  17   1  -2  967.80   13.22   0
  15  -1  -2 1182.00   11.54   0
  15   1  -2 1082.72   12.32   0
 -15  -1   2 1339.53   11.76   0
 -13  -1   2 1595.41   13.03   0
  13  -1  -2 1440.19   12.03   0
  13   1  -2 1324.15   13.53   0
  11   1  -2 2007.01   15.90   0
  11  -1  -2 2352.07   14.70   0
 -11  -1   2 2469.15   15.71   0
   9  -1  -2 2078.45   14.82   0
  -9  -1   2 2182.73   16.08   0
   9   1  -2 1797.92   16.82   0
   7  -1  -2 1605.26   14.93   0
  -7  -1   2 1620.40   16.77   0
   7   1  -2 1442.45   18.42   0
  -5  -1   2 3085.95   29.88   0
   5   1  -2 2559.64   30.27   0
   3  -1  -2 1513.21   22.23   0
  -1   1   2 1011.23   35.12   0
   1  -1  -2 1053.51   32.65   0
  -1  -1   2 1732.28   26.04   0
   1  -1   2   99.81    9.89   0
  -1  -1  -2   79.19   12.98   0
  -1   1  -2   94.65   11.37   0
   1   1   2   90.78   13.89   0
  -3  -1  -2  602.77   12.98   0
   3  -1   2  702.56   11.84   0
  -3   1  -2  703.29   11.72   0
   3   1   2  609.30   13.61   0
   5   1   2  545.33   11.52   0
  -5  -1  -2  564.81   11.13   0
  -5   1  -2  632.96   10.47   0
   5  -1   2  611.49   10.49   0
  -7   1  -2  119.67    7.85   0
   7  -1   2  120.07    8.15   0
   7   1   2  105.05    9.23   0
  -7  -1  -2  108.58    8.73   0
   9  -1   2   11.44    7.28   0
  -9  -1  -2   11.40    7.65   0
   9   1   2    3.67    8.50   0
  -9   1  -2    5.93    6.87   0
  11   1   2    5.43    8.42   0
 -11  -1  -2    3.69    7.64   0
  11  -1   2   -1.16    7.85   0
 -11   1  -2    5.15    7.43   0
  13   1   2   24.27    8.84   0
 -13   1  -2   24.77    7.37   0
 -13  -1  -2   26.60    9.23   0
  13  -1   2   36.79    7.80   0
  15   1   2   71.89    9.10   0
 -15  -1  -2   99.31    7.99   0
 -15   1  -2   86.39    7.82   0
  15  -1   2   75.06    8.21   0
  17   1   2   68.73   10.51   0
 -17   1  -2   71.81    7.92   0
 -17  -1  -2   88.84    8.13   0
  17  -1   2   56.47    8.64   0
 -19  -1  -2   55.58    8.33   0
  19   1   2   45.91    9.67   0
  19  -1   2   31.52    9.00   0
 -21  -1  -2   60.44    8.88   0
  21   1   2   52.54   10.39   0
  21  -1   2   54.28    9.67   0
  24   2  -2    4.93   12.66   0
 -24  -2   2   18.20    8.22   0
  24  -2  -2   15.89    9.41   0
  22   2  -2   15.93   10.45   0
 -22  -2   2   15.97    7.77   0
  22  -2  -2    9.58    8.76   0
  20  -2  -2    5.69    8.34   0
  20   2  -2   13.24   11.35   0
 -20  -2   2   12.25    7.70   0
  18   2  -2  176.89   12.18   0
  18  -2  -2  230.39    8.72   0
 -18  -2   2  258.85    9.68   0
  16  -2  -2  149.71    7.92   0
  16   2  -2  116.21    9.31   0
 -16  -2   2  153.15    7.58   0
  14  -2  -2  354.44    8.82   0
 -14  -2   2  355.02    8.95   0
  14   2  -2  264.39   10.31   0
  12  -2  -2  344.25    8.35   0
 -12  -2   2  346.71   10.37   0
  12   2  -2  260.32   11.87   0
  10   2  -2  729.37   14.12   0
  10  -2  -2  936.27   10.67   0
 -10  -2   2  912.26   12.48   0
   8   2  -2 1070.20   17.32   0
  -8  -2   2 1290.79   15.38   0
  -6  -2   2 1705.91   21.60   0
   6   2  -2 1552.78   26.98   0
  -4  -2   2 1885.41   32.41   0
   4   2  -2 1511.80   41.28   0
   4  -2  -2 1949.80   19.64   0
  -2  -2   2  106.38   19.61   0
  -2   2   2  127.20   13.86   0
   2  -2  -2  126.41   16.30   0
   0  -2  -2 1400.08   25.95   0
   0   2   2 1247.62   31.19   0
   2   2   2  570.16   16.93   0
  -2  -2  -2  566.76   14.72   0
   2  -2   2  743.19   12.32   0
  -4  -2  -2 1738.75   16.40   0
   4  -2   2 2119.24   14.88   0
   4   2   2 1691.45   18.34   0
  -6  -2  -2 1868.42   16.54   0
   6  -2   2 2318.89   14.50   0
   6   2   2 1759.78   17.05   0
   8   2   2 1654.50   15.25   0
   8  -2   2 2030.11   13.33   0
  -8  -2  -2 1865.31   15.19   0
 -10  -2  -2 1089.00   11.68   0
  10  -2   2 1133.12   10.88   0
  10   2   2  921.28   12.44   0
 -12  -2  -2  963.32   11.59   0
  12   2   2  866.45   12.66   0
  12  -2   2 1061.31   10.72   0
 -14  -2  -2 1097.20   11.20   0
  14   2   2  883.14   12.09   0
  14  -2   2 1057.72   10.83   0
  16  -2   2  583.84    9.83   0
 -16  -2  -2  595.44   10.27   0
  16   2   2  482.44   11.70   0
  18  -2   2  350.04    9.63   0
 -18  -2  -2  371.32    9.81   0
  18   2   2  269.12   11.46   0
  20  -2   2  212.45    9.74   0
 -20  -2  -2  241.72    9.49   0
  20   2   2  183.50   11.26   0
  23  -3  -2  138.99    9.61   0
 -23  -3   2  161.67    9.03   0
  23   3  -2  118.34   14.69   0
 -21  -3   2  228.40   10.02   0
  21   3  -2  135.57   13.70   0
  21  -3  -2  230.48    8.93   0
  19   3  -2  134.82   11.38   0
  19  -3  -2  232.72    8.55   0
 -19  -3   2  244.45    9.82   0
  17  -3  -2  504.26    9.29   0
 -17  -3   2  563.03   10.50   0
  17   3  -2  368.87   13.89   0
  15  -3  -2  758.29    9.68   0
 -15  -3   2  789.16   11.33   0
  15   3  -2  551.83   13.87   0
  13  -3  -2  853.31   10.12   0
  13   3  -2  609.33   13.77   0
 -13  -3   2  855.53   12.14   0
  11  -3  -2 1066.69   10.66   0
 -11  -3   2 1021.87   12.93   0
  11   3  -2  729.19   15.82   0
  -9  -3   2  735.42   12.41   0
   9   3  -2  548.68   17.18   0
   7   3  -2  324.61   21.24   0
  -7  -3   2  416.90   12.40   0
   5  -3  -2  545.76   12.77   0
   5   3  -2  528.57   22.40   0
  -5  -3   2  586.39   17.93   0
   3  -3  -2 1310.63   18.44   0
  -3  -3   2  925.34   33.25   0
   1  -3  -2  738.47   25.85   0
  -1  -3   2  950.48   19.62   0
  -1   3   2  936.26   17.22   0
  -1  -3  -2  303.96   17.94   0
   1   3   2  247.75   23.23   0
   3  -3   2  238.78    9.52   0
  -3  -3  -2  176.57   11.82   0
   3   3   2  146.28   18.34   0
   5   3   2   25.09   12.56   0
   5  -3   2   28.00    7.47   0
  -5  -3  -2   22.86   10.79   0
  -7  -3  -2   63.73    9.30   0
   7   3   2   54.23   11.59   0
   7  -3   2   83.30    7.52   0
   9   3   2   65.43   12.37   0
   9  -3   2  105.90    7.63   0
  -9  -3  -2   90.96    8.77   0
  11  -3   2   11.30    7.28   0
 -11  -3  -2    9.10    8.40   0
  11   3   2   22.23   10.19   0
  13   3   2   -1.22   10.17   0
  13  -3   2    6.17    7.47   0
 -13  -3  -2   11.31    9.06   0
  15  -3   2    7.90    7.81   0
  15   3   2   14.08   10.40   0
 -15  -3  -2   27.12    9.14   0
  17   3   2   22.68   11.05   0
  17  -3   2   15.55    8.16   0
 -17  -3  -2   20.49    8.13   0
  19   3   2   14.79   13.11   0
 -19  -3  -2   36.83    9.70   0
  19  -3   2   17.95    8.59   0
 -21  -3  -2   15.60   10.25   0
  21   3   2   13.45   12.28   0
  21  -3   2   24.99    9.55   0
  22  -4  -2   -1.43    8.45   0
 -22  -4   2    0.81    9.41   0
  22   4  -2   24.10   16.96   0
  20  -4  -2   41.23    8.28   0
  20   4  -2   30.11   16.44   0
 -20  -4   2   39.18    9.41   0
 -18  -4   2   35.50    9.10   0
  18  -4  -2   49.37    7.77   0
  18   4  -2   30.69   15.88   0
 -16  -4   2   76.42    9.08   0
  16  -4  -2   77.70    7.93   0
  16   4  -2   70.32   15.19   0
  14  -4  -2   96.18    7.83   0
  14   4  -2   75.85   16.00   0
 -14  -4   2   97.98    9.35   0
 -12  -4   2   83.37    9.77   0
  12   4  -2   82.67   17.30   0
  12  -4  -2  121.13    7.94   0
 -10  -4   2  132.47   10.44   0
  10   4  -2  106.81   20.43   0
   8   4  -2  180.35   24.45   0
  -8  -4   2  301.00   11.32   0
   6  -4  -2  440.50   11.92   0
   6   4  -2  398.42   16.33   0
  -6  -4   2  439.56   14.66   0
   4  -4  -2  233.26   14.30   0
   4   4  -2  242.32   13.35   0
  -4  -4   2  232.85   18.19   0
   2  -4  -2  104.77   17.76   0
  -2  -4   2  120.46   18.19   0
   0  -4   2   22.38   12.43   0
   0   4   2   18.87   13.70   0
   0  -4  -2   10.83   20.90   0
  -2  -4  -2  195.12   13.76   0
   2   4   2  165.66   19.35   0
  -4  -4  -2  126.38   12.52   0
   4  -4   2  174.25    8.13   0
   4   4   2   70.47   22.25   0
   6   4   2  167.75   15.94   0
   6  -4   2  293.10    8.44   0
  -6  -4  -2  212.60   10.49   0
  -8  -4  -2  160.46    9.46   0
   8   4   2  149.55   13.82   0
   8  -4   2  211.78    8.39   0
  10   4   2  146.25   13.51   0
  10  -4   2  242.57    8.51   0
 -10  -4  -2  176.13    9.33   0
  12  -4   2  124.51    8.14   0
 -12  -4  -2  100.87    9.76   0
  12   4   2   86.12   14.70   0
 -14  -4  -2  101.13    9.08   0
  14  -4   2  124.11    8.55   0
  14   4   2   97.02   14.91   0
  16   4   2  117.85   15.51   0
  16  -4   2  152.69    8.61   0
 -16  -4  -2  148.50   10.32   0
 -18  -4  -2   40.60   10.06   0
  18  -4   2   44.42   10.13   0
  18   4   2   54.00   13.73   0
  20  -4   2   23.04    9.04   0
 -20  -4  -2   27.20    9.31   0
  20   4   2   39.74   14.17   0
  21   5  -2   39.35   22.56   0
 -21  -5   2   -4.85    8.27   0
  21  -5  -2    5.32    8.93   0
  19   5  -2   31.68   21.52   0
  19  -5  -2    1.86    8.35   0
 -19  -5   2   10.97    9.38   0
  17  -5  -2    0.19    8.00   0
  17   5  -2   23.04   21.06   0
 -17  -5   2    9.88    9.24   0
  15   5  -2   21.52   21.30   0
  15  -5  -2   21.19    7.76   0
 -15  -5   2   23.30    9.47   0
  13   5  -2   29.07   23.63   0
 -13  -5   2   41.99   10.54   0
  13  -5  -2   54.73    7.75   0
 -11  -5   2   14.84    9.65   0
  11   5  -2   21.05   22.78   0
  -9  -5   2    9.13   10.38   0
   9   5  -2   -0.30   19.56   0
   7   5  -2   19.13   14.73   0
  -7  -5   2   34.14   12.83   0
   7  -5  -2   17.12   10.05   0
   5  -5  -2    4.17   11.30   0
   5   5  -2    4.59   11.21   0
  -5  -5   2    9.14   15.52   0
   3  -5  -2   -2.41   15.22   0
  -3  -5   2   -0.79   18.90   0
   1  -5  -2   18.98   21.44   0
  -1  -5   2   -7.72   19.52   0
   1   5   2   -6.08   11.30   0
   1  -5   2    5.08   12.57   0
  -1  -5  -2    3.35   14.52   0
   3   5   2   16.27   15.73   0
  -3  -5  -2   24.66   13.58   0
   5   5   2   16.82   21.42   0
  -5  -5  -2    3.72    9.70   0
   5  -5   2   -2.70    8.12   0
  -7  -5  -2    2.62   10.52   0
   7  -5   2   21.51    8.56   0
   7   5   2   -7.67   22.59   0
   9   5   2   10.03   16.45   0
  -9  -5  -2   -1.79   10.16   0
   9  -5   2    5.09    8.50   0
  11   5   2    1.18   16.05   0
 -11  -5  -2    1.38    8.77   0
  11  -5   2    7.96    7.76   0
  13   5   2   28.45   15.50   0
  13  -5   2    5.67    7.94   0
 -13  -5  -2    3.22    9.51   0
  15  -5   2   11.15    8.35   0
  15   5   2   16.79   16.00   0
 -15  -5  -2    3.64    8.58   0
 -17  -5  -2    8.39   10.80   0
  17   5   2    9.88   19.60   0
  17  -5   2   13.08    8.62   0
  20   6  -2   26.55   33.79   0
  20  -6  -2   -6.00    8.93   0
 -20  -6   2    7.16    9.90   0
  18   6  -2    9.16   31.63   0
 -18  -6   2    2.24    9.91   0
  18  -6  -2    7.96    8.73   0
  16   6  -2   -7.05   26.38   0
 -16  -6   2    5.30    9.73   0
  16  -6  -2    5.22    8.28   0
  14  -6  -2    6.70    8.21   0
 -14  -6   2   15.17    9.57   0
  14   6  -2   -3.64   23.09   0
 -12  -6   2   11.81   11.37   0
  12  -6  -2    2.35    7.89   0
  12   6  -2    1.54   20.78   0
  10   6  -2   -0.80   15.54   0
 -10  -6   2   14.12   11.28   0
  10  -6  -2    7.54   10.11   0
   8  -6  -2   18.96   11.02   0
  -8  -6   2   25.64   12.35   0
   8   6  -2   23.45   14.36   0
  -6  -6   2    9.85   14.28   0
   6  -6  -2   23.08   13.44   0
  -4  -6   2   11.18   17.32   0
   4  -6  -2   15.06   15.99   0
   2  -6  -2   16.23   20.25   0
  -2  -6   2    9.46   21.41   0
   0  -6   2   25.73   17.92   0
   0  -6  -2   38.83   15.67   0
   2   6   2   79.05   13.30   0
   2  -6   2   83.76   14.54   0
  -2  -6  -2   88.41   15.27   0
   4  -6   2   39.74   11.03   0
  -4  -6  -2   42.65   11.12   0
   4   6   2   11.99   13.01   0
   6  -6   2   56.51    8.82   0
   6   6   2   23.91   17.62   0
  -6  -6  -2   29.99   11.84   0
   8  -6   2   32.20    8.68   0
   8   6   2   28.30   24.79   0
  -8  -6  -2   21.37   11.04   0
 -10  -6  -2   27.81   10.31   0
  10   6   2   24.64   27.11   0
  10  -6   2   19.47    7.73   0
 -12  -6  -2    3.50    8.77   0
  12  -6   2   10.82    9.10   0
  12   6   2   14.52   25.17   0
  14   6   2   36.62   24.83   0
  14  -6   2    6.50    9.54   0
 -14  -6  -2   20.34   10.07   0
  16  -6   2   16.25    8.71   0
  16   6   2   26.15   24.70   0
 -16  -6  -2   -1.64    9.07   0
  17  -7  -2   44.60    8.93   0
  17   7  -2   19.14   26.39   0
 -17  -7   2   36.71   10.70   0
  15  -7  -2   42.38   11.17   0
 -15  -7   2   50.92   10.52   0
  15  -7  -2   45.51    9.79   0
  15   7  -2   43.63   19.63   0
 -13  -7   2   80.22   10.72   0
  13   7  -2   33.73   16.69   0
  13  -7  -2   55.35   11.05   0
  13  -7  -2   93.33    8.43   0
  11  -7  -2   38.54   12.80   0
  11   7  -2   41.43   15.95   0
 -11  -7   2   49.13   10.74   0
  -9  -7   2   59.30   12.48   0
   9  -7  -2   43.11   12.02   0
   9   7  -2   42.13   14.12   0
  -7  -7   2   68.91   12.41   0
   7  -7  -2   82.26   13.24   0
   5  -7  -2   26.73   17.25   0
  -5  -7   2   37.04   13.63   0
   3  -7  -2   28.08   19.74   0
  -3  -7   2   67.60   16.53   0
   1  -7  -2   46.11   20.56   0
  -1  -7   2    7.43   21.38   0
   1  -7   2   36.85   19.21   0
  -1  -7  -2   40.74   13.90   0
   3  -7   2   24.13   15.27   0
  -3  -7  -2    8.53   11.31   0
   3   7   2   31.88   10.86   0
   5   7   2    6.97   14.04   0
   5  -7   2    3.23   13.96   0
   5  -7   2   13.91    7.57   0
  -5  -7  -2   15.42   12.12   0
  -7  -7  -2   17.96    9.86   0
   7  -7   2   22.72   13.71   0
   7  -7   2   23.01    7.87   0
   7   7   2   13.68   17.38   0
  -9  -7  -2   -2.28   10.96   0
   9  -7   2   24.82    9.41   0
   9   7   2    2.03   20.53   0
  11  -7   2    7.79    8.12   0
  11   7   2   34.02   25.60   0
 -11  -7  -2   -4.84   10.80   0
 -13  -7  -2   15.16   10.90   0
  13  -7   2    2.23    8.45   0
  13   7   2   22.84   29.22   0
  14  -8  -2   19.54   14.84   0
  14   8  -2   21.48   17.47   0
  14  -8  -2   34.67    9.15   0
 -14  -8   2   29.34   12.12   0
 -12  -8   2   25.76   12.15   0
  12  -8  -2   41.33    8.42   0
  12  -8  -2   18.21   13.11   0
  12   8  -2   34.50   13.88   0
  10  -8  -2   65.47   13.97   0
 -10  -8   2   44.64   12.79   0
   8  -8  -2   65.87   17.31   0
  -8  -8   2   79.51   13.16   0
  -6  -8   2  115.82   14.71   0
   6  -8  -2   63.57   20.25   0
  -4  -8   2   88.83   15.33   0
   4  -8  -2   81.96   21.47   0
  -2  -8   2  131.62   18.37   0
   2  -8  -2  125.85   19.58   0
   0  -8   2  125.52   24.22   0
   0  -8  -2  148.81   18.37   0
  -2  -8  -2  129.86   15.73   0
   2  -8   2   88.87   23.67   0
   4  -8   2  207.92    9.80   0
  -4  -8  -2  142.96   13.71   0
   4  -8   2   98.04   19.41   0
  -6  -8  -2  144.18   12.74   0
   6   8   2  136.30   15.34   0
   6  -8   2  126.32   15.55   0
   6  -8   2  227.15   10.29   0
   8   8   2   90.49   17.05   0
   8  -8   2   77.08   16.72   0
   8  -8   2  138.65    8.88   0
  -8  -8  -2  102.32   12.38   0
  10  -8   2  128.01    8.98   0
 -10  -8  -2   77.45   12.29   0
  10  -8   2   61.44   14.45   0
  10   8   2   72.50   19.23   0
   9  -9  -2   74.71   18.69   0
  -9  -9   2   88.20   13.41   0
   7  -9  -2   43.56   21.34   0
  -7  -9   2   60.65   14.54   0
   5  -9  -2   54.24   27.32   0
  -5  -9   2   70.86   14.36   0
  -3  -9   2   42.97   18.25   0
   3  -9  -2   36.08   23.32   0
   1  -9  -2   45.82   19.23   0
  -1  -9   2   47.24   19.42   0
  -1  -9  -2   34.09   16.44   0
   1  -9   2   12.50   24.21   0
  -3  -9  -2   22.76   14.41   0
   3  -9   2   33.81   28.63   0
   3  -9   2   52.77    9.67   0
   5  -9   2 27.68    8.52   0
   5  -9   2    5.30   23.50   0
  -5  -9  -2   32.81   13.26   0
  25  -1  -3   22.65    9.53   0
  25   1  -3   29.19   10.43   0
  23  -1  -3   55.58    9.25   0
  23   1  -3   33.54    9.50   0
  21   1  -3   68.59    9.46   0
 -21  -1   3   65.32    7.71   0
  21  -1  -3   64.47    8.76   0
 -19  -1   3   33.47    8.56   0
  19  -1  -3   33.07    8.17   0
  19   1  -3   21.08    9.05   0
  17   1  -3  196.47   10.66   0
 -17  -1   3  271.22    9.11   0
  17  -1  -3  239.50    8.97   0
  15   1  -3   95.66   10.36   0
  15  -1  -3  116.60    8.15   0
 -15  -1   3  119.11    7.75   0
  13  -1  -3  100.19    8.22   0
  13   1  -3   71.98   10.11   0
 -13  -1   3   94.70    8.02   0
  11   1  -3   76.70    9.90   0
  11  -1  -3   93.70    9.19   0
 -11  -1   3   90.75    8.67   0
   9  -1  -3    8.57    7.92   0
   9   1  -3    8.44    9.99   0
  -9  -1   3    8.69    7.60   0
  -7  -1   3  136.16   11.11   0
   7   1  -3  119.28   13.97   0
  -5  -1   3  318.75   19.37   0
   5   1  -3  243.79   21.69   0
  -3   1   3  171.79   19.22   0
   3  -1  -3  173.59   19.11   0
   1   1  -3   22.95   11.37   0
  -1   1   3   28.79   16.49   0
  -1  -1   3   23.43   10.98   0
   1  -1  -3    2.71   15.44   0
   1   1   3    3.58   11.74   0
  -1   1  -3    5.66    8.95   0
  -1  -1  -3    6.67   11.47   0
   1  -1   3    9.50    9.18   0
   3   1   3    9.70    9.97   0
   3  -1   3   16.81    8.59   0
  -3  -1  -3   10.05    9.49   0
  -3   1  -3   14.55    8.37   0
  -5   1  -3   48.45    7.78   0
  -5  -1  -3   42.89    8.65   0
   5  -1   3   43.36    7.98   0
   5   1   3   39.96    9.13   0
  -7  -1  -3  254.57    8.93   0
   7  -1   3  254.05    8.37   0
  -7   1  -3  244.77    8.32   0
   7   1   3  216.79   10.74   0
  -9  -1  -3   33.07    7.80   0
  -9   1  -3   29.38    7.27   0
   9  -1   3   23.49    7.50   0
   9   1   3   19.00    8.42   0
  11   1   3    9.87    8.60   0
 -11   1  -3   -1.02    7.34   0
  11  -1   3   -0.47    7.61   0
 -11  -1  -3   17.73    7.86   0
 -13   1  -3    3.38    7.36   0
  13  -1   3    6.07    7.64   0
  13   1   3   15.69    8.55   0
 -13  -1  -3    3.50    7.73   0
  15   1   3   17.98    9.10   0
 -15   1  -3   15.97    7.57   0
 -15  -1  -3   34.72    8.07   0
  15  -1   3    0.51    8.02   0
  17   1   3   20.68    9.13   0
 -17   1  -3    5.58    7.98   0
 -17  -1  -3   16.77    8.29   0
  17  -1   3   14.23    8.68   0
  19  -1   3   -3.45    9.05   0
  19   1   3   -4.51    9.74   0
 -19  -1  -3   -3.60    8.26   0
 -21  -1  -3    8.94    8.94   0
  21  -1   3    7.37    9.88   0
  21   1   3   13.57   10.50   0
  26   2  -3   21.80   13.66   0
  26  -2  -3   10.58    9.85   0
  24   2  -3   26.86   12.40   0
  24  -2  -3   13.03    8.87   0
 -24  -2   3   16.37    8.05   0
  22   2  -3    7.04   10.51   0
  22  -2  -3   10.50    8.50   0
 -22  -2   3   12.43    7.39   0
  20  -2  -3   31.94    8.16   0
  20   2  -3   28.29   10.76   0
 -20  -2   3   37.89    7.71   0
  18   2  -3    8.18   10.87   0
  18  -2  -3    4.19    7.47   0
 -18  -2   3   -3.09    7.38   0
 -16  -2   3   12.69    8.26   0
  16   2  -3   24.18    9.25   0
  16  -2  -3    9.63    8.11   0
  14   2  -3    9.41    9.20   0
 -14  -2   3    3.84    7.25   0
  14  -2  -3   12.76    7.37   0
 -12  -2   3   91.40    7.49   0
  12   2  -3   66.54    9.35   0
  12  -2  -3   89.56    7.52   0
  10   2  -3   68.16   11.22   0
 -10  -2   3   80.61    8.88   0
   8   2  -3  415.34   16.85   0
  -8  -2   3  510.62   12.91   0
  -6  -2   3  520.57   18.46   0
   6   2  -3  371.78   29.25   0
  -4  -2   3   60.16   31.77   0
   4  -2  -3   87.92   12.15   0
  -2   2   3  338.87   18.68   0
   2  -2  -3  338.07   22.67   0
   0   2   3  515.51   19.43   0
   0  -2  -3  540.82   17.39   0
   0  -2   3  776.41   13.28   0
  -2  -2  -3  937.33   15.08   0
   2  -2   3 1223.72   12.83   0
   2   2   3  935.55   16.70   0
   4  -2   3 1002.33   11.47   0
  -4   2  -3  974.88   11.66   0
  -4  -2  -3  786.73   14.02   0
   4   2   3  727.07   14.97   0
  -6   2  -3  792.00   10.39   0
   6  -2   3  794.43   10.33   0
  -6  -2  -3  688.46   11.48   0
   6   2   3  612.94   12.60   0
   8   2   3  419.19   10.83   0
  -8  -2  -3  455.52   10.04   0
   8  -2   3  529.22    9.19   0
  -8   2  -3  536.10    9.11   0
 -10  -2  -3  410.41    9.94   0
  10  -2   3  439.58    9.18   0
 -10   2  -3  451.77    9.12   0
  10   2   3  374.02   10.97   0
  12   2   3  223.61   10.20   0
 -12  -2  -3  236.65    8.87   0
  12  -2   3  279.35    8.49   0
 -12   2  -3  271.64    8.39   0
  14  -2   3  424.75    9.12   0
 -14  -2  -3  430.50    9.63   0
  14   2   3  329.79   10.85   0
  16   2   3  222.30   10.06   0
  16  -2   3  263.59    9.11   0
 -16  -2  -3  276.22    9.06   0
 -18  -2  -3  155.59    8.80   0
  18   2   3  116.67   10.35   0
  18  -2   3  148.43    8.89   0
  20   2   3   65.62   11.31   0
 -20  -2  -3   77.92    9.05   0
  20  -2   3   84.43    9.32   0
  25  -3  -3  113.33    9.76   0
 -25  -3   3  128.17    8.88   0
  25   3  -3   73.56   13.68   0
 -23  -3   3  303.51    9.44   0
  23   3  -3  191.52   13.20   0
  23  -3  -3  273.53    9.69   0
  21  -3  -3  356.62    9.34   0
  21   3  -3  262.59   12.33   0
 -21  -3   3  406.55   10.67   0
 -19  -3   3  622.68   11.36   0
  19   3  -3  394.49   13.16   0
  19  -3  -3  572.30    9.51   0
  17   3  -3  468.62   14.61   0
  17  -3  -3  713.41    9.71   0
 -17  -3   3  761.52   11.38   0
  15   3  -3  875.01   14.73   0
  15  -3  -3 1238.83   11.18   0
 -15  -3   3 1259.94   12.83   0
 -13  -3   3 1292.90   13.75   0
  13  -3  -3 1231.83   11.22   0
  13   3  -3  892.28   17.20   0
 -11  -3   3  627.88   11.47   0
  11   3  -3  425.06   15.39   0
   9   3  -3 1103.61   24.76   0
  -9  -3   3 1477.55   16.92   0
  -7  -3   3 1594.52   20.14   0
   7   3  -3 1133.99   32.71   0
  -5  -3   3 1112.46   25.50   0
   5  -3  -3 1130.59   16.33   0
   5   3  -3 1152.82   22.72   0
  -3  -3   3  944.45   26.13   0
  -3   3   3 1100.06   17.04   0
   3  -3  -3 1076.52   20.20   0
   1  -3  -3  965.74   24.31   0
  -1   3   3  969.46   21.03   0
  -1  -3  -3  626.55   16.21   0
   1   3   3  486.93   21.62   0
   1  -3   3  924.03   12.08   0
  -3  -3  -3  347.13   12.27   0
   3   3   3  313.48   15.41   0
   3  -3   3  447.18    9.43   0
  -5  -3  -3  423.86   11.28   0
   5  -3   3  550.53   10.42   0
   5   3   3  378.70   13.88   0
   7   3   3  292.34   13.22   0
  -7  -3  -3  326.66    9.95   0
   7  -3   3  383.66    8.52   0
   9   3   3  110.70   10.77   0
  -9  -3  -3  145.96    9.19   0
   9  -3   3  169.04    8.32   0
  11  -3   3   43.47    7.78   0
  11   3   3   22.46   11.98   0
 -11  -3  -3   30.06    9.38   0
 -13  -3  -3    0.42    7.83   0
  13   3   3    3.45   10.13   0
  13  -3   3    6.47    7.82   0
  15  -3   3   19.96    7.95   0
  15   3   3   21.07   11.81   0
 -15  -3  -3   22.35    8.24   0
  17  -3   3   22.39    8.42   0
 -17  -3  -3   13.30    9.51   0
  17   3   3   29.21   12.65   0
  19  -3   3   31.11    8.88   0
 -19  -3  -3   -0.55    8.75   0
  19   3   3    0.98   11.82   0
 -24  -4   3   10.21    8.41   0
  24   4  -3    3.09   15.94   0
  24  -4  -3   23.89    9.05   0
  22   4  -3   16.44   16.38   0
 -22  -4   3    2.17    8.04   0
  22  -4  -3    5.32    8.46   0
  20  -4  -3   -2.86    7.96   0
 -20  -4   3    3.65    7.79   0
  20   4  -3   -7.24   16.24   0
 -18  -4   3   12.71    8.89   0
  18  -4  -3    5.99    7.70   0
  18   4  -3   19.26   15.61   0
  16   4  -3   57.84   15.84   0
  16  -4  -3   66.01    7.78   0
 -16  -4   3   63.37    8.95   0
 -14  -4   3  127.49    9.54   0
  14  -4  -3  125.97    8.14   0
  14   4  -3  100.56   19.00   0
  12   4  -3   79.68   21.57   0
 -12  -4   3  136.86   11.26   0
 -10  -4   3  197.28   11.64   0
  10   4  -3  130.17   23.37   0
  -8  -4   3  240.81   12.57   0
   8  -4  -3  202.76   10.00   0
   8   4  -3  176.19   17.99   0
  -6  -4   3  491.25   17.03   0
   6  -4  -3  488.11   12.44   0
   6   4  -3  465.14   15.78   0
  -4  -4   3  519.82   24.41   0
   4  -4  -3  579.46   18.11   0
  -2  -4   3  747.73   18.96   0
   2  -4  -3  612.78   22.90   0
  -2   4   3  774.36   15.43   0
   0   4   3  274.94   17.89   0
   0  -4  -3  295.48   19.26   0
  -2  -4  -3  829.76   15.93   0
   2   4   3  702.89   25.17   0
   2  -4   3 1211.91   12.26   0
   4   4   3  603.73   22.07   0
   4  -4   3 1330.70   11.87   0
  -4  -4  -3  964.84   14.15   0
   6   4   3  594.93   16.97   0
   6  -4   3 1023.35   10.74   0
  -6  -4  -3  804.57   12.44   0
  -8  -4  -3 1061.82   12.54   0
   8  -4   3 1357.16   11.66   0
   8   4   3  860.85   16.06   0
 -10  -4  -3  913.19   12.17   0
  10   4   3  742.72   15.74   0
  10  -4   3 1085.66   10.77   0
  12   4   3  561.54   16.51   0
 -12  -4  -3  716.50   12.86   0
  12  -4   3  856.19   10.37   0
  14  -4   3  397.52    9.24   0
 -14  -4  -3  329.99   10.19   0
  14   4   3  256.65   13.30   0
  16   4   3  303.16   14.32   0
  16  -4   3  471.43    9.82   0
 -16  -4  -3  412.31   10.46   0
  18   4   3  176.27   14.42   0
  18  -4   3  247.92    9.92   0
 -18  -4  -3  237.05   10.24   0
  23  -5  -3  156.86    9.89   0
 -23  -5   3  186.17   11.16   0
  23   5  -3   83.52   26.15   0
  21   5  -3  204.92   24.46   0
  21  -5  -3  396.93    9.83   0
 -21  -5   3  407.72   11.35   0
  19   5  -3  264.34   26.61   0
 -19  -5   3  506.66   11.43   0
  19  -5  -3  468.90    9.86   0
  17   5  -3  366.20   25.22   0
  17  -5  -3  670.52   11.27   0
 -17  -5   3  671.25   11.98   0
  15  -5  -3  910.78   10.84   0
  15   5  -3  344.39   30.39   0
 -15  -5   3  818.97   13.05   0
 -13  -5   3  962.36   14.60   0
  13   5  -3  516.91   27.80   0
  13  -5  -3  955.91   10.50   0
 -11  -5   3 1113.66   15.47   0
  11   5  -3  796.67   25.84   0
   9  -5  -3  871.48   13.39   0
   9   5  -3  798.10   20.05   0
  -9  -5   3  982.78   16.00   0
   7   5  -3 1036.31   18.68   0
   7  -5  -3 1095.79   14.92   0
  -7  -5   3 1132.97   18.80   0
  -5  -5   3  920.96   21.84   0
   5  -5  -3  832.40   17.54   0
   3  -5  -3  383.76   20.75   0
  -3  -5   3  372.69   22.64   0
   1  -5  -3  608.55   21.40   0
  -1  -5   3  714.01   19.03   0
  -1   5   3  699.03   15.87   0
   1  -5   3  682.33   15.75   0
  -1  -5  -3  683.75   16.94   0
   1   5   3  643.09   17.92   0
   3   5   3  431.46   19.76   0
  -3  -5  -3  545.34   15.06   0
   3  -5   3  778.31    9.95   0
   5  -5   3  341.91    8.13   0
   5   5   3  191.85   19.83   0
  -5  -5  -3  249.18   11.96   0
  -7  -5  -3  155.03    9.99   0
   7   5   3   94.04   17.56   0
   7  -5   3  210.57    8.13   0
   9   5   3   45.05   18.13   0
   9  -5   3   90.67    7.63   0
  -9  -5  -3   68.45   10.14   0
  11   5   3   19.79   15.02   0
  11  -5   3   31.53    7.78   0
 -11  -5  -3    9.83    8.78   0
  13  -5   3   54.77    8.03   0
 -13  -5  -3   49.55   10.19   0
  13   5   3   12.10   18.31   0
  15  -5   3   -0.68    8.37   0
 -15  -5  -3   17.97    8.88   0
  15   5   3   -1.17   15.33   0
  17   5   3    2.71   16.80   0
 -17  -5  -3    4.55    8.97   0
  17  -5   3    8.15    8.89   0
 -20  -6   3   -3.09    9.69   0
  20   6  -3   24.53   29.67   0
  20  -6  -3   -4.02    9.06   0
  18  -6  -3    7.38    8.59   0
 -18  -6   3    5.74    9.63   0
  18   6  -3    3.13   25.47   0
  16  -6  -3   40.62    8.31   0
 -16  -6   3   25.73    9.58   0
  16   6  -3    9.37   24.42   0
 -14  -6   3   70.81    9.97   0
  14  -6  -3   72.34    8.20   0
  14   6  -3   51.87   22.31   0
 -12  -6   3  218.22   12.02   0
  12  -6  -3  173.73   10.35   0
  12   6  -3  142.67   18.09   0
 -10  -6   3  158.82   12.52   0
  10  -6  -3  128.96   12.26   0
  10   6  -3  133.44   15.34   0
  -8  -6   3  231.41   13.48   0
   8  -6  -3  209.63   11.97   0
   8   6  -3  200.70   13.51   0
   6  -6  -3  271.56   13.75   0
  -6  -6   3  316.43   15.81   0
   4  -6  -3  328.21   19.22   0
  -4  -6   3  371.15   20.01   0
   2  -6  -3  297.08   19.75   0
  -2  -6   3  315.30   24.49   0
   0   6   3  544.87   14.69   0
   0  -6  -3  448.75   18.76   0
   0  -6   3  463.57   18.53   0
   2  -6   3  398.16   15.78   0
  -2  -6  -3  461.03   14.66   0
   2   6   3  412.59   14.64   0
   4   6   3  366.72   17.03   0
  -4  -6  -3  520.43   14.74   0
   4  -6   3  742.44   11.00   0
   6  -6   3  646.82    9.74   0
   6   6   3  318.06   22.46   0
  -6  -6  -3  476.33   12.05   0
   8  -6   3  664.40   11.03   0
  -8  -6  -3  444.57   11.57   0
   8   6   3  348.56   27.69   0
 -10  -6  -3  465.55   11.53   0
  10   6   3  234.97   26.39   0
  10  -6   3  675.57   10.12   0
  12  -6   3  443.67    9.38   0
 -12  -6  -3  308.44   11.89   0
  12   6   3  163.94   23.95   0
  14  -6   3  378.01    9.57   0
  14   6   3  160.48   21.27   0
 -14  -6  -3  255.31   11.94   0
  16  -6   3  163.58    9.48   0
  19   7  -3   69.89   27.55   0
  19  -7  -3  159.37    9.96   0
 -19  -7   3  157.15   11.28   0
  17  -7  -3  210.08    9.77   0
  17  -7  -3  181.19   11.79   0
  17   7  -3  124.70   23.26   0
 -17  -7   3  214.98   11.29   0
  15  -7  -3  294.39   10.68   0
  15  -7  -3  202.33   12.28   0
  15   7  -3  186.69   20.00   0
 -15  -7   3  270.94   11.78   0
 -13  -7   3  323.06   13.09   0
  13   7  -3  258.50   17.49   0
  13  -7  -3  252.40   12.75   0
  11   7  -3  280.71   14.37   0
  11  -7  -3  295.83   12.45   0
 -11  -7   3  349.24   13.44   0
   9  -7  -3  308.33   13.88   0
  -9  -7   3  414.55   14.24   0
   7  -7  -3  282.99   15.16   0
  -7  -7   3  316.56   13.66   0
   5  -7  -3  203.31   20.18   0
  -5  -7   3  275.55   16.21   0
  -3  -7   3  240.20   22.30   0
   3  -7  -3  239.14   19.74   0
  -1  -7   3  145.04   22.67   0
   1  -7  -3  140.88   19.40   0
   1  -7   3  121.43   18.88   0
   1   7   3  160.04   12.01   0
  -1  -7  -3  169.60   16.41   0
   3   7   3   69.45   13.08   0
  -3  -7  -3   88.07   13.99   0
   3  -7   3  151.54    9.32   0
   3  -7   3   79.06   15.55   0
   5   7   3   47.99   15.10   0
   5  -7   3   93.08    8.74   0
   5  -7   3   72.72   12.23   0
  -5  -7  -3   89.42   12.29   0
   7   7   3   27.22   19.90   0
   7  -7   3   62.81    7.97   0
  -7  -7  -3   57.09   11.71   0
   9   7   3   18.23   24.72   0
  -9  -7  -3   40.88   11.26   0
   9  -7   3   49.33    8.25   0
 -11  -7  -3    9.67    9.77   0
  11  -7   3   20.06    8.30   0
  11   7   3   25.51   30.52   0
 -13  -7  -3   -3.13   11.27   0
  13   7   3   10.16   34.31   0
  13  -7   3   12.63    8.76   0
  16  -8  -3   13.36   10.33   0
 -16  -8   3   12.41   11.77   0
 -14  -8   3   13.07   11.88   0
  14  -8  -3   23.35    8.64   0
  14  -8  -3   12.18   13.46   0
  14   8  -3   26.13   15.70   0
 -12  -8   3   17.14   13.11   0
  12  -8  -3   12.55   14.88   0
  10  -8  -3   34.78   14.26   0
 -10  -8   3   48.79   12.24   0
  -8  -8   3   35.77   13.65   0
   8  -8  -3   52.68   15.72   0
  -6  -8   3   69.57   14.95   0
   6  -8  -3   50.65   19.53   0
  -4  -8   3   46.68   15.49   0
   4  -8  -3   50.25   23.26   0
   2  -8  -3   30.96   20.24   0
  -2  -8   3   36.88   21.47   0
   0  -8  -3   75.71   15.45   0
   0  -8   3   76.69   23.79   0
   2  -8   3  196.63    8.78   0
   2  -8   3  103.92   22.09   0
  -2  -8  -3  151.70   13.28   0
   4  -8   3   55.66   16.15   0
  -4  -8  -3   76.26   13.39   0
   4   8   3   61.92   12.81   0
   4  -8   3  114.89    9.69   0
  -6  -8  -3   89.99   11.40   0
   6  -8   3  142.28   10.01   0
   6  -8   3   94.73   17.43   0
   6   8   3   68.90   14.84   0
   8   8   3   74.05   19.51   0
  -8  -8  -3   70.93   12.58   0
   8  -8   3  128.29   10.14   0
   8  -8   3   64.05   14.94   0
  10   8   3   47.12   22.19   0
  10  -8   3   87.55    8.87   0
  10  -8   3   59.29   16.76   0
 -10  -8  -3   61.21   12.22   0
  -9  -9   3   53.40   13.54   0
   9  -9  -3   27.80   21.74   0
   7  -9  -3   59.00   21.47   0
  -7  -9   3   26.50   14.64   0
   5  -9  -3   25.62   25.55   0
  -5  -9   3   30.68   16.40   0
   3  -9  -3   19.73   19.27   0
  -3  -9   3   33.69   16.77   0
   1  -9  -3    9.83   18.29   0
  -1  -9   3   17.15   20.90   0
   1  -9   3    8.60   26.11   0
  -1  -9  -3   28.15   16.43   0
   1  -9   3   18.14    9.91   0
   3  -9   3   13.19   27.37   0
   3  -9   3    6.88    9.59   0
  -3  -9  -3   14.49   14.23   0
   5  -9   3    0.82   23.26   0
  -5  -9  -3   18.86   12.21   0
   5  -9   3   17.55    9.84   0
  26   0  -4   78.76   10.22   0
  24   0  -4   66.22   11.03   0
  22   0  -4   65.36    9.08   0
  20   0  -4  279.59    9.61   0
  18   0  -4   14.16    9.79   0
  16   0  -4   26.85    9.65   0
  14   0  -4   61.63    8.59   0
  12   0  -4   41.75    8.15   0
  10   0  -4  160.92    9.82   0
   4   0  -4 2528.80   47.50   0
  -4   0   4 2508.47   47.11   0
   2   0  -4  368.08   15.99   0
  -2   0   4  389.61   15.88   0
   0   0   4 1402.75   17.98   0
   0   0  -4 1297.91   16.77   0
   2   0   4  729.21   12.37   0
  -2   0  -4  696.85   12.30   0
   4   0   4 2652.47   16.50   0
  -4   0  -4 2614.59   16.47   0
  -6   0  -4 1416.40   12.29   0
   6   0   4 1449.91   12.52   0
  -8   0  -4 1711.25   12.43   0
   8   0   4 1664.85   12.79   0
 -10   0  -4 1103.47   10.99   0
  10   0   4  952.55   11.22   0
  12   0   4  892.87   10.79   0
 -12   0  -4  993.38   10.81   0
 -14   0  -4  537.40    9.64   0
  14   0   4  438.50    9.88   0
  16   0   4  431.47   10.63   0
 -16   0  -4  516.56   10.09   0
 -18   0  -4  413.99   10.33   0
  18   0   4  358.27   10.80   0
 -20   0  -4  286.43   10.51   0
  20   0   4  238.59   11.31   0
  27  -1  -4  162.63   10.80   0
  27   1  -4  168.34   12.06   0
  25   1  -4  243.33   11.24   0
  25  -1  -4  262.49   10.55   0
  23   1  -4  355.67   11.95   0
  23  -1  -4  406.04   10.38   0
  21  -1  -4  902.83   11.55   0
  21   1  -4  798.47   13.21   0
  19   1  -4 1197.42   12.80   0
  19  -1  -4 1299.83   12.06   0
 -19  -1   4 1519.82   11.74   0
  17  -1  -4 1344.11   12.14   0
  17   1  -4 1273.53   13.84   0
 -17  -1   4 1567.15   12.20   0
 -15  -1   4 1735.86   13.84   0
  15  -1  -4 1553.62   12.56   0
  15   1  -4 1355.45   13.55   0
  13   1  -4 1767.88   16.17   0
  13  -1  -4 1964.86   14.01   0
 -13  -1   4 2177.85   15.42   0
  11  -1  -4 3390.38   17.85   0
  11   1  -4 2998.95   20.59   0
 -11  -1   4 3645.28   20.56   0
   9   1  -4 2859.02   23.77   0
  -9  -1   4 3441.47   23.99   0
   7   1  -4 3457.86   34.71   0
   5  -1  -4 4105.58   32.28   0
  -5   1   4 3904.81   32.82   0
   3   1  -4 2678.40   33.05   0
   3  -1  -4 1936.85   34.16   0
  -3  -1   4 2813.46   33.75   0
  -3   1   4 1970.69   34.77   0
   1  -1  -4 3029.74   27.05   0
   1   1  -4 3637.52   26.28   0
  -1   1   4 3167.54   27.86   0
  -1  -1   4 3814.56   26.28   0
  -1   1  -4 2163.97   17.24   0
   1  -1   4 2229.02   17.22   0
   1   1   4 1931.01   18.41   0
  -1  -1  -4 1903.06   18.30   0
  -3  -1  -4 3206.51   19.11   0
   3   1   4 3199.90   19.37   0
  -3   1  -4 3608.85   18.83   0
   3  -1   4 3554.25   18.54   0
  -5  -1  -4 1153.41   12.57   0
   5   1   4 1115.82   13.05   0
   5  -1   4 1251.07   12.05   0
  -5   1  -4 1270.53   13.03   0
   7  -1   4  557.78    9.60   0
  -7   1  -4  583.28    9.44   0
   7   1   4  497.12   10.54   0
  -7  -1  -4  522.97   10.19   0
  -9  -1  -4  415.25    9.66   0
   9  -1   4  446.68    9.37   0
  -9   1  -4  486.41    9.25   0
   9   1   4  401.35   10.19   0
 -11  -1  -4  393.45    9.30   0
  11   1   4  340.41   11.39   0
  11  -1   4  376.35    8.84   0
 -11   1  -4  404.60    8.73   0
  13  -1   4  171.76    8.42   0
 -13   1  -4  170.77    8.33   0
 -13  -1  -4  172.92    8.63   0
  13   1   4  152.63    9.57   0
  15  -1   4   40.99    8.13   0
 -15   1  -4   49.72    7.95   0
 -15  -1  -4   55.09    8.24   0
  15   1   4   24.11    9.03   0
 -17   1  -4    8.52    8.10   0
 -17  -1  -4   19.01    8.34   0
  17  -1   4   12.52    8.48   0
  17   1   4   -2.47    9.44   0
 -19  -1  -4    2.38    8.89   0
  19  -1   4   11.83    9.11   0
  19   1   4    7.20   10.30   0
  26   2  -4   43.21   13.73   0
  26  -2  -4   44.77    9.99   0
  24  -2  -4   42.84    9.25   0
  24   2  -4   39.14   12.27   0
  22   2  -4   74.18   10.36   0
 -22  -2   4   88.77    9.07   0
  22  -2  -4   88.66    8.48   0
  20   2  -4    7.61   11.42   0
  20  -2  -4   18.17    7.97   0
 -20  -2   4   12.26    8.60   0
 -18  -2   4   94.56    7.56   0
  18   2  -4   56.66   10.96   0
  18  -2  -4   92.92    8.12   0
 -16  -2   4   15.63    7.13   0
  16   2  -4   -6.33   10.45   0
  16  -2  -4   12.27    7.85   0
 -14  -2   4   18.86    8.38   0
  14  -2  -4   28.25    7.55   0
  14   2  -4   18.90   10.23   0
  12   2  -4   39.63   10.17   0
 -12  -2   4   48.76    9.49   0
 -10  -2   4  110.43   10.42   0
  10   2  -4   85.50   12.99   0
  -8  -2   4  216.48   13.60   0
   8   2  -4  172.49   20.39   0
   6   2  -4  165.31   28.29   0
  -6  -2   4  173.37   21.71   0
   6  -2  -4  177.21   11.42   0
  -4  -2   4  118.13   15.33   0
  -4   2   4   80.48   13.87   0
   4  -2  -4   87.16   15.15   0
  -2   2   4 1805.61   28.59   0
   2  -2  -4 1696.31   27.95   0
  -2  -2   4 2872.40   23.91   0
   0  -2   4 2038.89   17.08   0
   0   2   4 1472.04   20.74   0
   0   2  -4 1949.55   16.64   0
   0  -2  -4 1595.03   19.72   0
  -2  -2  -4 1361.68   15.67   0
   2   2   4 1287.33   17.13   0
  -2   2  -4 1636.58   14.27   0
   2  -2   4 1676.71   13.95   0
  -4  -2  -4 1181.14   13.56   0
   4   2   4 1063.56   14.21   0
   4  -2   4 1349.05   12.44   0
  -4   2  -4 1325.84   12.56   0
  -6   2  -4 1353.24   11.86   0
   6  -2   4 1386.53   11.76   0
  -6  -2  -4 1218.52   12.78   0
   6   2   4 1130.17   13.50   0
   8   2   4  589.11   11.55   0
  -8   2  -4  743.35   11.07   0
  -8  -2  -4  684.35   10.86   0
   8  -2   4  735.75    9.90   0
 -10  -2  -4  744.76   11.12   0
 -10   2  -4  861.39   10.61   0
  10  -2   4  849.14   10.33   0
  10   2   4  710.91   11.99   0
 -12  -2  -4  617.84   10.06   0
 -12   2  -4  692.04   10.06   0
  12   2   4  533.67   11.12   0
  12  -2   4  659.63    9.96   0
  14   2   4  429.25   11.36   0
  14  -2   4  514.17    9.59   0
 -14  -2  -4  492.76   10.09   0
  16   2   4  216.49   10.85   0
 -16  -2  -4  271.53   10.81   0
  16  -2   4  240.26    9.29   0
  18  -2   4  199.93    9.28   0
 -18  -2  -4  201.77    9.59   0
  18   2   4  157.07   11.17   0
  25   3  -4   80.86   15.49   0
  25  -3  -4  143.52    9.93   0
 -25  -3   4  136.00   10.00   0
  23  -3  -4  184.95    9.49   0
  23   3  -4  116.16   14.30   0
 -23  -3   4  181.91    8.60   0
 -21  -3   4  187.77    9.40   0
  21   3  -4  129.19   11.90   0
  21  -3  -4  182.90    8.63   0
  19   3  -4  275.36   13.84   0
 -19  -3   4  447.79    9.91   0
  19  -3  -4  397.60    9.48   0
 -17  -3   4  670.23   11.05   0
  17   3  -4  423.80   14.82   0
  17  -3  -4  584.67    9.54   0
  15   3  -4  422.67   14.90   0
  15  -3  -4  596.01    9.75   0
 -15  -3   4  638.49   11.36   0
 -13  -3   4  901.87   13.41   0
  13   3  -4  591.89   16.66   0
  11   3  -4  897.11   23.30   0
 -11  -3   4 1048.24   15.24   0
   9   3  -4  712.60   31.48   0
  -9  -3   4  974.10   16.21   0
   7   3  -4 1045.34   25.98   0
   7  -3  -4 1081.06   14.82   0
  -7  -3   4 1197.56   22.06   0
   5  -3  -4 1315.70   18.81   0
  -5  -3   4 1167.58   34.80   0
   3  -3  -4 1058.93   24.07   0
  -3   3   4 1331.68   20.45   0
   1  -3  -4  652.93   19.01   0
  -1  -3   4 1068.96   14.05   0
  -1   3   4  703.42   21.34   0
   1  -3   4 1352.03   13.45   0
   1   3   4  829.78   19.55   0
  -1  -3  -4  957.34   17.78   0
  -3  -3  -4  705.81   13.04   0
   3   3   4  620.95   15.60   0
   3  -3   4  939.68   11.90   0
   5   3   4  537.12   13.36   0
  -5  -3  -4  586.81   11.68   0
   5  -3   4  737.34    9.86   0
   7   3   4  391.00   12.28   0
  -7  -3  -4  389.18   10.43   0
   7  -3   4  501.77    9.25   0
  -9  -3  -4  165.45   10.69   0
   9   3   4  140.19   11.23   0
   9  -3   4  196.96    8.37   0
  11  -3   4   98.26    7.98   0
  11   3   4  107.49   10.48   0
 -11  -3  -4   94.01    8.63   0
  13   3   4   48.20   10.51   0
  13  -3   4   50.13    7.86   0
 -13  -3  -4   51.96    8.64   0
  15  -3   4   28.81    8.44   0
  15   3   4   32.89   10.39   0
 -15  -3  -4   21.57    9.28   0
  17  -3   4   19.67    8.74   0
 -17  -3  -4   26.32    8.80   0
  17   3   4   21.22   11.14   0
  19  -3   4    4.13    9.25   0
 -19  -3  -4    3.21    9.02   0
  19   3   4   14.35   11.66   0
  24  -4  -4    3.55    8.79   0
  24   4  -4    4.47   16.28   0
 -24  -4   4   10.44    9.35   0
  22  -4  -4    1.58    8.19   0
  22   4  -4    8.02   17.33   0
 -22  -4   4   -5.05    8.78   0
 -20  -4   4   15.94    8.54   0
  20  -4  -4   10.52    8.08   0
  20   4  -4   30.45   15.79   0
  18   4  -4   -2.97   15.63   0
 -18  -4   4    0.68    8.54   0
  18  -4  -4    0.51    7.72   0
  16  -4  -4   44.23    7.47   0
 -16  -4   4   43.40    8.89   0
  16   4  -4   27.94   18.82   0
 -14  -4   4    0.70    9.09   0
  14   4  -4   -1.08   20.45   0
  12   4  -4    3.56   24.63   0
 -12  -4   4    5.39   10.17   0
  10   4  -4   65.93   21.93   0
 -10  -4   4   80.21   11.28   0
   8  -4  -4   37.16    9.64   0
  -8  -4   4   48.28   12.98   0
   8   4  -4   43.66   15.14   0
   6  -4  -4   37.30   11.38   0
  -6  -4   4   35.53   16.94   0
  -4  -4   4   52.94   22.20   0
   4  -4  -4   59.18   17.62   0
  -4   4   4   73.07   12.71   0
   2  -4  -4   73.07   18.21   0
  -2  -4   4   70.74   12.07   0
  -2   4   4   65.71   15.57   0
   0   4   4  640.33   21.54   0
   0  -4  -4  671.87   17.42   0
   0  -4   4 1142.29   12.30   0
   2  -4   4  533.49   10.12   0
   2   4   4  274.21   18.93   0
  -2  -4  -4  371.35   14.56   0
   4   4   4  168.07   15.41   0
  -4  -4  -4  217.20   12.43   0
   4  -4   4  314.90    9.79   0
   6  -4   4  168.32    8.21   0
   6   4   4  125.89   13.33   0
  -6  -4  -4  134.47    9.85   0
  -8  -4  -4   99.39    9.43   0
   8  -4   4  127.50    8.08   0
   8   4   4   94.90   12.82   0
  10  -4   4  105.56    7.90   0
 -10  -4  -4   71.41    9.94   0
  10   4   4   81.70   11.83   0
  12   4   4   73.26   12.26   0
 -12  -4  -4   92.23    9.04   0
  12  -4   4  101.23    8.25   0
  14   4   4   92.28   15.05   0
  14  -4   4   95.97    8.83   0
 -14  -4  -4   94.39    8.88   0
  16   4   4   11.25   12.87   0
 -16  -4  -4   30.83    8.72   0
  16  -4   4   37.51    8.67   0
  18   4   4   36.58   13.95   0
  18  -4   4   23.15    9.38   0
 -18  -4  -4   28.81   10.61   0
  23  -5  -4   10.47    8.71   0
  23   5  -4   -1.00   26.79   0
 -23  -5   4    8.87    9.73   0
  21   5  -4   10.96   24.19   0
 -21  -5   4    3.21    9.59   0
  21  -5  -4  -11.89    8.44   0
  19   5  -4   34.27   26.72   0
 -19  -5   4    6.89    9.17   0
  19  -5  -4    3.69    8.10   0
  17  -5  -4   19.97    7.83   0
  17   5  -4   17.04   24.97   0
 -17  -5   4    3.96    9.35   0
  15   5  -4   -1.94   27.11   0
 -15  -5   4   18.03   10.65   0
  15  -5  -4   10.06    7.96   0
 -13  -5   4   12.07   10.29   0
  13   5  -4   13.43   20.25   0
 -11  -5   4    7.30   10.51   0
  11   5  -4   10.74   15.79   0
  11  -5  -4   11.43    9.35   0
   9   5  -4   52.71   14.91   0
  -9  -5   4   61.79   12.12   0
   9  -5  -4   47.88   10.60   0
   7  -5  -4   33.43   12.99   0
  -7  -5   4   37.72   13.81   0
  -5  -5   4    5.60   18.30   0
   5  -5  -4    2.22   13.36   0
  -3  -5   4   -5.58   19.35   0
  -3   5   4   -4.88   10.76   0
   3  -5  -4    0.31   16.71   0
  -1  -5   4    3.67   13.92   0
   1  -5  -4   21.22   16.27   0
  -1   5   4    1.17   14.53   0
   1   5   4   12.42   15.62   0
  -1  -5  -4    9.33   14.80   0
   1  -5   4    9.49    8.24   0
   3  -5   4   25.05    8.04   0
  -3  -5  -4   36.13   10.82   0
   3   5   4   16.99   19.72   0
   5   5   4   15.07   17.74   0
  -5  -5  -4   26.58   10.02   0
   5  -5   4   29.46    8.81   0
   7   5   4    4.11   15.22   0
   7  -5   4    2.39    7.34   0
  -7  -5  -4    1.72    8.92   0
  -9  -5  -4   -2.22    8.98   0
   9  -5   4   -7.88    7.17   0
   9   5   4   -3.90   17.39   0
  11  -5   4    8.05    8.81   0
 -11  -5  -4   -7.44   10.30   0
  11   5   4   -2.32   17.78   0
  13  -5   4    1.69    8.04   0
 -13  -5  -4   17.33   10.08   0
  13   5   4   31.51   16.83   0
  15   5   4   10.97   15.25   0
  15  -5   4   10.77    8.54   0
 -15  -5  -4   -0.72    8.92   0
  22   6  -4    8.28   31.27   0
  22  -6  -4    5.21    9.19   0
 -22  -6   4    7.15   11.04   0
  20   6  -4    0.89   25.09   0
  20  -6  -4    8.37    8.82   0
 -20  -6   4   -0.93   10.84   0
  18   6  -4   20.85   25.03   0
  18  -6  -4    8.86    8.40   0
 -18  -6   4    9.36    9.35   0
 -16  -6   4    5.34   10.27   0
  16  -6  -4   14.82    8.08   0
  16   6  -4   -2.72   23.51   0
  14  -6  -4    7.45   10.12   0
 -14  -6   4    6.64   10.64   0
  14   6  -4    6.17   17.77   0
 -12  -6   4   13.01   11.95   0
  12  -6  -4    1.89   10.25   0
  12   6  -4   -4.71   15.22   0
 -10  -6   4   13.07   12.56   0
  10   6  -4    2.02   12.80   0
  10  -6  -4    6.52   12.28   0
  -8  -6   4   -5.74   12.13   0
   8  -6  -4    6.10   11.35   0
   6  -6  -4   12.05   13.61   0
  -6  -6   4   12.03   14.66   0
   4  -6  -4   12.50   17.34   0
  -4  -6   4    9.84   20.02   0
  -2  -6   4   16.23   21.44   0
   2  -6  -4    9.19   18.12   0
   0  -6   4   15.73   17.20   0
   0  -6  -4   19.26   14.13   0
   0   6   4    7.55   12.35   0
   2  -6   4    9.73   12.95   0
   2  -6   4    3.08    8.46   0
   2   6   4    6.52   14.58   0
  -2  -6  -4  -17.08   12.14   0
   4   6   4   -7.63   19.33   0
   4  -6   4   -1.30    8.61   0
  -4  -6  -4    3.89   12.55   0
   6   6   4   30.58   23.35   0
   6  -6   4   36.50    8.02   0
  -6  -6  -4   23.51   11.45   0
  -8  -6  -4    9.28    9.36   0
   8   6   4   45.64   20.08   0
   8  -6   4   25.09    7.70   0
  10   6   4    4.62   19.90   0
 -10  -6  -4    5.37   11.09   0
  10  -6   4   19.33    8.13   0
  12   6   4   30.18   22.03   0
 -12  -6  -4   27.08   10.84   0
  12  -6   4   20.26    9.61   0
  14  -6   4   44.31    8.85   0
  14   6   4    9.52   22.92   0
 -14  -6  -4   46.93   10.90   0
  19  -7  -4   39.10   11.52   0
  19   7  -4   15.60   23.16   0
  19  -7  -4   32.96    9.31   0
 -19  -7   4   41.07   11.51   0
  17  -7  -4   57.27   10.29   0
 -17  -7   4   53.36   11.38   0
  17  -7  -4   46.25   11.55   0
  17   7  -4   34.93   19.12   0
  15  -7  -4   60.65   11.31   0
  15   7  -4   68.91   16.54   0
 -15  -7   4   88.31   11.68   0
  15  -7  -4   83.32    8.96   0
 -13  -7   4   86.83   12.81   0
  13   7  -4   54.02   14.71   0
  13  -7  -4   80.47   11.36   0
 -11  -7   4   58.93   11.92   0
  11  -7  -4   49.12   11.90   0
  -9  -7   4  102.52   13.81   0
   9  -7  -4   62.47   15.03   0
   7  -7  -4   41.73   15.00   0
  -7  -7   4   33.94   13.88   0
  -5  -7   4   91.65   17.70   0
   5  -7  -4   89.18   19.10   0
   3  -7  -4   87.16   19.46   0
  -3  -7   4   92.20   22.36   0
   1  -7  -4   61.34   15.99   0
  -1  -7   4   56.49   22.77   0
   1  -7   4   45.02    8.73   0
  -1  -7  -4   33.72   15.25   0
   1   7   4   30.08   12.67   0
   1  -7   4   31.33   17.43   0
   3   7   4   35.62   16.15   0
   3  -7   4   53.21   14.51   0
   3  -7   4   54.87    8.91   0
  -3  -7  -4   11.93   13.33   0
   5   7   4   20.12   17.09   0
  -5  -7  -4   43.98   12.08   0
   5  -7   4   71.90    9.42   0
   5  -7   4   47.26   13.90   0
   7   7   4   -2.28   24.97   0
   7  -7   4   25.79    9.41   0
  -7  -7  -4   13.66   11.64   0
  -9  -7  -4    9.73   11.68   0
   9  -7   4    7.01    9.42   0
   9   7   4   -3.40   29.94   0
 -11  -7  -4    9.24   11.54   0
  11  -7   4   11.91    8.31   0
  11   7   4   -7.70   25.49   0
  16   8  -4   -4.97   15.41   0
  16  -8  -4   -8.24    9.06   0
  16  -8  -4   11.73   14.64   0
 -16  -8   4   12.38   12.67   0
 -14  -8   4    3.56   12.48   0
  14  -8  -4   11.48   12.62   0
 -12  -8   4    4.77   11.53   0
  12  -8  -4    3.93   15.44   0
  10  -8  -4    7.39   14.54   0
 -10  -8   4    1.81   12.31   0
   8  -8  -4   40.37   19.28   0
  -8  -8   4   26.19   13.36   0
  -6  -8   4    7.69   15.16   0
   6  -8  -4   23.25   22.12   0
   4  -8  -4   29.76   20.39   0
  -4  -8   4   36.69   18.15   0
  -2  -8   4   32.05   23.10   0
   2  -8  -4   39.51   16.49   0
   0  -8   4   48.15   22.37   0
   0  -8   4   62.32    9.26   0
   0  -8  -4   49.84   16.53   0
   2  -8   4   42.12   21.64   0
   2   8   4   26.58   14.86   0
  -2  -8  -4   29.84   12.73   0
   2  -8   4   72.74    9.38   0
   4  -8   4   70.06   18.55   0
  -4  -8  -4   84.09   13.43   0
   4   8   4   80.69   16.40   0
   4  -8   4  131.66    9.65   0
   6   8   4   47.24   19.01   0
  -6  -8  -4   75.83   12.99   0
   6  -8   4   32.51   15.00   0
   6  -8   4  110.62    8.56   0
  -8  -8  -4   43.19   10.88   0
   8  -8   4  103.83   10.04   0
   8  -8   4   73.70   17.20   0
   8   8   4   54.32   19.00   0
  11  -9  -4   80.19   17.85   0
 -11  -9   4  121.72   14.98   0
   9  -9  -4   89.33   23.93   0
  -9  -9   4  121.96   14.28   0
   7  -9  -4  116.07   22.21   0
  -7  -9   4  135.10   15.63   0
   5  -9  -4   99.11   25.52   0
  -5  -9   4  109.67   17.08   0
  -3  -9   4   95.09   18.22   0
   3  -9  -4   90.70   18.65   0
   1  -9  -4   58.57   17.96   0
  -1  -9   4   92.06   24.56   0
  -1  -9   4  162.23   11.58   0
   1  -9   4   76.68   25.52   0
   1  -9   4  124.48   10.18   0
  -1  -9  -4   78.17   16.17   0
   3  -9   4   51.72   30.38   0
   3  -9   4  110.74   10.19   0
  -3  -9  -4   61.60   14.84   0
  27   1  -5   26.54   10.69   0
  27  -1  -5   15.24    9.89   0
  25   1  -5   21.06   10.37   0
  25  -1  -5   21.84    9.64   0
  23   1  -5   27.71    9.34   0
  23  -1  -5   62.59    8.88   0
  21   1  -5   29.64   10.54   0
  21  -1  -5   12.73    8.35   0
  19  -1  -5  209.58    8.94   0
  19   1  -5  178.02    9.15   0
  17   1  -5  152.22    9.48   0
  17  -1  -5  179.26    8.24   0
  15  -1  -5  284.61    8.88   0
  15   1  -5  269.02   10.54   0
  13  -1  -5  278.44    9.29   0
  13   1  -5  265.71   10.82   0
  11   1  -5   18.19    9.62   0
   9   1  -5  195.78   14.32   0
   7  -1  -5  196.82   12.04   0
   7   1  -5  218.26   21.10   0
  -5   1   5  627.31   23.18   0
  -5  -1   5  732.17   35.98   0
   5   1  -5  797.99   28.86   0
   5  -1  -5  666.54   22.19   0
  -3   1   5  385.43   18.41   0
   3  -1  -5  339.02   19.32   0
   3   1  -5  456.47   15.29   0
  -3  -1   5  484.10   16.52   0
   1   1  -5  340.69   11.24   0
  -1   1   5  311.28   13.21   0
  -1  -1   5  290.12   10.80   0
   1  -1  -5  288.77   13.66   0
   1   1   5   68.53   10.09   0
  -1  -1  -5   60.59    9.88   0
   1  -1   5   75.28   10.03   0
  -1   1  -5   70.43    8.60   0
   3  -1   5   20.49    9.34   0
  -3  -1  -5    9.57   10.03   0
   3   1   5    7.69    8.91   0
  -3   1  -5   18.15    8.46   0
  -5   1  -5  355.14    9.14   0
   5   1   5  316.36    9.70   0
   5  -1   5  353.44    9.15   0
  -5  -1  -5  300.78    9.40   0
   7  -1   5  131.61    8.30   0
  -7   1  -5  151.10    8.12   0
  -7  -1  -5  149.06    8.59   0
   7   1   5  117.34    9.05   0
   9  -1   5   79.67    7.98   0
  -9   1  -5   75.31    7.81   0
   9   1   5   72.70    9.02   0
  -9  -1  -5   64.13    8.38   0
  11  -1   5   41.95    6.49   0
 -11  -1  -5   39.53    7.96   0
  11   1   5   27.69    8.54   0
 -11   1  -5   40.94    7.54   0
  13   1   5   15.76    8.60   0
 -13   1  -5   17.16    7.61   0
  13  -1   5    4.17    7.92   0
 -13  -1  -5    3.41    8.07   0
 -15  -1  -5   22.06    8.39   0
  15  -1   5   27.68    8.58   0
 -15   1  -5   17.79    8.14   0
  15   1   5   16.69    9.66   0
 -17  -1  -5   15.57    8.59   0
 -17   1  -5   15.85    8.50   0
  17   1   5   13.11    9.79   0
  17  -1   5   11.93    8.75   0
  19  -1   5    8.97    9.65   0
  19   1   5    7.73   10.65   0
 -19  -1  -5   10.11    9.30   0
  28   2  -5   26.67   14.75   0
  28  -2  -5   15.80   10.52   0
  26  -2  -5   72.95    9.82   0
  26   2  -5   52.12   13.41   0
  24  -2  -5   46.66    9.19   0
  24   2  -5   45.18   12.19   0
  22   2  -5   24.31   10.31   0
  22  -2  -5   32.80    8.49   0
 -22  -2   5   50.33    7.73   0
  20   2  -5   29.22   11.15   0
  20  -2  -5   45.97    8.00   0
 -20  -2   5   38.40    7.58   0
  18  -2  -5  223.44    8.76   0
 -18  -2   5  253.82    9.32   0
  18   2  -5  167.40   10.30   0
 -16  -2   5   66.47    8.42   0
  16  -2  -5   54.60    7.95   0
  16   2  -5   48.44   10.79   0
  14   2  -5   18.35   10.17   0
  14  -2  -5   30.23    7.81   0
 -14  -2   5   32.68    7.80   0
  12   2  -5   63.41   10.89   0
 -12  -2   5   87.61    9.32   0
 -10  -2   5   20.97   10.56   0
  10   2  -5   13.51   14.20   0
  -8  -2   5    3.61   15.86   0
   8  -2  -5    3.26    9.35   0
   8   2  -5    7.46   32.30   0
  -6   2   5   37.84   12.15   0
   6  -2  -5   53.58   12.35   0
   4  -2  -5   86.88   17.79   0
  -4  -2   5  161.28   15.02   0
  -4   2   5   92.11   18.16   0
  -2  -2   5  156.23   11.23   0
  -2   2   5  114.74   16.02   0
   2  -2  -5  101.35   15.20   0
   2   2  -5  151.20   10.36   0
   0  -2   5  133.14    8.48   0
   0  -2  -5  100.64   11.66   0
   0   2  -5  130.94    9.71   0
   0   2   5  108.99   12.52   0
  -2   2  -5   46.28    9.30   0
   2  -2   5   49.05    7.98   0
   2   2   5   44.28   10.58   0
  -2  -2  -5   34.73    9.70   0
  -4  -2  -5   49.20    9.01   0
   4  -2   5   64.64    7.84   0
  -4   2  -5   55.71    8.11   0
   4   2   5   43.19    9.80   0
  -6   2  -5  150.25    8.09   0
  -6  -2  -5  136.01   10.05   0
   6  -2   5  147.95    7.94   0
   6   2   5  127.20    9.73   0
  -8   2  -5  181.23    8.65   0
   8  -2   5  174.51    8.69   0
  -8  -2  -5  153.63    9.04   0
   8   2   5  159.76    9.93   0
  10   2   5  100.84   10.91   0
 -10   2  -5  135.34    8.15   0
  10  -2   5  116.59    8.06   0
 -10  -2  -5  109.40    8.45   0
 -12  -2  -5  131.19    8.73   0
  12  -2   5  157.31    8.33   0
  12   2   5  135.87    9.79   0
 -12   2  -5  133.99    8.37   0
 -14  -2  -5  100.80    8.99   0
  14  -2   5  108.98    9.67   0
 -14   2  -5  114.06    8.43   0
  14   2   5   87.93   10.14   0
  16  -2   5   48.80    8.56   0
 -16  -2  -5   73.34    8.72   0
  16   2   5   68.75   10.44   0
 -18  -2  -5   70.52    9.15   0
  18   2   5   26.27   10.92   0
  18  -2   5   57.41    9.13   0
  27   3  -5   38.94   16.26   0
  27  -3  -5   46.14   10.09   0
  25   3  -5   96.63   13.72   0
 -25  -3   5  187.10    9.97   0
  25  -3  -5  172.04    9.86   0
  23  -3  -5  252.50    9.38   0
  23   3  -5  215.10   14.80   0
 -23  -3   5  326.96   10.17   0
 -21  -3   5  455.19   10.28   0
  21  -3  -5  393.16    9.76   0
  21   3  -5  233.78   13.85   0
  19  -3  -5  390.29    9.15   0
  19   3  -5  297.15   14.48   0
 -19  -3   5  462.24   10.28   0
  17  -3  -5 1024.70   10.77   0
 -17  -3   5 1120.10   12.75   0
  17   3  -5  717.18   16.19   0
 -15  -3   5 1302.66   13.92   0
  15   3  -5  846.24   17.73   0
  15  -3  -5 1177.64   11.27   0
 -13  -3   5 1173.48   15.04   0
  13   3  -5  734.91   20.69   0
 -11  -3   5 1682.31   19.40   0
  11   3  -5 1130.07   29.53   0
   9   3  -5 1528.18   37.63   0
  -9  -3   5 2122.84   25.72   0
   9  -3  -5 1815.50   16.05   0
   7  -3  -5 1316.29   16.42   0
  -7  -3   5 1438.05   29.89   0
  -5  -3   5 1246.22   33.45   0
   5  -3  -5 1391.45   21.32   0
  -5   3   5 1358.09   19.82   0
  -3   3   5 1321.73   24.08   0
   3  -3  -5 1233.06   23.33   0
  -3  -3   5 2051.11   18.76   0
   1  -3  -5 1734.01   21.27   0
  -1  -3   5 2644.98   18.20   0
  -1   3   5 1552.96   24.83   0
   1   3   5  953.36   19.70   0
   1  -3   5 1387.04   13.47   0
  -1  -3  -5 1006.90   15.64   0
   3  -3   5 1290.65   11.97   0
   3   3   5  955.53   15.52   0
  -3  -3  -5  975.22   13.56   0
  -5  -3  -5  613.23   11.46   0
   5  -3   5  763.12   10.06   0
   5   3   5  547.44   13.25   0
  -7  -3  -5  714.92   11.54   0
   7  -3   5  839.39   10.33   0
   7   3   5  613.38   13.03   0
   9   3   5  291.13   12.76   0
  -9  -3  -5  330.04    9.77   0
   9  -3   5  399.51    8.92   0
  11  -3   5  253.43    8.56   0
 -11  -3  -5  204.87    9.28   0
  11   3   5  186.16   11.19   0
  13  -3   5  207.58    9.11   0
 -13  -3  -5  176.28    9.41   0
  13   3   5  159.09   11.21   0
  15  -3   5   77.47    8.70   0
  15   3   5   64.11   11.17   0
 -15  -3  -5   62.02    8.89   0
 -17  -3  -5   34.70   10.53   0
  17  -3   5   34.00    9.03   0
  17   3   5   27.88   11.74   0
  26  -4  -5   83.11   10.09   0
 -26  -4   5   95.88   10.24   0
  26   4  -5   46.63   20.43   0
  24  -4  -5  118.99    9.24   0
 -24  -4   5  136.98    9.92   0
  24   4  -5   76.56   19.45   0
 -22  -4   5  177.85    9.71   0
  22   4  -5   81.52   18.93   0
  22  -4  -5  136.51    8.96   0
 -20  -4   5  199.84   10.50   0
  20  -4  -5  175.97    8.45   0
  20   4  -5  112.10   19.56   0
  18  -4  -5   72.55    8.07   0
  18   4  -5   47.94   16.28   0
 -18  -4   5   89.13   10.34   0
 -16  -4   5   90.63    9.93   0
  16   4  -5   48.77   17.80   0
  16  -4  -5   75.02    7.60   0
 -14  -4   5   42.72    9.97   0
  14   4  -5   37.40   23.89   0
  12   4  -5   17.10   22.67   0
 -12  -4   5   21.18   10.10   0
  10  -4  -5   61.66    9.30   0
 -10  -4   5   71.09   13.24   0
  10   4  -5   53.57   18.45   0
  -8  -4   5    7.72   14.86   0
   8  -4  -5   -0.37   10.31   0
   6  -4  -5   52.75   12.15   0
  -6  -4   5   36.77   21.92   0
   4  -4  -5  347.09   18.21   0
  -4   4   5  347.26   14.28   0
  -4  -4   5  337.12   20.68   0
  -2   4   5   47.66   15.47   0
   2  -4  -5   38.74   16.11   0
  -2  -4   5   79.03    8.96   0
   0  -4   5  672.67   10.79   0
   0   4   5  399.25   18.31   0
   0  -4  -5  429.49   14.67   0
   2  -4   5  539.81   10.09   0
   2   4   5  243.31   16.52   0
  -2  -4  -5  369.19   12.48   0
  -4  -4  -5  316.24   12.83   0
   4  -4   5  444.37    9.78   0
   4   4   5  241.14   14.55   0
   6   4   5  219.54   13.77   0
   6  -4   5  362.65    8.91   0
  -6  -4  -5  275.26   11.87   0
   8   4   5  358.25   15.15   0
   8  -4   5  505.53    9.20   0
  -8  -4  -5  404.43   11.63   0
 -10  -4  -5  380.31   10.25   0
  10   4   5  352.68   12.83   0
  10  -4   5  493.07   10.27   0
  12   4   5  180.45   12.64   0
 -12  -4  -5  218.08   10.84   0
  12  -4   5  255.82   10.27   0
  14  -4   5  261.30   10.48   0
 -14  -4  -5  220.48    9.73   0
  14   4   5  186.60   13.53   0
 -16  -4  -5  152.87   11.11   0
  16   4   5  145.34   13.73   0
  16  -4   5  196.40    9.52   0
 -25  -5   5  122.95   10.61   0
  25  -5  -5  100.63    9.88   0
  25   5  -5   38.31   30.70   0
  23   5  -5  149.10   28.63   0
  23  -5  -5  231.93   10.06   0
 -23  -5   5  296.68   11.13   0
  21  -5  -5  362.75    9.72   0
 -21  -5   5  411.24   12.29   0
  21   5  -5  215.42   27.35   0
  19   5  -5  262.10   27.09   0
  19  -5  -5  379.14    9.49   0
 -19  -5   5  421.94   10.93   0
 -17  -5   5  544.82   12.36   0
  17  -5  -5  488.19    9.77   0
  17   5  -5  278.79   26.31   0
  15   5  -5  428.38   24.91   0
 -15  -5   5  796.51   14.09   0
  13  -5  -5  889.53   12.44   0
  13   5  -5  741.93   23.45   0
 -13  -5   5  989.12   15.93   0
  11  -5  -5  914.27   13.74   0
 -11  -5   5 1086.84   17.77   0
  11   5  -5  914.83   20.08   0
  -9  -5   5 1424.60   20.42   0
   9  -5  -5 1237.55   15.69   0
  -7  -5   5 1306.08   24.59   0
   7  -5  -5 1155.98   17.16   0
   5  -5  -5  533.49   17.88   0
  -5  -5   5  576.20   25.15   0
  -3   5   5  843.26   15.71   0
  -3  -5   5  859.68   22.50   0
   3  -5  -5  849.01   20.47   0
   1  -5  -5 1113.65   19.70   0
  -1   5   5  971.40   19.72   0
  -1  -5   5 1889.79   15.05   0
   1   5   5  996.47   21.59   0
   1  -5   5 1633.73   13.95   0
  -1  -5  -5 1087.77   17.92   0
   3   5   5  620.28   22.96   0
   3  -5   5 1133.64   11.17   0
  -3  -5  -5  769.81   15.20   0
   5   5   5  397.35   18.13   0
  -5  -5  -5  549.44   12.23   0
   5  -5   5  802.71   10.25   0
   7   5   5  268.80   15.61   0
  -7  -5  -5  390.25   10.86   0
   7  -5   5  507.10    9.15   0
   9  -5   5  374.62    8.83   0
  -9  -5  -5  270.53   10.54   0
   9   5   5  199.41   17.32   0
 -11  -5  -5  180.05   10.26   0
  11   5   5  152.45   15.14   0
  11  -5   5  267.74   10.12   0
  13   5   5   75.08   17.83   0
  13  -5   5  160.50    9.00   0
 -13  -5  -5  116.49   11.34   0
 -15  -5  -5   65.48   10.33   0
  15  -5   5   93.90    9.10   0
  15   5   5   43.48   18.06   0
  22  -6  -5   73.59    9.14   0
  22   6  -5   46.29   26.92   0
 -22  -6   5   87.39   10.23   0
  20  -6  -5   85.14    9.10   0
  20   6  -5   47.51   22.64   0
 -20  -6   5   77.55   10.00   0
  18   6  -5   85.92   24.06   0
 -18  -6   5  130.63   11.08   0
  18  -6  -5  136.08    8.96   0
 -16  -6   5  101.18   11.76   0
  16   6  -5   58.27   18.86   0
  16  -6  -5   82.67   10.46   0
 -14  -6   5   48.26   11.32   0
  14  -6  -5   36.60   10.45   0
  14   6  -5   39.44   16.40   0
  12   6  -5   41.90   14.07   0
 -12  -6   5   47.37   11.88   0
  12  -6  -5   39.64   10.71   0
  10  -6  -5   44.01   11.32   0
 -10  -6   5   36.30   12.42   0
   8  -6  -5    9.76   12.22   0
  -8  -6   5   14.32   13.91   0
   6  -6  -5   31.94   17.60   0
  -6  -6   5   34.68   17.25   0
  -4  -6   5   22.34   21.06   0
   4  -6  -5    3.65   16.97   0
   2  -6  -5   96.24   16.92   0
  -2  -6   5  207.43   10.22   0
  -2   6   5  122.60   12.51   0
  -2  -6   5  109.38   20.05   0
   0  -6   5   78.57   14.54   0
   0   6   5   78.69   14.64   0
   0  -6   5  138.91    8.82   0
   0  -6  -5   73.17   13.56   0
   2   6   5  171.93   20.78   0
  -2  -6  -5  257.25   14.71   0
   2  -6   5  404.43    9.52   0
   4   6   5  108.58   19.44   0
   4  -6   5  220.06    8.40   0
  -4  -6  -5  169.04   13.23   0
  -6  -6  -5  194.44   11.02   0
   6   6   5  168.48   23.25   0
   6  -6   5  280.52    8.48   0
   8  -6   5  305.19    9.91   0
  -8  -6  -5  189.07   10.70   0
   8   6   5  147.41   23.43   0
  10  -6   5  225.55    8.98   0
 -10  -6  -5  147.40   10.49   0
  10   6   5  107.40   19.15   0
  12   6   5  107.54   19.14   0
  12  -6   5  175.81    9.03   0
 -12  -6  -5  122.94   10.55   0
  19   7  -5  1308   20.58   0
  19  -7  -5  145.30    9.75   0
 -19  -7   5  193.25   13.35   0
  19  -7  -5  124.74   12.23   0
  17  -7  -5  173.80   11.90   0
  17  -7  -5  222.55    9.51   0
  17   7  -5  169.38   18.94   0
 -17  -7   5  227.77   12.46   0
  15   7  -5  208.02   17.69   0
 -15  -7   5  265.93   13.45   0
  15  -7  -5  194.55   12.16   0
 -13  -7   5  293.66   13.79   0
  13  -7  -5  201.70   13.05   0
 -11  -7   5  337.60   14.32   0
  11  -7  -5  253.52   13.43   0
   9  -7  -5  268.82   16.68   0
  -9  -7   5  342.52   15.56   0
  -7  -7   5  439.29   17.00   0
   7  -7  -5  306.12   17.28   0
  -5  -7   5  470.80   22.20   0
   5  -7  -5  414.87   19.01   0
   3  -7  -5  300.61   19.26   0
  -3  -7   5  343.85   24.69   0
  -1  -7   5  284.86   25.57   0
  -1   7   5  343.47   15.55   0
   1  -7  -5  315.30   16.25   0
  -1  -7   5  573.18   12.04   0
   1  -7   5  271.51   17.66   0
  -1  -7  -5  309.38   16.07   0
   1  -7   5  492.06   10.65   0
   1   7   5  262.70   17.17   0
   3  -7   5  342.60   10.38   0
  -3  -7  -5  187.42   14.09   0
   3  -7   5  226.61   15.79   0
   3   7   5  167.80   16.92   0
   5   7   5  146.77   24.15   0
   5  -7   5  294.24   10.18   0
  -5  -7  -5  197.33   11.32   0
   7   7   5  132.57   23.34   0
   7  -7   5  266.53    9.21   0
  -7  -7  -5  187.42   12.71   0
   9   7   5   69.70   26.87   0
  -9  -7  -5   85.14   11.08   0
   9  -7   5  172.40   10.07   0
  11   7   5   32.85   25.07   0
  11  -7   5   65.21    8.91   0
 -11  -7  -5   38.89   10.58   0
  16  -8  -5   27.47    9.18   0
  16  -8  -5   20.55   12.78   0
 -16  -8   5   22.34   12.79   0
 -14  -8   5   16.86   13.86   0
  14  -8  -5   29.67   15.22   0
  12  -8  -5   25.46   15.46   0
 -12  -8   5   12.59   12.86   0
 -10  -8   5    9.79   13.16   0
  10  -8  -5    5.70   17.04   0
   8  -8  -5  -14.93   18.06   0
  -8  -8   5    4.76   14.45   0
   6  -8  -5    0.59   18.48   0
  -6  -8   5    5.32   17.15   0
  -4  -8   5   17.40   19.02   0
   4  -8  -5   11.00   21.95   0
  -2  -8   5   22.50   10.18   0
   2  -8  -5   30.16   18.33   0
  -2  -8   5   12.47   24.41   0
   0  -8  -5   70.78   16.23   0
   0  -8   5  106.21    9.49   0
   0  -8   5   61.28   23.67   0
   2  -8   5   18.87   20.58   0
  -2  -8  -5   11.92   14.83   0
   2  -8   5   34.20    9.40   0
   2   8   5   28.41   16.43   0
   4   8   5   46.53   15.71   0
   4  -8   5   49.52   18.23   0
   4  -8   5   90.62    9.64   0
  -4  -8  -5   61.51   11.63   0
  -6  -8  -5   39.16   12.97   0
   6  -8   5   66.68    9.67   0
   6  -8   5   34.77   17.09   0
   6   8   5   39.24   21.28   0
   8  -8   5   58.23    9.10   0
 -11  -9   5   31.20   15.55   0
  11  -9  -5   56.33   18.25   0
  -9  -9   5   68.92   15.16   0
   9  -9  -5   68.02   23.76   0
  -7  -9   5   55.60   16.28   0
   7  -9  -5   53.62   19.74   0
   5  -9  -5   42.66   21.17   0
  -5  -9   5   51.17   17.43   0
  -3  -9   5   50.71   21.02   0
   3  -9  -5   38.55   18.31   0
  -3  -9   5  125.24   11.25   0
   1  -9  -5   29.29   17.86   0
  -1  -9   5   68.71   10.14   0
  -1  -9   5   33.88   26.52   0
   1  -9   5   25.70   24.81   0
   1  -9   5   57.84   10.00   0
  -1  -9  -5   17.40   13.64   0
  28   0  -6  193.60   12.67   0
  26   0  -6  228.41   10.74   0
  24   0  -6  322.95   12.01   0
  22   0  -6  965.44   11.96   0
  20   0  -6  436.17   10.35   0
  18   0  -6  430.87   10.04   0
  16   0  -6  582.29   11.76   0
  14   0  -6  800.45   12.49   0
  12   0  -6  305.85    9.83   0
   8   0  -6  208.37   14.71   0
  -6   0   6   22.80   20.98   0
   6   0  -6   29.03   21.91   0
  -4   0   6  331.75   16.99   0
   4   0  -6  310.44   18.42   0
  -2   0   6   77.55   10.50   0
   2   0  -6   88.65   11.09   0
   0   0  -6   76.56   10.84   0
   0   0   6   73.72    9.35   0
   2   0   6   16.77    8.72   0
  -2   0  -6   15.97    8.49   0
  -4   0  -6   33.34    7.86   0
   4   0   6   38.18    9.11   0
  -6   0  -6  162.06    8.41   0
   6   0   6  157.45    8.69   0
  -8   0  -6  180.57    8.33   0
   8   0   6  179.44    8.64   0
 -10   0  -6  340.83    9.08   0
  10   0   6  325.71    9.11   0
  12   0   6  196.90    8.79   0
 -12   0  -6  208.73    8.67   0
 -14   0  -6  223.34    9.27   0
  14   0   6  193.25    9.54   0
  16   0   6  173.66    9.95   0
 -16   0  -6  182.88    9.34   0
 -18   0  -6  155.34    9.96   0
  18   0   6  140.47   10.58   0
  29   1  -6   46.58   11.66   0
  29  -1  -6   29.20   10.75   0
  27  -1  -6   79.47    9.81   0
  27   1  -6   61.08   10.95   0
  25  -1  -6  153.41   10.81   0
  25   1  -6  123.63   12.43   0
  23   1  -6  343.02   12.02   0
  23  -1  -6  362.25    9.94   0
  21  -1  -6  645.92   10.49   0
  21   1  -6  580.86   12.52   0
  19  -1  -6  711.08   10.59   0
  19   1  -6  640.07   12.20   0
  17   1  -6 1005.74   12.53   0
  17  -1  -6 1121.03   11.50   0
  15   1  -6 1942.55   16.70   0
  15  -1  -6 2115.94   14.61   0
  13   1  -6 4003.34   23.48   0
  11   1  -6 4957.15   30.71   0
   9  -1  -6 2896.61   21.60   0
  -7   1   6 2722.11   27.49   0
   7  -1  -6 2924.28   26.56   0
   7   1  -6 2954.64   60.72   0
   5   1  -6 3493.11   34.99   0
   5  -1  -6 2954.67   32.44   0
  -5  -1   6 3621.18   38.03   0
  -5   1   6 3015.48   32.31   0
  -3  -1   6 4072.84   27.01   0
   3   1  -6 3945.22   27.99   0
  -3   1   6 3445.04   27.20   0
   3  -1  -6 3241.59   27.61   0
  -1  -1   6 4603.97   23.14   0
   1  -1  -6 3842.52   23.89   0
   1   1  -6 4327.34   23.54   0
  -1   1   6 4029.19   24.00   0
  -1   1  -6 3037.55   18.29   0
   1  -1   6 3230.74   18.16   0
   1   1   6 2856.71   18.54   0
  -1  -1  -6 2791.62   18.21   0
   3   1   6 2308.08   15.92   0
  -3   1  -6 2456.86   15.87   0
   3  -1   6 2305.94   14.77   0
  -3  -1  -6 2281.11   15.90   0
   5  -1   6  907.72   11.74   0
   5   1   6  921.72   11.39   0
  -5  -1  -6  910.07   11.21   0
  -5   1  -6  969.66   11.19   0
  -7   1  -6 1224.75   11.69   0
   7  -1   6 1165.26   11.39   0
   7   1   6 1072.86   12.09   0
  -7  -1  -6 1070.30   11.97   0
  -9   1  -6 1126.33   11.18   0
  -9  -1  -6  928.39   11.54   0
   9   1   6  911.56   11.91   0
   9  -1   6 1058.00   11.16   0
 -11  -1  -6  780.98   10.99   0
  11   1   6  696.64   11.49   0
 -11   1  -6  864.58   10.56   0
  11  -1   6  761.53    9.28   0
 -13   1  -6  404.23    9.74   0
 -13  -1  -6  408.98    9.82   0
  13   1   6  369.18   10.22   0
  13  -1   6  366.81    9.52   0
 -15  -1  -6  177.06    9.43   0
 -15   1  -6  222.87    9.18   0
  15   1   6  185.12   10.20   0
  15  -1   6  196.02    9.18   0
 -17  -1  -6  108.07    9.52   0
 -17   1  -6   95.07    9.45   0
  17  -1   6  112.89    9.53   0
  17   1   6  105.47   10.75   0
  28   2  -6   61.72   14.81   0
  28  -2  -6   96.38   10.61   0
  26  -2  -6  165.02   10.04   0
  26   2  -6  116.14   13.54   0
  24  -2  -6  275.59   11.12   0
  24   2  -6  216.03   13.14   0
  22   2  -6  200.50   12.16   0
  22  -2  -6  258.79    9.45   0
  20   2  -6  431.39   11.75   0
  20  -2  -6  558.77    9.78   0
  18   2  -6  230.89   12.34   0
 -18  -2   6  331.64    9.56   0
  18  -2  -6  279.86    8.96   0
  16  -2  -6  293.55    8.65   0
  16   2  -6  218.76   11.71   0
 -16  -2   6  303.81    9.51   0
  14   2  -6   92.52   12.21   0
 -14  -2   6  137.98    8.67   0
  12   2  -6  206.05   14.92   0
  10  -2  -6   14.31    8.71   0
  10   2  -6   11.99   17.57   0
   8  -2  -6  154.03   11.38   0
  -6   2   6   16.07   14.33   0
   6  -2  -6   13.23   14.30   0
  -6  -2   6   10.85   22.66   0
  -4   2   6  130.79   16.36   0
   4  -2  -6  128.20   16.89   0
  -4  -2   6  187.55   12.58   0
   4   2  -6  195.98   13.11   0
   2   2  -6   94.85   10.57   0
   2  -2  -6   68.99   12.89   0
  -2   2   6   66.49   13.26   0
  -2  -2   6  100.27    9.36   0
   0   2  -6   13.42    8.02   0
   0   2   6   14.67   11.00   0
   0  -2   6   13.37    8.99   0
   0  -2  -6   12.23   10.67   0
  -2  -2  -6   14.92    9.22   0
  -2   2  -6   15.23    9.47   0
   2   2   6   10.25   10.07   0
   2  -2   6   10.84    8.15   0
  -4  -2  -6  173.03    9.35   0
   4  -2   6  220.57    8.40   0
   4   2   6  199.41   10.02   0
  -4   2  -6  212.68    9.60   0
  -6   2  -6  144.77    8.62   0
  -6  -2  -6  116.22    9.30   0
   6  -2   6  136.55    8.28   0
   6   2   6  126.40   10.09   0
  -8   2  -6  220.20    8.90   0
   8  -2   6  209.71    8.36   0
  -8  -2  -6  182.99    9.05   0
   8   2   6  185.47    9.88   0
  10  -2   6  198.15    9.86   0
 -10   2  -6  193.41    8.82   0
  10   2   6  143.01   10.17   0
 -10  -2  -6  155.83    9.12   0
 -12  -2  -6  269.77    9.34   0
  12  -2   6  257.05    9.97   0
 -12   2  -6  270.28    9.14   0
  12   2   6  227.09   10.48   0
  14  -2   6  163.01    9.01   0
 -14  -2  -6  163.34    9.20   0
 -14   2  -6  177.58    9.17   0
  14   2   6  117.62   10.49   0
  16  -2   6  148.49    9.33   0
 -16  -2  -6  137.48    9.61   0
  16   2   6  106.71   10.89   0
  27  -3  -6   24.63    9.86   0
  27   3  -6   35.45   14.06   0
  25   3  -6   26.54   14.90   0
  25  -3  -6   91.81    9.19   0
  23   3  -6   49.29   13.80   0
 -23  -3   6   68.32    9.04   0
  23  -3  -6   72.45    8.78   0
 -21  -3   6  164.48    9.02   0
  21   3  -6  109.98   13.68   0
  21  -3  -6  148.55    8.65   0
  19   3  -6  337.45   15.50   0
 -19  -3   6  496.02   10.91   0
  19  -3  -6  416.23    9.25   0
  17  -3  -6  352.89    8.96   0
 -17  -3   6  431.73   11.44   0
  17   3  -6  274.94   15.22   0
 -15  -3   6  884.93   13.60   0
  15   3  -6  593.95   19.04   0
 -13  -3   6  880.28   15.38   0
  13   3  -6  541.28   23.39   0
  11   3  -6  668.03   34.64   0
  11  -3  -6  743.37   11.87   0
 -11  -3   6  908.00   18.92   0
   9  -3  -6  695.67   13.04   0
   7  -3  -6 1041.93   16.86   0
  -7  -3   6 1022.25   39.18   0
  -7   3   6  939.89   15.63   0
  -7  -3   6 1504.17   29.69   0
  -5   3   6 1527.64   22.50   0
  -5  -3   6 2538.49   24.48   0
   5  -3  -6 1573.63   23.18   0
  -3   3   6  734.28   19.60   0
  -3  -3   6 1035.30   14.46   0
   3  -3  -6  608.99   19.62   0
   1  -3  -6  534.99   14.84   0
  -1   3   6  465.45   16.82   0
  -1  -3   6  741.29   11.33   0
   1   3   6  405.33   13.89   0
   1  -3   6  563.09    9.93   0
  -1  -3  -6  447.13   12.53   0
   3  -3   6  650.91   10.85   0
  -3  -3  -6  528.06   11.63   0
   3   3   6  516.38   13.14   0
   5   3   6  733.28   15.23   0
  -5  -3  -6  790.05   12.25   0
   5  -3   6  962.49   10.87   0
  -7  -3  -6  405.66   10.51   0
   7   3   6  371.27   12.16   0
   7  -3   6  494.92    9.30   0
   9   3   6  302.37   11.58   0
   9  -3   6  352.19    9.12   0
  -9  -3  -6  292.07    9.96   0
 -11  -3  -6  117.04    9.08   0
  11  -3   6  145.95    8.44   0
  11   3   6  116.87   11.24   0
 -13  -3  -6   58.43    9.36   0
  13  -3   6   99.51    8.69   0
  13   3   6   90.01   11.29   0
 -15  -3  -6   68.76    9.38   0
  15  -3   6   75.26    9.01   0
  15   3   6   69.41   11.55   0
  26   4  -6   24.68   18.14   0
  26  -4  -6   30.09    9.19   0
 -24  -4   6   49.85   10.97   0
  24  -4  -6   24.98    8.74   0
  24   4  -6    5.18   20.36   0
 -22  -4   6   89.66    9.18   0
  22  -4  -6   67.38    8.58   0
  22   4  -6   50.53   18.68   0
  20   4  -6   42.57   21.23   0
 -20  -4   6   59.86    8.84   0
  20  -4  -6   49.24    7.93   0
  18  -4  -6  105.97    8.15   0
  18   4  -6   88.66   19.14   0
 -18  -4   6  139.05   10.59   0
 -16  -4   6   54.13   10.24   0
  16   4  -6   30.76   21.75   0
 -14  -4   6  119.16   11.09   0
  14   4  -6   76.63   22.65   0
  12   4  -6   51.37   21.68   0
  12  -4  -6   74.71    9.39   0
 -12  -4   6   78.92   12.20   0
 -10  -4   6   74.15   15.40   0
  10  -4  -6   69.33    9.54   0
   8  -4  -6   12.21   11.14   0
  -8  -4   6   20.25   17.78   0
   6  -4  -6   17.39   16.43   0
  -6  -4   6   18.12   10.34   0
  -6  -4   6    5.32   22.69   0
  -6   4   6    7.37   11.20   0
   4  -4  -6   39.83   15.46   0
  -4   4   6   60.91   14.19   0
  -4  -4   6   95.14    9.79   0
  -2   4   6    8.26   14.85   0
   2  -4  -6  -11.68   16.78   0
  -2  -4   6    8.15    8.69   0
   0   4   6   -2.03   15.00   0
   0  -4   6   10.70    7.04   0
   0  -4  -6   16.06   12.00   0
   2   4   6    3.02   13.63   0
  -2  -4  -6    8.73   10.89   0
   2  -4   6   10.53    8.31   0
  -4  -4  -6   23.32   10.25   0
   4   4   6   12.40   15.06   0
   4  -4   6   29.54    7.07   0
   6  -4   6   35.81    7.73   0
  -6  -4  -6   24.86   10.79   0
   6   4   6   20.17   14.09   0
  -8  -4  -6   -0.97    8.87   0
   8  -4   6   12.63    7.48   0
   8   4   6   11.87   12.92   0
  10  -4   6   36.52    9.15   0
  10   4   6   29.42   11.69   0
 -10  -4  -6   20.64    9.07   0
  12   4   6   22.68   11.89   0
 -12  -4  -6   40.79    9.07   0
  12  -4   6   40.24    8.21   0
 -14  -4  -6   29.53    9.28   0
  14  -4   6   44.88    8.54   0
  14   4   6   14.87   12.95   0
 -25  -5   6   -3.00    9.61   0
  25   5  -6   26.40   36.39   0
  25  -5  -6    4.48    9.11   0
  23  -5  -6    7.88    8.74   0
 -23  -5   6   -0.30   10.59   0
  23   5  -6   14.05   28.89   0
  21   5  -6   10.19   28.37   0
 -21  -5   6    3.59    9.99   0
  21  -5  -6    5.37    8.28   0
  19   5  -6    2.36   24.16   0
  19  -5  -6   -0.62    7.89   0
 -19  -5   6   -2.35    9.90   0
  17   5  -6   27.16   19.90   0
 -17  -5   6   29.78   10.62   0
  15   5  -6   17.94   21.47   0
 -15  -5   6   16.53   10.84   0
  15  -5  -6    5.11    9.04   0
  13   5  -6    9.41   16.27   0
 -13  -5   6    2.30   11.11   0
  13  -5  -6    5.79    9.74   0
 -11  -5   6   23.09   13.25   0
  11  -5  -6   35.00   10.31   0
  -9  -5   6   12.01   14.65   0
   9  -5  -6   -9.54   11.81   0
   7  -5  -6    8.52   13.68   0
  -7  -5   6   11.74   18.60   0
   5  -5  -6   11.62   15.79   0
  -5  -5   6    4.77    9.28   0
  -5   5   6   16.38   11.97   0
  -5  -5   6   14.85   19.12   0
  -3  -5   6   87.16   10.24   0
  -3   5   6   33.99   16.50   0
   3  -5  -6  105.96   17.35   0
  -3  -5   6   51.49   15.02   0
  -1  -5   6   19.79    8.86   0
   1  -5  -6   19.26   16.17   0
  -1   5   6   20.58   16.75   0
   1   5   6   13.74   15.99   0
  -1  -5  -6    8.94   12.57   0
   1  -5   6    7.96    8.55   0
   3   5   6   28.21   18.89   0
   3  -5   6   21.16    8.57   0
  -3  -5  -6    7.99   10.73   0
   5  -5   6   12.92    7.22   0
   5   5   6   13.76   14.46   0
  -5  -5  -6   26.59    9.43   0
  -7  -5  -6   13.29    9.31   0
   7   5   6   27.18   13.89   0
   7  -5   6    7.89    7.39   0
   9  -5   6   10.25    7.40   0
   9   5   6    5.08   13.61   0
  -9  -5  -6   -1.37   10.09   0
  11   5   6  -10.16   14.61   0
 -11  -5  -6    3.11   10.76   0
  11  -5   6    5.07    8.22   0
 -13  -5  -6   18.25    9.40   0
  13   5   6   15.24   15.00   0
  13  -5   6    7.81    8.38   0
  24   6  -6   14.74   23.58   0
  22   6  -6   13.64   24.41   0
  22  -6  -6    1.05    8.99   0
 -22  -6   6   10.62   10.78   0
 -20  -6   6   14.44   10.38   0
  20  -6  -6    6.58    8.90   0
  20   6  -6    6.71   23.37   0
  18   6  -6    9.59   21.48   0
  18  -6  -6   41.07    8.69   0
 -18  -6   6   32.13   11.59   0
  18  -6  -6   30.05   10.03   0
  16   6  -6    0.15   16.98   0
 -16  -6   6   11.66   10.97   0
  16  -6  -6    3.42   10.07   0
  14   6  -6   12.78   15.05   0
  14  -6  -6   14.58   10.50   0
 -14  -6   6   12.59   11.68   0
 -12  -6   6    1.06   11.98   0
  12  -6  -6    5.78   10.82   0
 -10  -6   6   -4.75   12.76   0
  10  -6  -6    1.20   11.96   0
   8  -6  -6    0.96   13.05   0
  -8  -6   6    3.77   15.96   0
   6  -6  -6   21.17   15.51   0
  -6  -6   6    0.65   18.50   0
   4  -6  -6    9.90   15.50   0
  -4  -6   6   13.58   19.49   0
  -4  -6   6    2.93    9.12   0
  -4   6   6   -3.10   12.01   0
  -2  -6   6   67.38    8.63   0
  -2  -6   6   35.45   17.85   0
  -2   6   6   46.69   13.76   0
   2  -6  -6   51.34   15.43   0
   0   6   6    1.86   19.17   0
   0  -6   6   13.48    8.26   0
   0  -6  -6    1.17   14.69   0
   2   6   6   11.90   16.29   0
   2  -6   6   -4.24    8.41   0
  -2  -6  -6   -6.12   12.63   0
   4   6   6   15.57   17.50   0
   4  -6   6   28.84    8.50   0
  -4  -6  -6   36.63   10.73   0
   6   6   6   27.63   21.77   0
   6  -6   6   11.99    8.91   0
  -6  -6  -6   14.05    9.65   0
   8  -6   6    3.30    8.13   0
   8   6   6    1.59   18.62   0
  -8  -6  -6    4.39    9.73   0
  10   6   6   20.41   17.99   0
 -10  -6  -6    8.83    9.91   0
  10  -6   6    3.41    8.29   0
  12   6   6    9.78   18.40   0
 -12  -6  -6   26.04   11.55   0
  12  -6   6   19.69    8.76   0
  21   7  -6   14.91   21.95   0
 -21  -7   6   18.02   12.43   0
  21  -7  -6   15.49    9.52   0
  21  -7  -6   34.08   11.64   0
  19  -7  -6   41.63   11.51   0
  19  -7  -6   39.34    9.27   0
  19   7  -6   31.61   19.02   0
 -19  -7   6   34.65   12.11   0
  17  -7  -6   47.64   11.31   0
 -17  -7   6   63.46   12.10   0
  17   7  -6   45.78   17.54   0
 -15  -7   6   36.22   11.75   0
  15  -7  -6   33.04   11.56   0
  13  -7  -6   47.07   12.01   0
 -13  -7   6   64.65   13.10   0
 -11  -7   6   99.04   13.91   0
  11  -7  -6   82.07   14.80   0
   9  -7  -6   46.54   14.49   0
  -9  -7   6   60.86   14.78   0
   7  -7  -6   86.12   16.65   0
  -7  -7   6  117.83   16.50   0
  -5  -7   6  192.62    9.79   0
  -5  -7   6   83.18   21.71   0
   5  -7  -6  104.64   19.01   0
  -3  -7   6   68.92   22.36   0
  -3  -7   6  135.46   10.57   0
   3  -7  -6   71.31   17.23   0
  -1  -7   6   65.38    9.08   0
   1  -7  -6   46.04   16.62   0
  -1   7   6   39.12   13.86   0
  -1  -7   6   27.97   20.42   0
   1  -7   6   80.75    8.93   0
  -1  -7  -6   47.41   12.43   0
   1  -7   6   39.01   16.72   0
   1   7   6   58.20   19.39   0
  -3  -7  -6  111.62   13.95   0
   3   7   6   62.56   23.31   0
   3  -7   6  139.15    9.55   0
  -5  -7  -6   72.83   11.16   0
   5   7   6   56.06   24.37   0
   5  -7   6   93.67    8.10   0
  -7  -7  -6   44.10   10.81   0
   7  -7   6   72.08    9.68   0
   7   7   6   54.82   23.83   0
   9  -7   6   33.82   10.09   0
  -9  -7  -6   23.25   10.46   0
   9   7   6   -6.29   25.59   0
  18  -8  -6   17.41    9.49   0
 -18  -8   6   29.08   13.61   0
 -16  -8   6   53.03   13.40   0
  16  -8  -6   58.55   13.23   0
 -14  -8   6   77.55   13.83   0
  14  -8  -6   52.63   13.64   0
 -12  -8   6   27.37   13.62   0
  12  -8  -6   31.01   14.13   0
  10  -8  -6    1.99   15.89   0
 -10  -8   6   18.39   14.30   0
   8  -8  -6    9.66   16.64   0
  -8  -8   6    4.01   14.70   0
   6  -8  -6    6.40   17.11   0
  -6  -8   6   11.28   18.01   0
  -4  -8   6   11.96   20.10   0
   4  -8  -6   -2.49   18.23   0
  -4  -8   6   10.13   10.15   0
  -2  -8   6    2.22   10.10   0
   2  -8  -6    0.04   17.29   0
  -2  -8   6   22.85   22.80   0
   0  -8   6    5.12    9.11   0
   0  -8   6    3.43   23.11   0
   0  -8  -6   -8.53   15.88   0
   0   8   6   12.02   15.79   0
  -2  -8  -6   33.79   14.51   0
   2  -8   6   17.34   10.43   0
   2   8   6   11.85   15.51   0
   2  -8   6   25.06   22.84   0
  -4  -8  -6   21.16   11.70   0
   4  -8   6   20.83    9.57   0
   4  -8   6   19.08   15.73   0
   4   8   6    8.81   21.39   0
  -6  -8  -6   30.98   13.22   0
   6  -8   6   21.89   15.53   0
   6  -8   6   32.37    9.94   0
   6   8   6  -14.11   22.21   0
 -11  -9   6   86.27   15.76   0
  11  -9  -6   54.56   18.81   0
   9  -9  -6  108.14   22.74   0
  -9  -9   6  138.47   16.50   0
   7  -9  -6   87.74   19.51   0
  -7  -9   6  165.89   12.68   0
  -7  -9   6  113.39   18.46   0
  -5  -9   6  138.14   18.67   0
   5  -9  -6   98.64   20.98   0
  -5  -9   6  228.11   13.02   0
   3  -9  -6  105.42   17.33   0
  -3  -9   6  209.52   13.07   0
  -3  -9   6  104.50   22.04   0
  -1  -9   6  108.55   24.77   0
  -1  -9   6  182.37   11.95   0
   1  -9  -6  111.80   18.03   0
   1  -9   6  167.86   11.01   0
  29   1  -7    1.31   11.76   0
  29  -1  -7   15.78   10.19   0
  27   1  -7   -0.12   10.47   0
  27  -1  -7   -7.62    9.33   0
  25   1  -7   12.18    9.88   0
  25  -1  -7   19.11    8.68   0
  23  -1  -7    0.50    8.47   0
  23   1  -7   -4.81   11.19   0
  21  -1  -7   63.76    8.90   0
  21   1  -7   55.07   10.55   0
  19   1  -7   64.73   10.08   0
  19  -1  -7   74.49    8.37   0
  17   1  -7  176.09    9.97   0
  17  -1  -7  179.66    8.80   0
  15   1  -7  245.11   10.64   0
  13   1  -7   56.89   10.95   0
  11  -1  -7  207.09   10.05   0
  11   1  -7  213.38   12.75   0
   9  -1  -7  648.11   16.17   0
   9   1  -7  607.80   27.07   0
   7  -1  -7  372.16   19.12   0
  -7  -1   7  407.72   29.67   0
   7   1  -7  471.07   26.33   0
  -7   1   7  428.68   18.57   0
   5  -1  -7  889.81   22.29   0
  -5   1   7  885.39   20.41   0
   5   1  -7 1108.46   20.14   0
  -5  -1   7 1126.76   19.48   0
   3   1  -7  116.31   11.09   0
  -3   1   7  118.47   11.98   0
   3  -1  -7   99.71   12.95   0
  -3  -1   7  123.90    9.30   0
   1  -1  -7  277.25   11.43   0
  -1  -1   7  325.46   11.23   0
   1   1  -7  304.32   10.41   0
  -1   1   7  289.24   11.15   0
  -1   1  -7  105.83    9.01   0
  -1  -1  -7   92.54    9.28   0
   1  -1   7  107.07    8.71   0
   1   1   7   98.20    9.49   0
   3  -1   7  461.23    9.65   0
  -3   1  -7  406.55    9.58   0
  -3  -1  -7  392.34    9.89   0
   3   1   7  428.40   10.08   0
   5   1   7  254.48    9.64   0
  -5   1  -7  270.12   10.14   0
  -5  -1  -7  243.34    9.44   0
   5  -1   7  282.04    8.87   0
   7  -1   7  122.06    8.42   0
  -7   1  -7  123.61    8.37   0
  -7  -1  -7  122.64    8.57   0
   7   1   7  118.32    8.95   0
  -9   1  -7   52.04    8.36   0
   9  -1   7   60.31    8.30   0
  -9  -1  -7   74.88    8.52   0
   9   1   7   64.03    9.17   0
  11  -1   7   38.71    8.05   0
  11   1   7   33.82    9.08   0
 -11   1  -7   36.99    7.92   0
 -11  -1  -7   24.16    8.56   0
  13  -1   7   73.23    8.72   0
 -13   1  -7   82.47    9.98   0
  13   1   7   56.59    9.58   0
 -13  -1  -7   45.84    8.75   0
 -15  -1  -7   35.41    9.11   0
 -15   1  -7   37.16    9.10   0
  15   1   7   59.26    9.90   0
  15  -1   7   21.94    8.89   0
  28   2  -7   89.02   12.44   0
  28  -2  -7   92.27   10.23   0
  26   2  -7  102.75   13.10   0
  26  -2  -7  128.33   10.98   0
  24  -2  -7  156.84    9.20   0
  24   2  -7  112.21   12.95   0
  22   2  -7  144.04   12.19   0
  22  -2  -7  162.62    9.05   0
  20   2  -7  352.35   13.07   0
  20  -2  -7  436.96    9.84   0
  18   2  -7  318.26   13.95   0
  18  -2  -7  390.57    9.77   0
  16   2  -7  163.95   12.41   0
  14   2  -7  310.49   14.25   0
  12   2  -7  214.65   16.16   0
  12  -2  -7  230.90    9.92   0
  10  -2  -7  101.18   10.36   0
   8  -2  -7   19.60   11.71   0
  -8   2   7   17.95   12.26   0
   6  -2  -7  139.37   15.28   0
  -6  -2   7  219.22   16.66   0
  -6   2   7  160.47   15.55   0
   6   2  -7  215.81   15.59   0
   4   2  -7   25.42   11.15   0
  -4  -2   7   19.67   10.64   0
   4  -2  -7   17.82   15.25   0
  -4   2   7   11.18   14.54   0
   2   2  -7    8.78    9.02   0
  -2   2   7   -3.81   11.63   0
  -2  -2   7   14.68    8.78   0
   2  -2  -7   -3.81   11.75   0
   0   2  -7    2.07    8.00   0
   0   2   7   -6.33   10.06   0
   0  -2   7    1.06    7.78   0
   0  -2  -7    6.87   10.10   0
  -2   2  -7   26.76    9.42   0
   2  -2   7   30.01    7.92   0
   2   2   7   28.02    9.45   0
  -2  -2  -7   35.14    8.92   0
  -4   2  -7   13.97    7.86   0
   4  -2   7    3.45    8.79   0
   4   2   7   -2.94    9.20   0
  -4  -2  -7   -1.80    8.75   0
   6  -2   7   -5.90    7.93   0
  -6  -2  -7   12.39    8.56   0
  -6   2  -7    1.59    8.03   0
   6   2   7    6.48    9.53   0
  -8   2  -7   10.06    7.82   0
   8  -2   7    8.91    7.83   0
   8   2   7   19.52    9.38   0
  -8  -2  -7    8.62    8.52   0
 -10  -2  -7   23.49    8.81   0
  10  -2   7   15.40    8.40   0
 -10   2  -7   26.82    8.17   0
  10   2   7   18.42    9.67   0
 -12  -2  -7   41.50    9.11   0
 -12   2  -7   36.41    8.54   0
  12   2   7   36.07   10.53   0
  12  -2   7   55.72    8.40   0
  14  -2   7   31.76    8.49   0
 -14  -2  -7   34.33    9.15   0
 -14   2  -7   38.78   10.37   0
  14   2   7   12.86   10.39   0
  16  -2   7   11.89    7.51   0
  16   2   7   15.24   10.88   0
 -16  -2  -7   18.99    9.33   0
  27  -3  -7    4.58    9.51   0
  27   3  -7   -5.15   15.89   0
  25   3  -7   22.72   14.82   0
  25  -3  -7   26.59   10.40   0
  23  -3  -7   48.73    8.73   0
  23   3  -7   43.24   14.22   0
  21  -3  -7   97.15    8.61   0
  21   3  -7   68.93   14.18   0
  19  -3  -7  309.28    9.24   0
 -19  -3   7  374.55   10.97   0
  19   3  -7  244.56   16.85   0
  17   3  -7  435.84   17.83   0
 -17  -3   7  675.65   13.30   0
  15   3  -7  403.85   20.86   0
 -15  -3   7  592.42   14.17   0
  13  -3  -7  907.91   11.75   0
  13   3  -7  707.38   34.79   0
  11  -3  -7 1246.28   14.05   0
   9  -3  -7 1659.18   17.86   0
  -7  -3   7 1491.77   51.88   0
   7  -3  -7 1492.19   20.94   0
  -7   3   7 1375.51   21.02   0
  -7  -3   7 2472.24   35.74   0
  -5   3   7 1095.19   20.00   0
   5  -3  -7 1077.86   19.88   0
  -5  -3   7 1650.97   19.55   0
   3  -3  -7 1012.31   20.98   0
  -3   3   7 1055.34   20.40   0
  -3  -3   7 1678.96   16.01   0
  -1   3   7  980.20   17.60   0
   1  -3  -7 1089.40   15.53   0
  -1  -3   7 1476.21   13.77   0
   1   3   7  826.93   14.83   0
   1  -3   7 1102.50   11.55   0
  -1  -3  -7  839.72   13.56   0
  -3  -3  -7  828.57   12.87   0
  -3   3  -7  955.17   11.28   0
   3  -3   7 1037.04   11.98   0
   3   3   7  784.93   14.23   0
  -5   3  -7  977.97   11.65   0
  -5  -3  -7  818.79   12.23   0
   5   3   7  788.05   13.67   0
   5  -3   7 1035.13   12.18   0
  -7  -3  -7  511.76   11.94   0
   7   3   7  476.84   12.01   0
   7  -3   7  633.31    9.77   0
   9  -3   7  374.65   10.41   0
   9   3   7  287.20   11.84   0
  -9  -3  -7  271.06   10.18   0
  11  -3   7  338.95    9.51   0
  11   3   7  276.72   12.54   0
 -11  -3  -7  257.37    9.77   0
 -13  -3  -7  147.05    9.80   0
  13  -3   7  211.82    9.56   0
  13   3   7  157.53   11.42   0
  15  -3   7  132.63    9.61   0
 -15  -3  -7  100.96    9.81   0
  15   3   7  103.76   11.95   0
  26  -4  -7  186.23   10.56   0
  26   4  -7  158.52   23.13   0
  24  -4  -7  312.68   10.01   0
  24   4  -7  210.63   21.62   0
 -22  -4   7  561.95   11.38   0
  22  -4  -7  454.70    9.90   0
  22   4  -7  317.76   21.04   0
 -20  -4   7  486.89   11.98   0
  20  -4  -7  397.35    9.32   0
  20   4  -7  277.48   22.93   0
 -18  -4   7  837.86   13.42   0
  18   4  -7  459.03   27.70   0
  16   4  -7  402.97   25.76   0
 -16  -4   7  659.33   13.52   0
 -14  -4   7  417.82   14.52   0
  14   4  -7  263.23   26.01   0
  14  -4  -7  316.83   10.11   0
  12  -4  -7  311.34   10.56   0
 -12  -4   7  377.05   18.60   0
  10  -4  -7  220.17   11.23   0
   8  -4  -7   94.31   12.34   0
  -8  -4   7  142.26   15.89   0
  -8  -4   7  105.16   23.83   0
   6  -4  -7   40.50   14.71   0
  -6   4   7   48.09   13.06   0
  -6  -4   7   34.25   21.70   0
  -6  -4   7   47.20   11.61   0
  -4   4   7  201.53   15.39   0
   4  -4  -7  181.00   15.82   0
  -4  -4   7  306.67   11.45   0
  -2   4   7   28.60   14.11   0
  -2  -4   7   44.87    9.37   0
   2  -4  -7   24.86   13.19   0
   0  -4  -7    8.78   13.61   0
   0   4   7    9.11   14.62   0
   0  -4   7    5.03    8.31   0
   2  -4   7   14.22    8.14   0
   2   4   7   26.61   13.08   0
  -2  -4  -7   17.74   10.83   0
   4  -4   7   10.89    7.70   0
   4   4   7    0.66   12.06   0
  -4  -4  -7   -0.33    9.67   0
  -6  -4  -7   30.01    9.24   0
   6   4   7   22.33   11.89   0
   6  -4   7   37.71    7.41   0
   8   4   7   26.36   13.72   0
  -8  -4  -7   28.48    9.41   0
   8  -4   7   46.74    7.84   0
  10   4   7   49.39   12.16   0
  10  -4   7   45.25    7.85   0
 -10  -4  -7   43.59    9.24   0
  12  -4   7   62.55    8.65   0
  12   4   7   54.56   12.60   0
 -12  -4  -7   57.48    9.13   0
 -14  -4  -7   68.62    9.91   0
  14  -4   7   93.17    9.19   0
  14   4   7   60.37   13.38   0
  25  -5  -7   27.26    9.16   0
  25   5  -7   44.73   29.46   0
 -25  -5   7   48.45   10.71   0
  23  -5  -7  123.07    9.03   0
  23   5  -7   87.21   27.04   0
 -23  -5   7  149.02    9.99   0
  21  -5  -7  100.90    8.66   0
  21   5  -7   82.55   23.99   0
 -21  -5   7  138.01   10.77   0
  19   5  -7  110.15   22.82   0
 -19  -5   7  189.05   11.58   0
 -17  -5   7  522.15   14.32   0
  17   5  -7  303.54   24.53   0
  17  -5  -7  386.92   10.74   0
 -15  -5   7  796.69   17.14   0
  15   5  -7  529.25   23.04   0
  15  -5  -7  614.01   11.49   0
 -13  -5   7  906.47   19.89   0
  13  -5  -7  726.88   12.60   0
  11  -5  -7 1108.37   14.90   0
 -11  -5   7 1391.03   25.38   0
   9  -5  -7 1157.79   17.19   0
  -9  -5   7 1396.32   26.62   0
  -7  -5   7  700.09   26.60   0
  -7  -5   7 1196.13   17.13   0
   7  -5  -7  660.79   18.01   0
   5  -5  -7  851.70   18.98   0
  -5   5   7  667.31   17.17   0
  -5  -5   7  730.35   26.05   0
  -5  -5   7 1361.13   16.59   0
  -3   5   7 1021.96   20.52   0
   3  -5  -7 1001.60   20.51   0
  -3  -5   7 1698.58   15.58   0
  -1   5   7 1062.42   20.05   0
  -1  -5   7 1487.17   13.61   0
   1  -5  -7  951.50   19.12   0
   1   5   7  723.17   18.92   0
   1  -5   7 1055.78   12.01   0
  -1  -5  -7  716.78   14.41   0
  -3  -5  -7  589.57   12.88   0
   3  -5   7  811.41   10.36   0
   3   5   7  458.04   17.46   0
  -5  -5  -7  461.08   11.47   0
   5   5   7  351.72   15.52   0
   5  -5   7  700.17   10.33   0
  -7  -5  -7  451.27   11.68   0
   7   5   7  377.68   15.79   0
   7  -5   7  683.40   11.17   0
   9   5   7  247.33   14.90   0
  -9  -5  -7  310.26   11.00   0
   9  -5   7  458.26    9.97   0
  11   5   7  151.81   15.58   0
  11  -5   7  290.39    9.51   0
 -11  -5  -7  218.20   10.51   0
  13   5   7  104.51   16.38   0
  13  -5   7  216.67    9.84   0
 -13  -5  -7  125.42   10.55   0
 -24  -6   7  271.31   12.49   0
  24   6  -7  109.91   25.32   0
  24  -6  -7  202.92   10.40   0
 -22  -6   7  303.14   12.38   0
  22  -6  -7  229.54   10.91   0
  22  -6  -7  234.09   10.09   0
  22   6  -7  140.38   25.99   0
  20   6  -7  240.11   24.16   0
 -20  -6   7  445.48   13.32   0
  20  -6  -7  296.74   11.43   0
  20  -6  -7  333.66   10.29   0
  18   6  -7  267.12   21.37   0
  18  -6  -7  288.46   11.50   0
 -18  -6   7  403.29   14.07   0
  16   6  -7  297.01   19.11   0
 -16  -6   7  413.90   15.24   0
  16  -6  -7  311.87   11.25   0
 -14  -6   7  315.36   14.75   0
  14  -6  -7  242.66   11.61   0
  12  -6  -7  344.08   12.87   0
 -12  -6   7  433.59   17.27   0
  10  -6  -7  252.85   13.60   0
 -10  -6   7  313.82   17.53   0
  -8  -6   7  146.12   18.18   0
   8  -6  -7  113.30   15.32   0
   6  -6  -7  125.45   17.24   0
  -6  -6   7  181.92   11.04   0
  -6  -6   7  118.13   22.86   0
  -4  -6   7   61.45   23.14   0
   4  -6  -7   78.12   16.14   0
  -4  -6   7  102.12    9.82   0
  -4   6   7   43.66   13.25   0
  -2  -6   7  132.28   15.69   0
   2  -6  -7  118.45   14.92   0
  -2   6   7   96.76   16.41   0
  -2  -6   7  214.59   10.54   0
   0   6   7   26.68   15.68   0
   0  -6   7   16.04    8.26   0
   0  -6  -7    9.46   12.02   0
   2   6   7   35.89   18.64   0
   2  -6   7   57.04    7.44   0
  -2  -6  -7   42.02   12.85   0
  -4  -6  -7    5.13   10.18   0
   4   6   7    0.76   17.21   0
   4  -6   7    5.30    7.21   0
  -6  -6  -7   25.33   10.34   0
   6   6   7   12.67   20.96   0
   6  -6   7    1.46    8.05   0
   8   6   7   17.02   20.74   0
  -8  -6  -7   20.06   11.58   0
   8  -6   7   15.54    8.27   0
  10   6   7   16.22   17.36   0
 -10  -6  -7   22.87   11.83   0
  10  -6   7   30.25    8.96   0
  21  -7  -7   38.35   11.75   0
  21   7  -7   31.32   19.19   0
  21  -7  -7   44.25    9.42   0
 -21  -7   7   50.82   12.14   0
 -19  -7   7  103.32   13.26   0
  19  -7  -7   73.08   11.77   0
  19   7  -7   64.45   18.15   0
  17  -7  -7  146.73   11.92   0
 -17  -7   7  188.71   15.33   0
  15  -7  -7  213.01   12.04   0
 -15  -7   7  271.81   15.12   0
  13  -7  -7  244.24   12.85   0
 -13  -7   7  305.09   16.83   0
  11  -7  -7  239.63   14.26   0
 -11  -7   7  271.68   16.27   0
   9  -7  -7  273.43   16.38   0
  -9  -7   7  338.35   18.18   0
  -7  -7   7  682.93   14.04   0
   7  -7  -7  350.23   19.10   0
  -7  -7   7  412.03   21.52   0
  -5  -7   7  513.66   13.21   0
  -5  -7   7  320.08   24.91   0
   5  -7  -7  317.65   17.11   0
  -3  -7   7  333.75   23.64   0
  -3   7   7  324.71   16.87   0
  -3  -7   7  587.67   12.23   0
   3  -7  -7  328.45   20.08   0
  -1  -7   7  290.27   21.34   0
   1  -7  -7  320.87   16.04   0
  -1  -7   7  580.31   12.15   0
  -1   7   7  271.43   17.04   0
   1  -7   7  397.92   10.52   0
  -1  -7  -7  247.10   13.85   0
   1  -7   7  248.18   18.76   0
   1   7   7  258.25   19.70   0
   3   7   7  172.77   23.19   0
   3  -7   7  289.63    9.96   0
  -3  -7  -7  189.38   12.84   0
   5   7   7  193.87   22.99   0
   5  -7   7  359.61   10.95   0
  -5  -7  -7  229.87   13.99   0
   7   7   7  108.50   24.14   0
  -7  -7  -7  124.02   11.88   0
   7  -7   7  226.94   10.80   0
 -18  -8   7   62.48   15.28   0
  18  -8  -7   37.52   12.92   0
  16  -8  -7   32.53   15.38   0
 -16  -8   7   33.34   15.07   0
  14  -8  -7   41.15   13.85   0
 -14  -8   7   58.91   16.01   0
 -12  -8   7   35.15   15.57   0
  12  -8  -7   36.23   15.17   0
 -10  -8   7   25.87   15.50   0
  10  -8  -7   22.28   17.08   0
   8  -8  -7   21.75   16.14   0
  -8  -8   7   23.53   11.94   0
  -8  -8   7    7.49   16.43   0
  -6  -8   7   25.91   11.11   0
  -6  -8   7   12.54   18.70   0
   6  -8  -7   -4.03   16.23   0
  -4  -8   7    9.70   22.45   0
  -4  -8   7   31.11   10.08   0
   4  -8  -7   28.12   17.50   0
  -2  -8   7    6.86    9.01   0
   2  -8  -7   15.29   14.94   0
  -2  -8   7   20.91   22.31   0
   0  -8   7   43.94    9.17   0
   0  -8  -7   34.14   15.76   0
   0   8   7   19.39   15.59   0
   0  -8   7   27.27   25.60   0
   2  -8   7    2.03    9.36   0
  -2  -8  -7    0.09   12.67   0
   2  -8   7    1.11   22.81   0
   2   8   7   -6.05   21.11   0
   4  -8   7   11.43    8.21   0
   4  -8   7    3.24   18.49   0
  -4  -8  -7   -9.00   14.04   0
   4   8   7    2.01   24.31   0
  11  -9  -7   27.33   18.75   0
 -11  -9   7   56.26   17.03   0
 -11  -9   7   65.23   13.59   0
  -9  -9   7   49.60   14.11   0
  -9  -9   7   41.48   17.35   0
   9  -9  -7   38.92   20.61   0
  -7  -9   7   52.37   13.28   0
   7  -9  -7   48.98   18.00   0
  -7  -9   7   36.28   16.91   0
   5  -9  -7   72.40   19.13   0
  -5  -9   7  102.82   12.47   0
  -5  -9   7   51.20   20.43   0
   3  -9  -7   40.92   16.44   0
  -3  -9   7   30.17   23.03   0
  -3  -9   7   68.61   10.94   0
  -1  -9   7   27.64   25.39   0
  -1  -9   7   35.84   10.29   0
   1  -9  -7   25.86   15.44   0
  30   0  -8  242.44   12.67   0
  28   0  -8  269.87   11.98   0
  26   0  -8  588.23   12.17   0
  24   0  -8 1071.93   12.91   0
  22   0  -8  969.05   13.31   0
  20   0  -8 1262.28   12.85   0
  18   0  -8 1861.16   14.67   0
  16   0  -8 3451.89   19.33   0
  12   0  -8 2872.66   22.10   0
  10   0  -8 1096.16   19.31   0
   8   0  -8 2189.61   29.30   0
  -8   0   8 2202.29   29.46   0
  -6   0   8 1034.20   19.77   0
   6   0  -8  990.59   20.72   0
   4   0  -8  951.11   15.64   0
  -4   0   8 1001.99   14.78   0
   2   0  -8  548.25   12.58   0
  -2   0   8  602.76   11.99   0
   0   0   8   90.41    9.17   0
   0   0  -8   92.14    9.41   0
   2   0   8   94.11    8.60   0
  -2   0  -8   80.23    8.68   0
  -4   0  -8   35.65    8.41   0
   4   0   8   38.53    8.31   0
  -6   0  -8   32.44    8.11   0
   6   0   8   15.51    8.17   0
   8   0   8   23.61    8.31   0
  -8   0  -8   -7.07    8.26   0
  10   0   8   12.91    8.15   0
 -10   0  -8    5.11    8.09   0
 -12   0  -8   38.74    8.61   0
  12   0   8   31.67    8.79   0
 -14   0  -8   12.18    9.02   0
  14   0   8   19.82    9.31   0
  29  -1  -8   10.86    9.89   0
  29   1  -8   19.41   13.08   0
  27  -1  -8    9.25    9.50   0
  27   1  -8    7.90   12.22   0
  25   1  -8    4.47   10.03   0
  25  -1  -8   14.32    9.03   0
  23  -1  -8   35.56    8.61   0
  23   1  -8   40.60   10.94   0
  21  -1  -8   74.87    8.78   0
  21   1  -8   74.40   10.09   0
  19   1  -8  173.60   10.67   0
  19  -1  -8  191.84    9.07   0
  17  -1  -8  324.84   10.70   0
  17   1  -8  329.23   10.79   0
  15   1  -8  817.08   14.08   0
  13   1  -8 1410.41   18.31   0
  11   1  -8 1406.87   25.51   0
  11  -1  -8 1327.17   18.05   0
   9  -1  -8 1966.58   22.54   0
   9   1  -8 2099.66   39.38   0
  -9  -1   8 1645.83   39.07   0
  -9   1   8 1865.95   24.87   0
  -7   1   8 2594.78   28.58   0
   7   1  -8 2686.31   30.46   0
   7  -1  -8 2486.91   26.75   0
  -7  -1   8 2745.49   33.14   0
  -5   1   8 3054.61   25.20   0
   5   1  -8 3046.94   24.34   0
  -5  -1   8 3536.73   25.27   0
   5  -1  -8 2785.04   25.80   0
   3  -1  -8 2037.09   19.37   0
  -3   1   8 2170.97   19.14   0
   3   1  -8 2304.30   18.40   0
  -3  -1   8 2471.53   18.80   0
   1  -1  -8 2358.49   18.06   0
  -1  -1   8 2813.68   17.58   0
   1   1  -8 2588.75   17.91   0
  -1   1   8 2497.50   17.84   0
  -1   1  -8 2351.79   15.96   0
   1  -1   8 2565.96   15.57   0
   1   1   8 2300.54   15.90   0
  -1  -1  -8 2159.68   16.00   0
   3  -1   8 1892.90   13.48   0
  -3   1  -8 1833.70   13.71   0
  -3  -1  -8 1675.93   14.10   0
   3   1   8 1722.62   13.92   0
   5  -1   8 1302.41   12.09   0
   5   1   8 1215.60   12.47   0
  -5   1  -8 1355.21   12.55   0
  -5  -1  -8 1183.50   12.55   0
   7  -1   8 1142.94   11.66   0
  -7  -1  -8 1010.54   11.78   0
   7   1   8 1052.91   11.76   0
  -7   1  -8 1168.88   11.84   0
   9  -1   8  853.93   10.98   0
  -9   1  -8  905.49   11.31   0
  -9  -1  -8  802.88   10.88   0
   9   1   8  752.13   11.09   0
  11  -1   8  535.89   10.18   0
 -11  -1  -8  531.74   10.21   0
 -11   1  -8  576.38   10.34   0
  11   1   8  488.43   10.79   0
 -13   1  -8  306.02   10.13   0
  13  -1   8  324.96    9.74   0
 -13  -1  -8  284.31   10.15   0
  13   1   8  316.83   10.51   0
  15  -1   8  233.80   10.26   0
 -15  -1  -8  212.85   10.14   0
 -15   1  -8  193.90   10.43   0
  15   1   8  209.02   10.77   0
  30   2  -8   66.92   13.71   0
  30  -2  -8   95.87   11.14   0
  28  -2  -8  198.82   10.66   0
  28   2  -8  193.70   13.13   0
  26   2  -8  226.25   14.20   0
  26  -2  -8  326.71   10.28   0
  24   2  -8  315.50   13.22   0
  24  -2  -8  395.47   10.23   0
  22  -2  -8  783.26   10.93   0
  22   2  -8  612.15   14.26   0
  20  -2  -8  640.20   10.56   0
  20   2  -8  523.47   15.01   0
  18   2  -8  875.31   16.63   0
  16   2  -8  999.58   18.04   0
  14   2  -8 1340.60   22.89   0
  12   2  -8  450.76   23.14   0
  12  -2  -8  513.86   11.84   0
  12   2  -8  577.46   23.58   0
  10  -2  -8  635.71   14.45   0
  -8   2   8  649.18   18.33   0
   8   2  -8  878.68   25.55   0
  -8  -2   8  693.67   37.83   0
   8  -2  -8  672.91   17.44   0
   6  -2  -8  641.79   17.31   0
  -6  -2   8  796.22   17.64   0
   6   2  -8  764.60   17.05   0
  -6   2   8  662.52   17.39   0
   4   2  -8  475.63   13.10   0
  -4  -2   8  472.68   12.82   0
  -4   2   8  344.29   14.52   0
   4  -2  -8  319.74   15.10   0
  -2  -2   8  423.83   11.09   0
  -2   2   8  335.93   12.50   0
   2   2  -8  406.17   11.29   0
   2  -2  -8  322.12   12.38   0
   0  -2  -8  101.77   10.16   0
   0   2   8  115.44   10.24   0
   0  -2   8  126.09    9.83   0
   0   2  -8  132.64    9.03   0
  -2   2  -8   31.22    7.99   0
  -2  -2  -8   23.00    9.45   0
   2  -2   8   35.25    7.71   0
   2   2   8   40.70    9.78   0
  -4   2  -8   13.18    8.22   0
   4  -2   8    3.04    7.99   0
  -4  -2  -8    5.06    8.97   0
   4   2   8    6.53    9.50   0
   6  -2   8    7.17    7.87   0
  -6   2  -8   13.39    8.12   0
  -6  -2  -8   14.15    8.55   0
   6   2   8    6.30    9.28   0
   8  -2   8    0.84    8.41   0
  -8   2  -8    6.32    9.66   0
   8   2   8    9.61    9.58   0
  -8  -2  -8   -3.61    8.73   0
 -10  -2  -8   14.66    8.72   0
  10  -2   8   15.93    8.15   0
 -10   2  -8   28.58    8.52   0
  10   2   8   31.43    9.82   0
 -12   2  -8   11.57    8.65   0
  12  -2   8   19.85    8.60   0
  12   2   8   -1.93   10.09   0
 -12  -2  -8   10.33    8.92   0
 -14  -2  -8   15.95    9.42   0
  14   2   8   13.72   10.86   0
 -14   2  -8   26.80   10.39   0
  14  -2   8   14.45    9.28   0
  29  -3  -8   14.95   10.01   0
  29   3  -8   14.88   17.65   0
  27  -3  -8   -4.91    9.52   0
  27   3  -8  -13.73   15.63   0
  25   3  -8   20.00   15.14   0
  25  -3  -8  -10.23    8.95   0
  23   3  -8    8.76   14.56   0
  23  -3  -8    6.12    8.40   0
  21   3  -8  116.82   16.83   0
  21  -3  -8  149.95    9.00   0
  19   3  -8   97.42   16.40   0
  17   3  -8  140.85   18.45   0
  15   3  -8  105.15   24.07   0
  15  -3  -8  134.37    9.03   0
  13  -3  -8  102.24    9.01   0
  11  -3  -8  362.75   11.28   0
   9  -3  -8  607.60   14.51   0
  -9   3   8  537.43   14.21   0
   7  -3  -8 1379.33   19.18   0
  -7  -3   8 2017.08   27.63   0
  -7   3   8 1442.68   20.57   0
  -5   3   8  615.12   16.44   0
  -5  -3   8  860.87   14.51   0
   5  -3  -8  612.71   16.60   0
   3  -3  -8  283.86   14.19   0
  -3   3   8  280.00   15.44   0
  -3  -3   8  408.52   11.08   0
   1   3  -8  443.88   11.08   0
  -1  -3   8  486.55   10.70   0
   1  -3  -8  373.56   12.78   0
  -1   3   8  359.22   13.46   0
  -1  -3  -8  451.68   12.46   0
   1  -3   8  569.68    9.76   0
  -1   3  -8  531.03   11.22   0
   1   3   8  467.54   13.17   0
   3   3   8  726.20   13.56   0
  -3  -3  -8  722.62   12.52   0
  -3   3  -8  872.76   11.20   0
   3  -3   8  917.87   10.61   0
   5   3   8  393.08   11.79   0
  -5   3  -8  537.95   11.17   0
  -5  -3  -8  396.09   10.79   0
   5  -3   8  505.73   10.39   0
   7  -3   8  375.83    9.17   0
  -7   3  -8  384.55   10.70   0
   7   3   8  313.60   11.86   0
  -7  -3  -8  299.45   10.62   0
   9  -3   8  224.61    8.76   0
   9   3   8  196.64   11.39   0
  -9  -3  -8  183.28    9.94   0
 -11  -3  -8  104.86    9.57   0
  11  -3   8  103.59    8.85   0
  11   3   8  119.26   11.57   0
  13  -3   8  125.45    9.39   0
 -13  -3  -8   71.96   10.00   0
  13   3   8   94.53   12.08   0
  28  -4  -8   25.11   10.06   0
  28   4  -8   37.14   24.45   0
  26   4  -8   40.74   26.48   0
  26  -4  -8   55.04    9.48   0
  24  -4  -8   91.52    9.17   0
  24   4  -8   67.82   21.74   0
  22  -4  -8   66.01    8.80   0
  22   4  -8   54.78   23.32   0
  20   4  -8  159.57   26.25   0
  18   4  -8   96.97   26.75   0
  16   4  -8  180.61   23.97   0
  16  -4  -8  214.46    9.58   0
  14   4  -8  174.90   25.53   0
  14  -4  -8  182.07    9.96   0
  12  -4  -8  162.45   10.62   0
  10  -4  -8   72.20   11.17   0
  -8  -4   8  148.49   33.35   0
   8  -4  -8  141.54   14.52   0
  -8   4   8  138.15   12.21   0
  -8  -4   8  242.05   18.45   0
  -6  -4   8  350.06   13.71   0
   6  -4  -8  237.89   14.59   0
  -6   4   8  227.55   15.07   0
  -4  -4   8  129.91   10.33   0
   4  -4  -8   99.31   15.04   0
  -4   4   8   80.42   13.69   0
  -2   4   8   72.13   15.10   0
  -2  -4   8  132.84   10.05   0
   2  -4  -8   93.90   13.05   0
   0   4   8   85.42   14.03   0
   0  -4  -8  105.76   12.02   0
   0  -4   8  150.38    9.02   0
   2   4   8    5.66   12.65   0
  -2  -4  -8    1.91   10.67   0
   2  -4   8    4.49    8.43   0
   4   4   8   14.24   11.62   0
  -4  -4  -8   11.28    9.66   0
   4  -4   8   16.36    7.61   0
   6   4   8    9.66   12.13   0
   6  -4   8   13.92    7.74   0
  -6  -4  -8   12.04    9.68   0
   8   4   8   -8.40   12.00   0
   8  -4   8   14.78    9.14   0
  -8  -4  -8   10.06   10.70   0
  10  -4   8   14.02    8.30   0
  10   4   8   22.86   11.81   0
 -10  -4  -8    4.81    9.33   0
 -12  -4  -8   12.04    9.51   0
  12  -4   8   -7.61    8.81   0
  12   4   8   20.78   14.66   0
  27  -5  -8   12.79    9.94   0
  25  -5  -8    8.65    9.25   0
  25   5  -8    8.91   25.28   0
  23   5  -8   31.23   24.76   0
  23  -5  -8   11.99    8.62   0
  21  -5  -8   -2.30    8.52   0
  21   5  -8   11.43   19.88   0
 -21  -5   8   21.86   10.62   0
  19   5  -8   21.07   20.28   0
  19  -5  -8   32.51    9.23   0
 -19  -5   8   22.47   11.18   0
 -17  -5   8    4.43   11.94   0
  17   5  -8   -0.07   21.88   0
  17  -5  -8   22.74    9.45   0
 -15  -5   8   22.20   14.61   0
  15  -5  -8   10.99    9.31   0
  13  -5  -8   19.72   10.71   0
  11  -5  -8   21.90   11.23   0
   9  -5  -8   29.15   13.48   0
  -9  -5   8   13.88   14.24   0
  -9  -5   8   19.43   20.24   0
   7  -5  -8   12.39   14.31   0
  -7  -5   8    5.17   10.97   0
  -7  -5   8   -2.38   22.15   0
  -7   5   8   -1.46   12.74   0
   5  -5  -8   33.37   15.00   0
  -5  -5   8   34.42    9.52   0
  -5   5   8   38.13   17.83   0
  -5  -5   8   28.96   16.65   0
  -3  -5   8   33.02    8.43   0
   3  -5  -8    4.82   15.25   0
  -3   5   8   19.16   17.54   0
  -1   5   8    9.82   14.04   0
  -1  -5   8   23.68    9.83   0
   1  -5  -8    1.88   12.52   0
   1   5   8   24.86   15.63   0
   1  -5   8   47.27    8.64   0
  -1  -5  -8   35.17   11.37   0
  -3  -5  -8   16.84   10.68   0
   3   5   8    8.36   14.13   0
   3  -5   8   27.87    8.65   0
  -5  -5  -8   22.38   10.05   0
   5   5   8    2.40   13.85   0
   5  -5   8   26.58    7.85   0
   7   5   8    0.17   13.35   0
  -7  -5  -8   15.88    9.44   0
   7  -5   8   10.64    9.54   0
   9   5   8   26.68   14.00   0
  -9  -5  -8   26.63    9.55   0
   9  -5   8   13.71    8.20   0
  11   5   8   21.30   16.74   0
  11  -5   8    7.42   10.36   0
 -11  -5  -8  -11.33    9.93   0
  24  -6  -8    1.14   10.25   0
  24   6  -8   -4.93   25.04   0
  24  -6  -8    7.60    9.43   0
 -22  -6   8   13.51   12.29   0
  22  -6  -8    9.17   10.05   0
  22   6  -8    9.66   25.13   0
  22  -6  -8    1.63    9.11   0
  20   6  -8   41.76   19.59   0
  20  -6  -8   24.32   10.35   0
 -20  -6   8   47.76   12.19   0
  18  -6  -8   29.99   11.90   0
 -18  -6   8   19.30   13.27   0
  18   6  -8   13.75   17.81   0
 -16  -6   8   30.47   15.91   0
  16  -6  -8   37.90   10.43   0
  14  -6  -8   50.18   11.42   0
 -14  -6   8   56.26   18.03   0
  12  -6  -8    4.37   11.82   0
 -12  -6   8   12.52   17.97   0
 -10  -6   8   22.21   14.92   0
  10  -6  -8   35.83   13.69   0
 -10  -6   8   17.55   17.15   0
   8  -6  -8   25.80   14.70   0
  -8  -6   8   15.42   19.24   0
  -8  -6   8   28.03   12.06   0
  -6  -6   8   47.59   22.16   0
   6  -6  -8   30.37   14.53   0
  -6   6   8   35.73   12.77   0
  -6  -6   8   51.60   10.68   0
   4  -6  -8    7.77   15.47   0
  -4  -6   8    1.68    9.79   0
  -4   6   8   12.98   14.73   0
  -4  -6   8    0.12   19.17   0
  -2  -6   8   19.30    8.79   0
   2  -6  -8    2.00   13.70   0
  -2   6   8   29.16   15.33   0
   0  -6   8   26.08    8.66   0
   0   6   8   36.47   17.55   0
   0  -6  -8   26.86   12.37   0
   2  -6   8    8.61    8.55   0
   2   6   8    9.36   15.54   0
  -2  -6  -8   24.64   13.23   0
  -4  -6  -8    2.57   10.85   0
   4   6   8  -24.80   15.86   0
   4  -6   8    7.32    9.16   0
  -6  -6  -8   22.90   12.12   0
   6   6   8    4.03   20.44   0
   6  -6   8    5.53    9.27   0
   8   6   8   17.38   16.93   0
  -8  -6  -8   -2.31   11.63   0
   8  -6   8    4.62    8.49   0
 -10  -6  -8   23.83   10.56   0
  10  -6   8    8.97    9.98   0
  10   6   8   -2.69   17.45   0
 -21  -7   8   15.36   13.60   0
  21  -7  -8   16.81    9.43   0
  21  -7  -8   -6.17   11.28   0
  21   7  -8   13.19   19.99   0
  19  -7  -8   41.58   11.40   0
 -19  -7   8   40.44   14.26   0
 -17  -7   8   20.97   16.25   0
  17  -7  -8   18.62   11.63   0
 -15  -7   8   45.58   18.12   0
  15  -7  -8   41.69   12.12   0
  13  -7  -8   56.16   12.89   0
 -13  -7   8   75.26   17.90   0
 -11  -7   8   84.03   15.04   0
  11  -7  -8   57.12   14.76   0
 -11  -7   8   56.34   16.35   0
  -9  -7   8  119.55   13.53   0
  -9  -7   8   87.90   17.59   0
   9  -7  -8   66.04   15.27   0
  -7  -7   8  103.12   20.54   0
   7  -7  -8  118.55   14.75   0
  -7  -7   8  174.55   12.50   0
  -5  -7   8   98.90   22.55   0
   5  -7  -8  124.71   15.42   0
  -5   7   8  102.52   13.25   0
  -5  -7   8  177.18   11.58   0
   3  -7  -8   49.66   15.22   0
  -3  -7   8   87.03   10.10   0
  -3   7   8   48.66   17.61   0
  -3  -7   8   46.24   22.28   0
  -1   7   8   51.27   20.96   0
  -1  -7   8   80.62    9.41   0
   1  -7  -8   44.83   13.72   0
  -1  -7   8   29.93   17.53   0
   1   7   8   46.20   17.82   0
   1  -7   8  116.37    9.45   0
  -1  -7  -8   78.17   12.78   0
  -3  -7  -8   67.16   13.96   0
   3   7   8   71.09   17.68   0
   3  -7   8   97.18    9.53   0
   5   7   8   39.68   19.19   0
   5  -7   8   72.53    8.88   0
  -5  -7  -8   30.17   11.60   0
   7   7   8  -12.48   22.60   0
  -7  -7  -8   32.25   11.46   0
   7  -7   8   33.33   10.21   0
  18  -8  -8   68.30   13.10   0
  16  -8  -8  131.94   14.09   0
  14  -8  -8   80.19   16.80   0
 -14  -8   8  110.66   21.53   0
  12  -8  -8   85.81   16.58   0
 -12  -8   8  119.14   18.87   0
 -12  -8   8  155.09   17.16   0
  10  -8  -8  125.49   16.43   0
 -10  -8   8  159.36   14.90   0
 -10  -8   8  115.12   18.66   0
   8  -8  -8  139.38   16.29   0
  -8  -8   8  118.59   19.26   0
  -8  -8   8  185.42   13.89   0
  -6  -8   8   85.30   11.58   0
  -6  -8   8   42.22   20.08   0
   6  -8  -8   74.32   16.13   0
  -4  -8   8   32.49   23.94   0
   4  -8  -8   42.11   19.36   0
  -4  -8   8   76.15   10.65   0
  -2  -8   8   24.43   22.38   0
  -2  -8   8   54.63    9.62   0
   2  -8  -8   42.50   14.43   0
  -2   8   8   49.99   15.49   0
   0  -8   8   39.40   10.73   0
   0  -8  -8   24.00   13.97   0
   0   8   8   20.04   17.73   0
   0  -8   8   10.23   25.29   0
   2  -8   8   17.04    9.82   0
   2  -8   8    7.46   20.43   0
  -2  -8  -8   13.73   12.63   0
   2   8   8   19.50   24.44   0
 -11  -9   8   63.54   19.59   0
 -11  -9   8   95.47   17.59   0
  11  -9  -8   92.17   20.47   0
  -9  -9   8   42.46   19.25   0
   9  -9  -8   39.42   17.37   0
  -9  -9   8   66.29   15.26   0
   7  -9  -8   65.46   17.85   0
  -7  -9   8   60.07   18.84   0
  -7  -9   8   97.38   13.46   0
  -5  -9   8   64.50   21.88   0
   5  -9  -8   60.11   18.93   0
  -5  -9   8  131.11   12.80   0
  -3  -9   8   55.64   27.24   0
  -3  -9   8  142.15   11.91   0
   3  -9  -8   84.28   16.57   0
  31   1  -9   -4.38   12.50   0
  31  -1  -9   14.30   12.61   0
  29  -1  -9   12.24    9.78   0
  29   1  -9   10.71   11.08   0
  27  -1  -9   10.51    9.57   0
  27   1  -9    8.58   11.44   0
  25  -1  -9    7.30    8.56   0
  25   1  -9   12.42   10.18   0
  23  -1  -9    8.43    8.64   0
  23   1  -9    2.31   10.67   0
  21   1  -9   20.51   10.31   0
  21  -1  -9   27.15    8.40   0
  19   1  -9   11.29    9.69   0
  19  -1  -9   -3.75    8.33   0
  17   1  -9   49.86   10.58   0
  15   1  -9   33.50    9.34   0
  13   1  -9   45.98   13.33   0
  13  -1  -9   49.13   10.00   0
  11   1  -9   66.58   20.16   0
  11  -1  -9   67.43   11.89   0
   9  -1  -9  214.83   15.44   0
  -9   1   9  247.07   17.17   0
  -9  -1   9  244.75   21.92   0
   9   1  -9  229.17   21.80   0
  -7   1   9  320.16   16.45   0
   7   1  -9  379.03   16.60   0
  -7  -1   9  383.98   16.72   0
   7  -1  -9  358.73   18.47   0
  -5   1   9   63.21   12.17   0
   5   1  -9   65.23   11.16   0
   5  -1  -9   60.17   13.31   0
  -5  -1   9   62.31   10.57   0
   3  -1  -9  114.72   11.82   0
  -3   1   9  110.50   10.93   0
   3   1  -9  123.00    9.72   0
  -3  -1   9  121.15   10.46   0
  -1  -1   9  167.78    9.38   0
   1  -1  -9  150.53   10.09   0
  -1   1   9  135.80    9.84   0
   1   1  -9  152.56    9.79   0
   1  -1   9  269.11    8.90   0
  -1  -1  -9  203.67   11.30   0
  -1   1  -9  238.24    9.17   0
   1   1   9  223.68    9.67   0
   3  -1   9  271.38    9.24   0
  -3  -1  -9  242.09   10.14   0
   3   1   9  250.04    8.42   0
  -3   1  -9  247.34    9.49   0
   5  -1   9  142.75    8.52   0
  -5   1  -9  132.76   10.05   0
   5   1   9  134.05    9.06   0
  -5  -1  -9  136.58    8.92   0
   7  -1   9   79.43    8.48   0
  -7   1  -9   73.42    8.62   0
  -7  -1  -9   80.60    8.63   0
   7   1   9   77.36    8.80   0
   9  -1   9   15.24    8.03   0
  -9   1  -9   51.66    8.37   0
  -9  -1  -9   31.31    8.51   0
   9   1   9   12.99   10.22   0
  11  -1   9   53.29    8.93   0
 -11  -1  -9   59.11    9.01   0
 -11   1  -9   44.65    9.07   0
  11   1   9   59.66    9.19   0
  13  -1   9   44.64    9.20   0
 -13   1  -9   55.77    9.14   0
  13   1   9   37.51    9.88   0
 -13  -1  -9   31.19    9.19   0
  30  -2  -9   42.58   10.70   0
  30   2  -9   47.68   15.51   0
  28   2  -9   97.63   14.17   0
  28  -2  -9  112.63    9.98   0
  26   2  -9  160.03   13.69   0
  26  -2  -9  190.33    9.53   0
  24  -2  -9  206.27    9.48   0
  24   2  -9  160.80   12.75   0
  22   2  -9  329.98   13.59   0
  22  -2  -9  441.05   10.99   0
  20  -2  -9  419.54   10.09   0
  20   2  -9  348.56   14.76   0
  18   2  -9  382.88   14.85   0
  16   2  -9  573.47   17.46   0
  14  -2  -9 1168.48   14.63   0
  14   2  -9 1078.48   24.63   0
  12  -2  -9  813.57   14.11   0
  12   2  -9  946.27   49.82   0
 -10   2   9  652.28   17.40   0
  10   2  -9 1057.18   36.15   0
  10  -2  -9  820.66   15.94   0
  -8   2   9  620.82   16.59   0
   8   2  -9  699.11   19.39   0
   8  -2  -9  570.40   16.23   0
  -8  -2   9  699.87   22.86   0
   6  -2  -9  634.91   16.73   0
  -6   2   9  619.52   16.98   0
   6   2  -9  767.19   15.32   0
  -6  -2   9  828.14   15.58   0
  -4  -2   9  437.29   11.02   0
   4   2  -9  397.25   11.46   0
  -4   2   9  359.44   13.42   0
   4  -2  -9  320.81   13.55   0
  -2  -2   9  327.03   10.42   0
  -2   2   9  255.40   11.34   0
   2   2  -9  307.57   11.30   0
   2  -2  -9  251.05   11.57   0
   0  -2  -9  123.02   10.29   0
   0  -2   9  152.37    8.73   0
   0   2   9  145.91   10.29   0
   0   2  -9  146.24    9.18   0
   2  -2   9   22.80    9.09   0
  -2  -2  -9   20.56    9.60   0
   2   2   9   17.36    9.75   0
  -2   2  -9   14.33    8.41   0
   4  -2   9   34.15    8.20   0
  -4   2  -9   48.61    9.91   0
  -4  -2  -9   42.75    9.02   0
   4   2   9   30.21    9.45   0
   6  -2   9   11.91    7.86   0
  -6   2  -9   33.38    8.47   0
   6   2   9   10.11    9.46   0
  -6  -2  -9   25.95    9.01   0
  -8  -2  -9   12.68    8.97   0
   8  -2   9   25.96    8.18   0
   8   2   9   21.65    9.31   0
  -8   2  -9    6.61    8.79   0
 -10  -2  -9    6.16    8.96   0
  10  -2   9   -2.87    8.70   0
 -10   2  -9   -0.46    9.14   0
  10   2   9    2.49    9.71   0
 -12   2  -9   -3.71    9.25   0
  12  -2   9    3.36    8.95   0
 -12  -2  -9    3.43    9.41   0
  12   2   9    9.40   10.50   0
  29   3  -9   10.83   18.13   0
  29  -3  -9   27.96    9.95   0
  27   3  -9   13.66   16.36   0
  27  -3  -9  -12.76    9.36   0
  25   3  -9    3.83   15.96   0
  25  -3  -9   15.16    8.95   0
  23   3  -9   22.68   16.59   0
  23  -3  -9   10.77    8.91   0
  21  -3  -9   -8.29    8.27   0
  21   3  -9   12.92   16.72   0
  19   3  -9   14.08   17.31   0
  17  -3  -9   24.54    8.74   0
  17   3  -9   26.39   21.32   0
  15   3  -9   18.19   34.50   0
  15  -3  -9   19.88    8.83   0
  13  -3  -9   28.31    9.27   0
  11  -3  -9  125.26   11.15   0
  -9   3   9  312.07   14.98   0
   9  -3  -9  318.80   14.35   0
  -7   3   9  252.50   13.69   0
  -7  -3   9  348.61   15.45   0
   7  -3  -9  258.30   13.71   0
  -5   3   9  655.85   15.79   0
  -5  -3   9  902.20   14.51   0
   5  -3  -9  641.33   16.40   0
  -3   3   9  480.19   14.75   0
  -3  -3   9  743.39   11.80   0
   3   3  -9  683.39   13.04   0
   3  -3  -9  506.99   14.23   0
   1  -3  -9  559.98   13.32   0
  -1   3   9  559.45   13.80   0
  -1  -3   9  759.56   11.82   0
   1   3  -9  695.00   12.27   0
  -1  -3  -9  423.46   12.02   0
   1   3   9  421.09   12.82   0
   1  -3   9  578.97   10.59   0
  -1   3  -9  528.96   10.12   0
  -3   3  -9  755.08   12.36   0
  -3  -3  -9  638.47   12.06   0
   3  -3   9  802.33   10.53   0
   3   3   9  618.78   12.78   0
   5  -3   9  565.68    9.56   0
  -5  -3  -9  440.96   11.16   0
   5   3   9  454.11   12.01   0
  -5   3  -9  557.05   11.61   0
   7  -3   9  348.42    9.17   0
  -7   3  -9  355.54   10.03   0
   7   3   9  314.83   11.95   0
  -7  -3  -9  297.80   10.59   0
   9  -3   9  306.17    9.65   0
   9   3   9  256.56   11.84   0
  -9   3  -9  281.50   10.33   0
  -9  -3  -9  235.22   10.64   0
 -11  -3  -9  151.93   10.32   0
  11  -3   9  198.70    9.49   0
  11   3   9  161.24   11.85   0
  13  -3   9  162.07    9.37   0
 -13  -3  -9   84.28   10.13   0
  13   3   9  120.51   12.36   0
  28  -4  -9  198.17   11.13   0
  28   4  -9  152.71   27.00   0
  26  -4  -9  228.66   10.31   0
  26   4  -9  143.81   28.72   0
  24   4  -9  269.94   26.78   0
  24  -4  -9  374.06   10.57   0
  22  -4  -9  377.54   10.33   0
  22   4  -9  272.15   27.71   0
  20   4  -9  650.59   30.77   0
  18   4  -9  797.96   30.56   0
  18  -4  -9  918.82   12.19   0
  16   4  -9  893.50   38.81   0
  16  -4  -9 1015.32   12.72   0
  14  -4  -9 1023.39   13.50   0
  12  -4  -9 1293.33   15.44   0
  10  -4  -9  940.08   16.93   0
   8  -4  -9  759.96   16.36   0
  -8   4   9  779.74   17.14   0
  -8  -4   9  995.84   22.57   0
  -8  -4   9  709.46   36.01   0
  -6   4   9 1035.47   17.77   0
   6  -4  -9 1005.12   17.91   0
  -6  -4   9 1452.52   17.87   0
  -4   4   9  750.95   16.59   0
   4  -4  -9  615.34   17.58   0
  -4  -4   9  957.21   14.03   0
  -2   4   9  329.39   16.04   0
  -2  -4   9  517.18   11.89   0
   2  -4  -9  360.99   14.28   0
   0   4   9   73.38   13.65   0
   0  -4   9  168.96    9.00   0
   0  -4  -9  105.77   11.82   0
  -2  -4  -9  272.43   11.51   0
   2   4   9  237.07   12.96   0
   2  -4   9  359.17    8.91   0
  -4  -4  -9   62.26   12.02   0
   4   4   9   58.69   12.56   0
   4  -4   9   74.75    8.86   0
   6   4   9   15.82   11.76   0
  -6  -4  -9   22.32    9.71   0
   6  -4   9   31.57    8.16   0
   8  -4   9    4.33    8.01   0
   8   4   9    0.12   12.43   0
  -8  -4  -9   16.23    9.82   0
  10  -4   9   28.09    8.63   0
  10   4   9   11.86   12.79   0
 -10  -4  -9    3.07   11.21   0
 -12  -4  -9   16.80    9.90   0
  12  -4   9    1.21    8.92   0
  12   4   9   16.35   12.99   0
  27  -5  -9    7.28    9.88   0
  27   5  -9   25.37   24.45   0
  25   5  -9   12.36   24.07   0
  25  -5  -9    9.17    9.28   0
  23   5  -9   15.52   21.83   0
  23  -5  -9    4.41    8.77   0
  21   5  -9   10.62   21.73   0
  21  -5  -9    7.18    9.02   0
  19  -5  -9   42.50    9.35   0
  19   5  -9   38.85   22.54   0
 -17  -5   9    1.88    4.29   0
  17  -5  -9   89.09    9.82   0
  15  -5  -9   62.27    9.96   0
  13  -5  -9  179.59   11.81   0
  11  -5  -9  259.20   13.50   0
   9  -5  -9  237.83   14.92   0
  -9  -5   9  231.85   27.37   0
  -9  -5   9  348.38   19.66   0
  -9   5   9  192.86   13.01   0
  -7  -5   9  465.38   13.91   0
  -7  -5   9  312.32   23.56   0
   7  -5  -9  310.05   15.11   0
  -7   5   9  239.03   16.12   0
   5  -5  -9  581.65   16.96   0
  -5  -5   9  837.06   14.11   0
  -5   5   9  587.69   16.66   0
  -3   5   9  778.56   17.48   0
   3  -5  -9  694.09   16.84   0
  -3  -5   9 1133.06   13.37   0
  -1   5   9  630.71   16.57   0
   1  -5  -9  587.52   14.57   0
  -1  -5   9  924.14   12.02   0
   1   5   9  490.97   17.15   0
   1  -5   9  728.80   11.16   0
  -1  -5  -9  489.57   13.46   0
   3   5   9  318.04   15.46   0
  -3  -5  -9  364.24   12.25   0
   3  -5   9  518.14   10.95   0
  -5  -5  -9  458.21   12.14   0
   5   5   9  371.44   15.52   0
   5  -5   9  684.29   11.41   0
   7   5   9  259.50   15.12   0
  -7  -5  -9  281.62   11.66   0
   7  -5   9  471.00   11.05   0
   9   5   9  195.25   15.37   0
   9  -5   9  301.75   10.83   0
  -9  -5  -9  190.52   12.59   0
  24  -6  -9  163.14   11.47   0
  24   6  -9  116.86   26.48   0
  24  -6  -9  195.31   10.30   0
  22  -6  -9  351.40   10.44   0
  22  -6  -9  319.68   11.74   0
  22   6  -9  290.25   26.03   0
  20  -6  -9  330.14   11.92   0
  20   6  -9  369.19   24.39   0
  18  -6  -9  557.33   12.41   0
  16  -6  -9  417.58   12.40   0
  14  -6  -9  649.90   13.84   0
  12  -6  -9  616.71   15.48   0
 -10  -6   9  741.01   28.72   0
  10  -6  -9  654.26   17.26   0
 -10  -6   9 1052.48   25.09   0
  -8  -6   9  547.29   25.53   0
   8  -6  -9  587.25   16.17   0
  -8  -6   9  905.59   17.13   0
  -6  -6   9  447.32   23.77   0
  -6  -6   9  661.57   14.24   0
   6  -6  -9  467.43   16.14   0
  -6   6   9  344.95   16.93   0
  -4  -6   9  735.42   13.33   0
   4  -6  -9  459.14   17.54   0
  -4  -6   9  416.00   20.76   0
  -4   6   9  450.38   17.35   0
  -2   6   9  157.79   15.24   0
  -2  -6   9  229.65   11.02   0
   2  -6  -9  126.48   14.33   0
   0   6   9  221.05   18.07   0
   0  -6   9  310.96    9.99   0
   0  -6  -9  196.99   14.72   0
   2   6   9   80.21   15.57   0
   2  -6   9  136.79    8.21   0
  -2  -6  -9  110.37   11.86   0
  -4  -6  -9   62.01   12.56   0
   4   6   9   81.92   16.10   0
   4  -6   9   97.04    9.72   0
   6   6   9   23.10   16.92   0
  -6  -6  -9   28.17   12.41   0
   6  -6   9   22.12    9.75   0
   8   6   9   26.77   17.27   0
  -8  -6  -9   25.73   10.92   0
   8  -6   9   18.53    8.60   0
 -23  -7   9   -0.34    4.75   0
  23  -7  -9   31.31    9.98   0
  23   7  -9    3.77   21.56   0
  23  -7  -9    8.88   11.65   0
  21  -7  -9   10.54   11.64   0
  19  -7  -9    4.20   11.82   0
  17  -7  -9   31.57   12.00   0
  15  -7  -9   32.64   12.79   0
  13  -7  -9   56.47   13.54   0
  11  -7  -9   84.96   15.20   0
 -11  -7   9  106.72   23.03   0
 -11  -7   9    0.29    4.78   0
 -11  -7   9  162.54   20.74   0
   9  -7  -9  133.63   14.97   0
  -9  -7   9  210.33   13.88   0
  -9  -7   9  145.59   20.90   0
  -7  -7   9   93.52   23.02   0
   7  -7  -9  113.83   14.74   0
  -7  -7   9  147.44   11.67   0
  -5  -7   9  100.92   22.09   0
  -5  -7   9  175.48   10.75   0
   5  -7  -9   92.62   17.81   0
  -5   7   9   88.39   15.35   0
  -3  -7   9  279.44   11.67   0
  -3  -7   9  155.03   23.03   0
   3  -7  -9  164.24   15.18   0
  -3   7   9  148.42   17.60   0
  -1  -7   9  337.88   10.54   0
   1  -7  -9  227.41   14.52   0
  -1   7   9  177.81   17.94   0
   1  -7   9  268.89   10.92   0
   1   7   9  195.20   17.63   0
  -1  -7  -9  171.93   13.44   0
   3  -7   9  323.29   10.92   0
   3   7   9  229.55   17.78   0
  -3  -7  -9  195.31   12.85   0
   5   7   9  104.29   18.64   0
  -5  -7  -9  100.22   12.54   0
   5  -7   9  218.89   10.92   0
  18  -8  -9   46.31   14.04   0
  16  -8  -9  124.00   14.62   0
  14  -8  -9  104.89   15.18   0
  12  -8  -9  130.01   19.15   0
  10  -8  -9  108.09   15.88   0
 -10  -8   9  150.68   20.63   0
 -10  -8   9  185.01   16.87   0
   8  -8  -9  137.45   15.81   0
  -8  -8   9  175.40   13.39   0
  -8  -8   9  134.56   20.28   0
  -6  -8   9   83.37   22.16   0
  -6  -8   9  161.77   12.21   0
   6  -8  -9   92.59   15.97   0
  -4  -8   9   23.13   23.09   0
  -4  -8   9   45.06   10.74   0
   4  -8  -9   46.84   18.57   0
  -4   8   9   33.47   15.34   0
  -2  -8   9  101.05   11.01   0
   2  -8  -9   42.52   14.54   0
  -2   8   9   48.18   17.68   0
  -2  -8   9   79.04   22.69   0
   0  -8   9   31.03    9.98   0
   0  -8   9   26.37   23.47   0
   0   8   9   -6.39   20.19   0
   0  -8  -9   24.48   13.70   0
   2  -8   9    4.71   21.07   0
   2  -8   9   22.75    9.98   0
   2   8   9   12.76   23.74   0
  -2  -8  -9    8.54   13.08   0
  11  -9  -9   -0.53   19.17   0
   9  -9  -9   17.96   19.29   0
  -9  -9   9    5.58   16.27   0
  -9  -9   9   17.31   19.95   0
  -7  -9   9   22.02   13.96   0
   7  -9  -9   32.31   17.49   0
  -7  -9   9   10.59   21.19   0
  -5  -9   9   16.61   12.63   0
  32   0 -10  131.46   12.95   0
  30   0 -10  109.11   11.56   0
  28   0 -10  313.80   11.76   0
  26   0 -10  522.97   12.90   0
  24   0 -10  894.88   13.61   0
  22   0 -10 1317.23   14.28   0
  20   0 -10 1860.38   15.16   0
  18   0 -10 2436.97   18.12   0
  14   0 -10 2751.11   22.82   0
  12   0 -10 3735.08   30.23   0
 -10   0  10 5782.04   38.58   0
  10   0 -10 5738.65   37.08   0
  -8   0  10 3651.93   28.99   0
   8   0 -10 3692.77   31.44   0
   6   0 -10 2346.05   22.78   0
  -6   0  10 2586.91   21.83   0
  -4   0  10 1499.13   15.48   0
   4   0 -10 1423.79   16.29   0
   2   0 -10 1426.95   14.76   0
  -2   0  10 1514.05   14.07   0
   0   0 -10  962.22   13.69   0
   0   0  10 1008.50   12.07   0
   2   0  10 1076.56   12.28   0
  -2   0 -10 1017.73   12.82   0
   4   0  10  319.88    9.28   0
  -4   0 -10  297.23    9.77   0
   6   0  10  196.51    9.41   0
  -6   0 -10  186.66    9.32   0
  -8   0 -10  120.99    9.35   0
   8   0  10  105.06    9.21   0
 -10   0 -10   38.05    9.38   0
  10   0  10   41.95    9.43   0
 -12   0 -10   15.44    9.27   0
  12   0  10   39.76    9.46   0
  31   1 -10   52.17   12.59   0
  31  -1 -10   60.62   12.75   0
  29  -1 -10   49.38   10.23   0
  29   1 -10   50.42   12.99   0
  27  -1 -10   64.20   11.33   0
  27   1 -10   48.41   11.90   0
  25  -1 -10   26.15    8.87   0
  25   1 -10   25.75   11.01   0
  23   1 -10   67.18   11.02   0
  23  -1 -10   75.71   10.37   0
  21  -1 -10   65.61    8.89   0
  21   1 -10   38.61   10.69   0
  19   1 -10  100.41   11.66   0
  17   1 -10   14.70   10.62   0
  15  -1 -10   77.09   11.24   0
  15   1 -10   76.13   11.64   0
  13  -1 -10   50.56   12.39   0
  13   1 -10   60.83   16.64   0
  11  -1 -10   24.74   13.69   0
 -11   1  10   20.69   16.04   0
  11   1 -10   30.30   19.16   0
 -11  -1  10   37.04   19.57   0
  -9   1  10   15.13   13.26   0
  -9  -1  10   14.56   17.24   0
   9  -1 -10   24.27   16.04   0
   9   1 -10    9.08   16.08   0
   7   1 -10  297.18   14.68   0
  -7  -1  10  306.05   13.14   0
  -7   1  10  276.54   14.59   0
   7  -1 -10  268.07   16.16   0
  -5   1  10  621.92   13.70   0
   5   1 -10  618.27   12.77   0
  -5  -1  10  634.24   12.35   0
   5  -1 -10  561.87   14.86   0
   3  -1 -10  654.30   13.69   0
  -3   1  10  741.78   12.85   0
   3   1 -10  759.74   14.01   0
  -3  -1  10  783.01   12.08   0
   1  -1 -10  981.87   13.36   0
  -1   1  10 1052.49   12.94   0
   1   1 -10 1045.61   12.90   0
  -1  -1  10 1132.64   12.23   0
   1  -1  10  778.98   11.07   0
  -1   1 -10  670.44   11.51   0
  -1  -1 -10  661.36   12.04   0
   1   1  10  689.66   11.36   0
  -3   1 -10  621.82   10.83   0
  -3  -1 -10  554.46   11.03   0
   3  -1  10  635.83   10.50   0
   3   1  10  564.26   10.68   0
   5  -1  10  613.06   10.28   0
  -5   1 -10  593.88   10.80   0
   5   1  10  524.45   10.86   0
  -5  -1 -10  519.61   10.92   0
   7  -1  10  656.09   11.55   0
  -7  -1 -10  545.66   10.73   0
  -7   1 -10  670.42   11.01   0
   7   1  10  579.03   10.70   0
   9  -1  10  470.54   10.47   0
  -9   1 -10  476.21   10.90   0
  -9  -1 -10  429.24   11.92   0
   9   1  10  457.86   10.87   0
  11  -1  10  312.43   10.30   0
 -11   1 -10  294.54   10.50   0
 -11  -1 -10  250.79   10.56   0
  11   1  10  261.19   10.73   0
 -13   1 -10  168.89   10.72   0
  13   1  10  151.16   11.27   0
 -13  -1 -10  164.05    9.03   0
  13  -1  10  199.26   10.82   0
  30  -2 -10  141.59   11.00   0
  30   2 -10  115.31   15.96   0
  28   2 -10  118.65   14.33   0
  28  -2 -10  159.35   10.06   0
  26   2 -10  262.52   14.07   0
  26  -2 -10  337.56   10.14   0
  24   2 -10  447.21   15.07   0
  24  -2 -10  560.12   10.65   0
  22   2 -10  589.64   15.12   0
  22  -2 -10  701.29   11.29   0
  20   2 -10  712.81   16.65   0
  18   2 -10 1010.04   19.29   0
  16   2 -10 1573.49   25.36   0
  16  -2 -10 1719.28   15.22   0
  14   2 -10 1207.21   35.71   0
  14   2 -10 1474.94   30.55   0
  14  -2 -10 1501.09   15.55   0
  12  -2 -10 2093.63   19.64   0
  12   2 -10 2301.91   53.13   0
  10  -2 -10 1786.95   22.25   0
 -10   2  10 1820.61   22.64   0
 -10  -2  10 2024.62   40.59   0
  10   2 -10 2083.17   31.51   0
  -8   2  10 2159.00   21.45   0
   8   2 -10 2254.95   24.76   0
   8  -2 -10 1994.78   21.09   0
  -8  -2  10 2299.04   26.04   0
   6   2 -10 1190.06   15.82   0
  -6   2  10 1012.35   18.47   0
   6  -2 -10 1052.19   18.24   0
  -6  -2  10 1307.82   16.43   0
  -4  -2  10 1222.98   13.80   0
   4   2 -10 1102.19   14.54   0
  -4   2  10  996.76   15.24   0
   4  -2 -10  928.73   15.51   0
  -2  -2  10 1205.48   13.39   0
  -2   2  10 1009.49   14.11   0
   2   2 -10 1096.14   13.86   0
   2  -2 -10  964.30   14.28   0
   0  -2  10  908.86   12.06   0
   0  -2 -10  733.38   13.00   0
   0   2  10  765.62   12.70   0
   0   2 -10  838.89   11.61   0
   2  -2  10  322.84    9.40   0
  -2  -2 -10  229.13   10.18   0
   2   2  10  279.44   10.22   0
  -2   2 -10  298.11    9.98   0
  -4   2 -10  279.76    9.39   0
  -4  -2 -10  221.43   10.29   0
   4   2  10  246.24   10.44   0
   4  -2  10  287.29    9.00   0
   6  -2  10  207.71    9.03   0
  -6   2 -10  213.36    9.72   0
   6   2  10  188.05   10.08   0
  -6  -2 -10  144.59    9.73   0
   8  -2  10   61.20    8.65   0
   8   2  10   71.70    9.75   0
  -8  -2 -10   54.09    9.21   0
  -8   2 -10   66.55    9.40   0
  10  -2  10   63.79   10.41   0
 -10  -2 -10   33.15    9.35   0
 -10   2 -10   36.77    9.51   0
  10   2  10   47.59   10.01   0
  12  -2  10   18.25    9.43   0
 -12  -2 -10   21.56    9.68   0
  12   2  10   18.51   10.82   0
 -12   2 -10   25.42    9.94   0
  29   3 -10   13.39   20.60   0
  29  -3 -10   11.30    9.96   0
  27  -3 -10   37.03    9.61   0
  27   3 -10   40.08   17.07   0
  25   3 -10   49.95   16.32   0
  25  -3 -10   72.21    9.38   0
  23   3 -10    0.86   17.85   0
  23  -3 -10   -5.29    9.19   0
  21   3 -10   -1.01   17.05   0
  19   3 -10    5.35   19.70   0
  19  -3 -10   20.11    8.75   0
  17   3 -10    7.92   26.11   0
  17  -3 -10   16.74    9.25   0
  15  -3 -10   -1.39   10.74   0
  13  -3 -10    3.45   10.09   0
  11  -3 -10   23.19   11.87   0
 -11   3  10   14.44   12.51   0
   9  -3 -10  158.40   12.67   0
  -9  -3  10  201.77   21.59   0
  -9   3  10  195.17   12.61   0
  -7  -3  10  102.27   12.65   0
  -7   3  10   90.05   12.41   0
   7  -3 -10   79.42   12.55   0
  -5   3  10   43.65   13.00   0
  -5  -3  10   67.34   10.42   0
   5  -3 -10   56.32   13.54   0
   5   3 -10   64.21    9.35   0
   3   3 -10  190.65   10.47   0
  -3   3  10  143.60   12.52   0
  -3  -3  10  216.84    9.98   0
   3  -3 -10  144.46   12.97   0
   1   3 -10  273.10   10.60   0
   1  -3 -10  218.70   12.11   0
  -1   3  10  205.28   10.18   0
  -1  -3  10  302.40   10.00   0
  -1  -3 -10  321.78   11.27   0
   1  -3  10  387.80   10.35   0
  -1   3 -10  379.05   11.13   0
   1   3  10  317.13   12.31   0
   3  -3  10  256.76    8.62   0
  -3  -3 -10  194.63   10.59   0
   3   3  10  226.12   11.31   0
  -3   3 -10  236.40   10.60   0
  -5   3 -10  195.52    9.63   0
   5  -3  10  177.38    8.51   0
   5   3  10  145.96   10.97   0
  -5  -3 -10  149.81   10.19   0
   7  -3  10  176.16    8.90   0
  -7   3 -10  178.23   11.63   0
   7   3  10  126.91   11.40   0
  -7  -3 -10  124.71   10.21   0
   9  -3  10  143.14    8.92   0
   9   3  10   99.61   11.50   0
  -9   3 -10  144.91    9.90   0
  -9  -3 -10   82.89   10.15   0
 -11  -3 -10   95.23   10.25   0
  11  -3  10  119.27    9.54   0
  11   3  10   87.95   11.96   0
  28  -4 -10   20.75   10.25   0
  28   4 -10   21.46   28.95   0
  26  -4 -10   42.37    9.49   0
  26   4 -10   22.73   29.29   0
  24   4 -10   38.82   27.15   0
  24  -4 -10   40.21    9.13   0
  22   4 -10  124.62   25.98   0
  20   4 -10  101.90   23.83   0
  20  -4 -10  103.73    9.52   0
  18  -4 -10  130.41    9.46   0
  18   4 -10  138.45   35.78   0
  16  -4 -10  252.06   10.43   0
  14  -4 -10  166.24   11.06   0
  12  -4 -10  138.51   12.24   0
  10  -4 -10  236.35   13.90   0
 -10   4  10  203.07   14.11   0
  -8  -4  10  349.92   17.05   0
   8  -4 -10  269.22   13.82   0
  -8   4  10  241.16   13.81   0
  -6   4  10  110.19   13.45   0
  -6  -4  10  164.79   12.17   0
   6  -4 -10  118.09   13.67   0
  -4   4  10  126.75   13.75   0
  -4  -4  10  163.47   10.98   0
   4  -4 -10   83.80   14.75   0
  -2   4  10  171.08   14.37   0
  -2  -4  10  245.52    9.93   0
   2  -4 -10  158.57   12.61   0
   0   4  10   21.39   12.30   0
   0  -4  10   58.49    9.17   0
   0  -4 -10   38.65   11.37   0
  -2  -4 -10   62.05   11.06   0
   2   4  10   63.90   12.96   0
   2  -4  10   76.11    8.02   0
  -4  -4 -10   28.53   10.45   0
   4   4  10   41.99   12.44   0
   4  -4  10   66.94    8.45   0
   6  -4  10   38.71    8.37   0
   6   4  10   38.70   12.30   0
  -6  -4 -10   39.33   10.28   0
   8  -4  10   19.85    8.48   0
   8   4  10    9.15   12.53   0
  -8  -4 -10   30.11   10.03   0
  10  -4  10   11.95    8.85   0
  10   4  10   21.14   12.75   0
 -10  -4 -10    3.47   10.31   0
  27  -5 -10  -11.97    9.66   0
  27   5 -10    4.08   21.32   0
  25  -5 -10    9.95    9.46   0
  25   5 -10   11.24   23.38   0
  25  -5 -10    9.57    9.76   0
  23   5 -10    1.19   21.39   0
  23  -5 -10   10.41    9.84   0
  21   5 -10   15.76   27.72   0
  21  -5 -10   28.63    9.50   0
  19  -5 -10    7.26    9.40   0
  17  -5 -10   -8.55   10.13   0
  15  -5 -10   18.35    9.96   0
  13  -5 -10   19.24   11.62   0
  11  -5 -10   49.16   13.54   0
  -9  -5  10    7.77   30.86   0
   9  -5 -10    7.73   13.12   0
  -9  -5  10    6.44   17.770
  -9   5  10  -17.28   13.69   0
   7  -5 -10    2.31   14.20   0
  -7  -5  10   24.91   11.53   0
  -7   5  10   34.82   13.53   0
  -5   5  10   15.98   13.16   0
   5  -5 -10  -12.81   14.20   0
  -5  -5  10    2.24   10.63   0
  -3   5  10    7.52   13.42   0
   3  -5 -10    0.73   13.56   0
  -3  -5  10    9.48    9.85   0
  -1   5  10   27.55   16.69   0
  -1  -5  10   13.36    8.33   0
   1  -5 -10   36.25   12.10   0
  -1  -5 -10   14.09   11.87   0
   1   5  10   19.03   14.73   0
   1  -5  10   19.12    7.72   0
  -3  -5 -10   31.82   10.74   0
   3   5  10   31.41   13.74   0
   3  -5  10   18.49    9.59   0
   5   5  10   19.06   13.35   0
  -5  -5 -10   -7.06   10.60   0
   5  -5  10   13.96    8.14   0
   7   5  10   -0.92   14.21   0
   7  -5  10   14.73    8.58   0
  -7  -5 -10   11.05   10.67   0
   9  -5  10    6.38    9.03   0
   9   5  10   18.26   14.70   0
  -9  -5 -10   11.27   10.33   0
  26   6 -10   15.51   27.67   0
  26  -6 -10    7.85   10.93   0
  26  -6 -10    9.32   10.12   0
  24   6 -10    4.31   24.15   0
  24  -6 -10   18.22   10.47   0
  24  -6 -10   20.82    9.54   0
  22   6 -10   18.66   24.42   0
  22  -6 -10    7.71   10.25   0
  20  -6 -10   -1.13   10.49   0
  18  -6 -10   11.76   10.67   0
  16  -6 -10   59.10   11.71   0
  14  -6 -10   45.52   12.85   0
  12  -6 -10   27.04   14.40   0
  10  -6 -10   20.61   13.98   0
   8  -6 -10   -0.15   13.95   0
  -8  -6  10   14.11   23.67   0
  -8  -6  10   25.85   13.29   0
  -8   6  10   24.35   14.41   0
   6  -6 -10   27.94   14.37   0
  -6  -6  10   16.79   10.64   0
  -6   6  10   13.58   14.82   0
  -6  -6  10   12.90   20.68   0
   4  -6 -10   17.18   15.21   0
  -4  -6  10   25.91   11.35   0
  -4   6  10    8.16   14.60   0
  -2   6  10   83.42   14.76   0
   2  -6 -10   73.25   13.22   0
  -2  -6  10  103.54    9.38   0
   0   6  10    0.82   14.65   0
   0  -6 -10   15.92   13.90   0
   0  -6  10   11.28    9.38   0
   2   6  10    6.02   15.34   0
  -2  -6 -10    9.98   11.88   0
   2  -6  10   -0.15    9.15   0
   4   6  10   10.59   16.42   0
  -4  -6 -10   15.05   11.09   0
   4  -6  10   15.11    9.58   0
   6   6  10   12.55   19.43   0
  -6  -6 -10    6.33   11.04   0
   6  -6  10    0.28    9.14   0
  23  -7 -10   28.63   11.74   0
  21  -7 -10   19.71   11.69   0
  19  -7 -10    8.72   11.85   0
  17  -7 -10   15.05   12.36   0
  15  -7 -10   15.72   13.22   0
  13  -7 -10   16.83   14.91   0
  11  -7 -10   21.94   14.14   0
  -9  -7  10   47.78   15.09   0
   9  -7 -10   28.31   14.56   0
  -9  -7  10   41.79   21.54   0
  -7  -7  10  109.50   12.56   0
  -7  -7  10   74.64   22.94   0
   7  -7 -10   90.74   14.44   0
  -7   7  10   50.11   14.56   0
   5  -7 -10   24.49   14.27   0
  -5  -7  10   49.03   10.43   0
  -5   7  10   34.20   15.67   0
  -5  -7  10   34.78   19.57   0
   3  -7 -10   29.85   16.85   0
  -3  -7  10   35.49   22.35   0
  -3   7  10   36.63   15.63   0
  -3  -7  10   52.36   10.36   0
  -1   7  10   35.23   15.86   0
   1  -7 -10   51.22   13.44   0
  -1  -7  10   74.88   10.05   0
   1   7  10   29.68   18.92   0
   1  -7  10   87.61    9.93   0
  -1  -7 -10   45.71   12.95   0
   3   7  10    6.35   17.63   0
  -3  -7 -10   19.96   12.24   0
   3  -7  10   67.05    9.95   0
  18  -8 -10  113.31   16.32   0
  16  -8 -10   92.38   15.26   0
  14  -8 -10   75.23   16.26   0
  12  -8 -10   79.07   15.55   0
 -10  -8  10  168.34   23.21   0
  10  -8 -10  106.66   15.37   0
 -10  -8  10  122.32   26.14   0
  -8  -8  10  165.81   15.66   0
   8  -8 -10  103.03   15.62   0
  -8  -8  10   90.80   20.80   0
  -6  -8  10  160.02   12.59   0
  -6  -8  10   92.12   25.53   0
   6  -8 -10  114.19   18.57   0
  -4  -8  10   63.48   23.31   0
  -4  -8  10  125.32   12.63   0
   4  -8 -10   41.47   18.74   0
  -4   8  10   61.14   20.07   0
   2  -8 -10   27.42   16.90   0
  -2  -8  10   77.56   11.49   0
  -2   8  10   38.74   19.09   0
  -2  -8  10   65.60   23.42   0
   0  -8  10   60.81   11.45   0
   0  -8  10   13.77   26.26   0
   0   8  10   54.12   21.83   0
   0  -8 -10   26.75   13.92   0
  31  -1 -11   14.05   10.60   0
  31   1 -11   19.98   14.43   0
  29  -1 -11   31.07    9.91   0
  29   1 -11   16.64   12.65   0
  27   1 -11   15.03   11.63   0
  27  -1 -11    5.75    9.61   0
  25   1 -11   17.88   11.51   0
  25  -1 -11    6.09   10.16   0
  23   1 -11    2.15   10.93   0
  23  -1 -11   10.89    8.97   0
  21   1 -11   16.09   10.70   0
  19   1 -11   17.46   11.56   0
  17   1 -11   34.53   10.82   0
  17  -1 -11   31.65    9.10   0
  15  -1 -11   29.43   10.16   0
  15   1 -11   20.32   13.49   0
  13  -1 -11   24.37   11.92   0
  13   1 -11   30.14   17.14   0
 -11  -1  11   25.26   15.61   0
  11  -1 -11    9.33   12.71   0
  11   1 -11   23.51   18.25   0
 -11   1  11   15.13   12.39   0
   9   1 -11  202.26   14.47   0
  -9   1  11  182.63   13.83   0
  -9  -1  11  208.89   15.55   0
   9  -1 -11  233.84   16.16   0
  -7   1  11   61.74   12.17   0
   7   1 -11   63.96   12.07   0
  -7  -1  11   67.65   10.78   0
   7  -1 -11   56.42   14.25   0
  -5   1  11   24.81   10.76   0
   5   1 -11   32.76   11.08   0
  -5  -1  11   27.06   10.51   0
   5  -1 -11   23.72   11.92   0
   3  -1 -11    9.46   10.78   0
  -3   1  11   26.69    9.58   0
   3   1 -11   20.51    9.71   0
  -3  -1  11   27.25   10.36   0
   1   1 -11   33.90    9.25   0
   1  -1 -11   50.28   10.40   0
  -1   1  11   43.06    9.74   0
  -1  -1  11   31.46    8.53   0
  -1   1 -11   55.77    9.47   0
   1  -1  11   65.37    8.92   0
  -1  -1 -11   44.78    9.80   0
   1   1  11   62.07    9.25   0
  -3   1 -11   58.77    8.84   0
   3   1  11   58.90    8.89   0
  -3  -1 -11   59.89    9.62   0
   3  -1  11   70.87    8.34   0
  -5  -1 -11   33.92    9.14   0
  -5   1 -11   44.70    9.16   0
   5   1  11   33.37    9.01   0
   5  -1  11   37.37    8.71   0
  -7  -1 -11   22.64    9.19   0
   7   1  11    8.83    9.18   0
  -7   1 -11   27.36    9.03   0
   7  -1  11   17.12    8.81   0
  -9   1 -11   18.19    9.42   0
  -9  -1 -11   41.83    9.51   0
   9   1  11   20.31    9.50   0
   9  -1  11   23.07    9.02   0
 -11  -1 -11   10.04    9.75   0
 -11   1 -11    7.19    9.78   0
  11   1  11    4.78    8.23   0
  11  -1  11   33.01    9.55   0
  32  -2 -11   17.06   11.40   0
  32   2 -11   22.30   17.65   0
  30   2 -11   30.81   15.36   0
  30  -2 -11   26.28   10.40   0
  28   2 -11   55.42   14.41   0
  28  -2 -11   70.84    9.98   0
  26  -2 -11  121.76    9.44   0
  26   2 -11  112.62   13.78   0
  24  -2 -11  223.20    9.63   0
  24   2 -11  173.26   13.78   0
  22   2 -11  269.50   13.45   0
  20   2 -11  271.50   14.58   0
  18   2 -11  412.66   17.48   0
  18  -2 -11  469.49   10.64   0
  16   2 -11  735.71   25.56   0
  16   2 -11  735.72   22.06   0
  16  -2 -11  766.30   13.47   0
  14  -2 -11  574.12   13.17   0
  14   2 -11  665.23   34.20   0
  12  -2 -11  607.52   15.82   0
  12   2 -11  728.29   29.31   0
 -12   2  11  593.97   17.81   0
 -10   2  11  681.72   15.47   0
 -10  -2  11  668.60   25.16   0
  10  -2 -11  658.85   14.92   0
  10   2 -11  708.91   20.45   0
   8   2 -11  792.32   17.06   0
   8  -2 -11  745.14   15.88   0
  -8  -2  11  818.46   16.96   0
  -8   2  11  703.62   16.00   0
   6   2 -11  864.49   14.09   0
  -6   2  11  751.39   15.40   0
   6  -2 -11  763.86   16.54   0
  -6  -2  11  979.98   13.77   0
   4  -2 -11  557.28   13.85   0
   4   2 -11  631.22   11.61   0
  -4   2  11  573.07   13.05   0
  -4  -2  11  722.22   11.22   0
   2  -2 -11  567.69   13.28   0
  -2  -2  11  753.28   12.06   0
  -2   2  11  652.92   12.99   0
   2   2 -11  672.67   11.41   0
   0  -2  11  175.65   10.15   0
   0  -2 -11  142.28   10.62   0
   0   2  11  155.15   10.03   0
   0   2 -11  175.40    9.23   0
   2  -2  11  297.25    9.20   0
  -2   2 -11  298.56   10.25   0
  -2  -2 -11  252.10   10.26   0
   2   2  11  270.22   10.14   0
   4  -2  11  202.93    8.86   0
  -4   2 -11  207.70    9.71   0
   4   2  11  160.74   10.23   0
  -4  -2 -11  155.19   10.09   0
   6  -2  11  154.26    8.94   0
  -6   2 -11  129.83    9.63   0
   6   2  11  120.80   10.19   0
  -6  -2 -11  120.53    9.89   0
  -8   2 -11   60.12   11.05   0
  -8  -2 -11   45.05    9.54   0
   8  -2  11   70.50    8.87   0
   8   2  11   58.48   10.31   0
  10  -2  11   49.17    9.38   0
 -10  -2 -11   38.88    9.66   0
 -10   2 -11   19.06   10.16   0
  10   2  11   31.92   10.74   0
  31   3 -11   58.72   20.54   0
  31  -3 -11   79.35   10.94   0
  29   3 -11   62.37   21.35   0
  29  -3 -11   75.28   10.58   0
  27   3 -11   81.88   17.85   0
  27  -3 -11  126.71   11.34   0
  25   3 -11  100.49   17.56   0
  25  -3 -11  133.21    9.46   0
  23   3 -11  141.37   21.50   0
  21   3 -11  111.43   20.72   0
  21  -3 -11  152.56    9.14   0
  19   3 -11  116.36   25.87   0
  19  -3 -11  160.91    9.74   0
  17  -3 -11   60.47    9.40   0
  15  -3 -11  126.86   10.37   0
  13  -3 -11   15.43   10.82   0
  11  -3 -11   -0.52   12.11   0
 -11   3  11   11.98   11.69   0
  -9   3  11   18.59   11.24   0
   9  -3 -11   33.56   12.06   0
  -9  -3  11   16.95   16.02   0
  -7   3  11   10.81   11.79   0
   7   3 -11   26.88   11.34   0
  -7  -3  11   20.80   12.11   0
   7  -3 -11   26.35   12.32   0
  -5  -3  11   45.70    9.37   0
  -5   3  11   25.93   12.94   0
   5  -3 -11   41.14   13.76   0
   5   3 -11   38.34   11.43   0
  -3  -3  11  114.29    9.50   0
  -3   3  11   72.53   11.90   0
   3   3 -11   91.01   10.31   0
   3  -3 -11   79.19   12.23   0
   1   3 -11  107.02   10.32   0
   1  -3 -11   87.02   10.88   0
  -1  -3  11  118.04    9.13   0
  -1   3  11   78.85   11.06   0
  -1   3 -11  156.28   10.82   0
  -1  -3 -11  148.83   10.87   0
   1  -3  11  169.37    8.67   0
   1   3  11  132.11   11.10   0
   3  -3  11  169.09    8.41   0
  -3   3 -11  148.26    9.39   0
   3   3  11  137.11   10.96   0
  -3  -3 -11  136.50   10.20   0
  -5   3 -11  172.05   11.46   0
   5  -3  11  157.42    9.07   0
   5   3  11  131.12   11.12   0
  -5  -3 -11  100.55   10.13   0
   7  -3  11  140.15    9.02   0
   7   3  11  120.75   11.30   0
  -7   3 -11  134.72   10.07   0
  -7  -3 -11  102.55   10.14   0
  -9  -3 -11   61.77   10.50   0
  -9   3 -11   89.11   10.31   0
   9  -3  11  102.47    9.15   0
   9   3  11   63.54   11.96   0
  30   4 -11   50.50   29.99   0
  30  -4 -11   63.26   10.64   0
  28  -4 -11  169.13   10.95   0
  28   4 -11  139.84   34.04   0
  26  -4 -11  232.49   10.72   0
  26   4 -11  195.46   29.83   0
  24   4 -11  241.23   26.85   0
  24  -4 -11  299.05   10.45   0
  22   4 -11  515.56   28.90   0
  22  -4 -11  562.45   11.56   0
  20   4 -11  566.13   33.95   0
  20  -4 -11  617.35   11.67   0
  18  -4 -11  778.04   12.21   0
  16  -4 -11  618.35   13.61   0
  14  -4 -11 1351.65   16.12   0
  12  -4 -11 1086.28   17.76   0
  10  -4 -11 1078.25   16.92   0
 -10   4  11 1036.93   17.22   0
  -8   4  11  968.56   16.68   0
  -8  -4  11 1225.84   19.62   0
   8  -4 -11  960.95   16.46   0
  -6   4  11 1066.62   16.30   0
  -6  -4  11 1336.36   16.37   0
   6  -4 -11  953.27   16.42   0
  -4   4  11  840.89   16.81   0
  -4  -4  11 1082.05   13.38   0
   4  -4 -11  730.06   15.82   0
  -2   4  11  428.45   14.65   0
  -2  -4  11  578.32   11.22   0
   2  -4 -11  447.75   13.63   0
   0  -4 -11  825.72   14.55   0
   0   4  11  738.18   15.43   0
   0  -4  11 1060.07   12.52   0
  -2  -4 -11  488.53   12.80   0
   2   4  11  430.81   14.40   0
   2  -4  11  553.89   10.31   0
   4  -4  11  354.83    9.67   0
   4   4  11  258.08   13.22   0
  -4  -4 -11  249.96   11.78   0
   6  -4  11  162.49    9.18   0
   6   4  11  109.13   13.20   0
  -6  -4 -11  127.21   11.24   0
   8  -4  11  145.57   10.42   0
   8   4  11  124.21   15.24   0
  -8  -4 -11   83.85   11.15   0
  27  -5 -11   74.18   10.62   0
  27   5 -11   40.53   22.03   0
  27  -5 -11   58.86   10.19   0
  25  -5 -11  116.58   10.26   0
  25  -5 -11  130.47   10.22   0
  25   5 -11  113.73   24.13   0
  23   5 -11  222.49   29.15   0
  23  -5 -11  246.65   10.62   0
  21  -5 -11  150.01    9.99   0
  19  -5 -11   70.47    9.80   0
  17  -5 -11   57.69   10.34   0
  15  -5 -11   23.49   10.56   0
  13  -5 -11   17.41   11.92   0
  11  -5 -11   -2.11   12.62   0
 -11   5  11  -14.89   13.25   0
  -9  -5  11   11.74   16.89   0
   9  -5 -11   19.51   12.41   0
  -9  -5  11    9.84   25.08   0
  -9   5  11   -7.41   12.80   0
  -7  -5  11   56.49   11.36   0
   7  -5 -11   74.06   13.17   0
  -7   5  11   34.95   13.01   0
  -5   5  11  152.56   13.53   0
  -5  -5  11  227.95   11.27   0
   5  -5 -11  158.31   14.70   0
  -3   5  11  125.59   14.22   0
  -3  -5  11  210.47    9.98   0
   3  -5 -11  133.41   14.14   0
  -1   5  11  117.94   14.89   0
  -1  -5  11  173.80    9.61   0
   1  -5 -11  121.77   12.62   0
  -1  -5 -11  105.88   11.78   0
   1   5  11   76.74   14.70   0
   1  -5  11  113.01    9.45   0
  -3  -5 -11  153.98   11.87   0
   3   5  11  138.11   14.34   0
   3  -5  11  217.78   10.40   0
   5   5  11  106.79   14.25   0
   5  -5  11  195.82    9.14   0
  -5  -5 -11   99.35   11.63   0
   7   5  11   90.11   14.60   0
   7  -5  11  149.68   10.82   0
  -7  -5 -11   63.77   11.31   0
  26   6 -11   86.73   28.10   0
  26  -6 -11   83.56   10.53   0
  26  -6 -11  100.62   11.30   0
  24  -6 -11  170.56   11.46   0
  22  -6 -11  232.54   11.42   0
  20  -6 -11  431.55   12.61   0
  18  -6 -11  307.76   11.99   0
  16  -6 -11  510.84   13.82   0
  14  -6 -11  490.82   15.21   0
  12  -6 -11  524.11   15.94   0
  10  -6 -11  436.03   14.89   0
  -8  -6  11  427.80   26.27   0
   8  -6 -11  477.42   15.69   0
  -8  -6  11  631.75   16.68   0
  -8   6  11  394.21   16.25   0
   6  -6 -11  497.10   15.99   0
  -6  -6  11  714.47   14.59   0
  -6   6  11  563.92   15.97   0
  -4   6  11  327.18   15.27   0
  -4  -6  11  461.56   12.34   0
   4  -6 -11  290.41   15.96   0
  -2   6  11  336.43   15.64   0
  -2  -6  11  531.86   11.71   0
   2  -6 -11  342.88   14.59   0
   0   6  11  245.04   16.20   0
   0  -6  11  374.25   10.74   0
   0  -6 -11  222.90   13.09   0
  -2  -6 -11  208.50   12.88   0
   2   6  11  192.58   16.56   0
   2  -6  11  323.09   10.71   0
   4   6  11  131.59   19.00   0
  -4  -6 -11  108.85   12.18   0
   4  -6  11  194.05   10.51   0
   6   6  11   98.72   17.31   0
   6  -6  11  104.71    9.85   0
  23  -7 -11   18.29   12.05   0
  21  -7 -11   35.29   12.23   0
  19  -7 -11   46.57   12.43   0
  17  -7 -11    1.88   12.95   0
  15  -7 -11    5.56   14.05   0
  13  -7 -11   18.11   14.32   0
  11  -7 -11   28.31   14.34   0
   9  -7 -11   32.13   14.04   0
  -9  -7  11   25.95   23.43   0
  -9  -7  11   32.54   15.62   0
  -7  -7  11   20.54   21.40   0
   7  -7 -11   18.28   14.36   0
  -7  -7  11   39.01   13.20   0
  -7   7  11   13.31   16.28   0
  -5  -7  11   37.69   20.31   0
   5  -7 -11   53.62   15.22   0
  -5  -7  11   61.53   11.59   0
  -5   7  11   37.37   15.52   0
  -3  -7  11   55.23   10.98   0
   3  -7 -11   38.79   17.17   0
  -3   7  11   43.40   15.68   0
  -1   7  11   14.00   15.39   0
   1  -7 -11   14.48   13.54   0
  -1  -7  11   37.22    9.76   0
   1   7  11   67.64   15.89   0
  -1  -7 -11   55.10   13.26   0
   1  -7  11   79.24   10.14   0
   3   7  11   42.26   16.56   0
  -3  -7 -11   47.70   12.79   0
   3  -7  11   80.65   10.49   0
  18  -8 -11  123.07   17.30   0
  16  -8 -11  114.36   18.11   0
  14  -8 -11  135.61   15.38   0
  12  -8 -11  108.18   14.95   0
  10  -8 -11  124.56   14.91   0
  -8  -8  11  113.73   23.56   0
   8  -8 -11  132.57   15.12   0
  -8  -8  11  161.79   15.93   0
  -6  -8  11   84.83   23.73   0
   6  -8 -11   88.64   16.00   0
  -6  -8  11  112.53   13.98   0
  -6   8  11   56.69   17.47   0
  -4  -8  11  117.86   23.35   0
   4  -8 -11  127.66   19.05   0
  -4  -8  11  178.11   12.26   0
  -4   8  11  121.38   18.47   0
  -2  -8  11   91.21   11.78   0
   2  -8 -11   52.45   17.47   0
  -2  -8  11   52.51   23.72   0
  -2   8  11   54.05   20.42   0
  32   0 -12   20.86   13.38   0
  30   0 -12   74.08   13.01   0
  28   0 -12   91.39   12.03   0
  26   0 -12  312.52   11.17   0
  24   0 -12  585.48   11.51   0
  22   0 -12  796.28   12.54   0
  20   0 -12 1094.08   14.14   0
  18   0 -12 1118.93   14.91   0
  16   0 -12 1248.39   17.42   0
  14   0 -12 1444.73   20.89   0
 -12   0  12224.50   23.82   0
  12   0 -12 2223.16   23.11   0
 -10   0  12 1904.95   22.16   0
  10   0 -12 2080.29   23.89   0
  -8   0  12 1911.33   19.27   0
   8   0 -12 1774.40   20.47   0
  -6   0  12 1867.43   17.08   0
   6   0 -12 1652.58   18.19   0
   4   0 -12 1712.18   16.51   0
  -4   0  12 1896.46   16.49   0
   2   0 -12 1547.24   15.60   0
  -2   0  12 1652.47   14.57   0
   0   0  12 2046.08   14.88   0
   0   0 -12 1929.12   17.18   0
   2   0  12  841.60   11.28   0
  -2   0 -12  750.81   12.12   0
  -4   0 -12  615.63   11.88   0
   4   0  12  694.61   11.28   0
  -6   0 -12  483.70   11.41   0
   6   0  12  502.96   10.89   0
  -8   0 -12  263.74   10.80   0
   8   0  12  282.65   10.29   0
  10   0  12  175.38   10.96   0
 -10   0 -12  126.95   10.84   0
  33   1 -12  126.42   15.97   0
  33  -1 -12  109.23   12.91   0
  31  -1 -12  203.73   13.32   0
  31   1 -12  155.17   13.05   0
  29  -1 -12  264.57   13.01   0
  29   1 -12  240.98   12.59   0
  27  -1 -12  334.51   11.09   0
  27   1 -12  331.57   13.29   0
  25   1 -12  462.06   13.14   0
  25  -1 -12  489.03   11.25   0
  23  -1 -12  565.28   12.82   0
  23   1 -12  588.94   14.73   0
  21   1 -12  531.01   14.44   0
  19   1 -12  526.46   14.13   0
  19   1 -12  536.80   14.59   0
  19  -1 -12  545.42   12.79   0
  17   1 -12  249.69   14.88   0
  17  -1 -12  242.77   12.37   0
  15  -1 -12  163.04   12.19   0
  15   1 -12  162.18   18.13   0
  13  -1 -12  234.23   13.74   0
 -13  -1  12  233.90   17.28   0
  13   1 -12  259.61   18.28   0
 -13   1  12  239.48   13.83   0
 -11   1  12   93.29   12.64   0
 -11  -1  12  102.99   15.23   0
  11  -1 -12  117.37   14.97   0
  11   1 -12  116.34   16.95   0
   9   1 -12    2.67   12.50   0
  -9   1  12    8.89   15.16   0
  -9  -1  12   14.29   13.02   0
   9  -1 -12   -2.07   13.11   0
  -7   1  12   39.12   11.18   0
   7   1 -12   34.46   12.29   0
  -7  -1  12   35.86   10.79   0
   7  -1 -12   45.31   13.16   0
   5  -1 -12    6.01   11.36   0
  -5   1  12   -8.09    9.93   0
   5   1 -12   11.15   11.55   0
  -5  -1  12    3.10    9.15   0
  -3   1  12    7.88    9.72   0
  -3  -1  12   12.00    8.63   0
   3   1 -12    5.12    9.60   0
   3  -1 -12   -4.40   11.22   0
   1   1 -12   69.10   11.13   0
  -1  -1  12   65.68    9.04   0
   1  -1 -12   48.80   11.98   0
  -1   1  12   65.12    9.61   0
   1  -1  12   66.48    8.48   0
  -1   1 -12   66.40    9.14   0
  -1  -1 -12   43.29    9.76   0
   1   1  12   48.25    9.04   0
  -3   1 -12  108.03   11.05   0
   3   1  12  104.33    9.48   0
  -3  -1 -12   89.67    9.83   0
   3  -1  12  110.02    8.82   0
  -5  -1 -12  124.68    9.93   0
  -5   1 -12  124.40    9.89   0
   5   1  12  130.46    9.46   0
   5  -1  12  137.85    9.28   0
   7  -1  12  153.33    9.59   0
  -7  -1 -12  129.28   10.01   0
   7   1  12  139.40    9.88   0
  -7   1 -12  146.75   10.38   0
  -9   1 -12   86.80   10.30   0
  -9  -1 -12   69.19   10.21   0
   9   1  12   83.90   10.29   0
   9  -1  12  110.16    9.85   0
  32   2 -12   37.56   16.95   0
  32  -2 -12   36.10   10.87   0
  30   2 -12   12.77   15.87   0
  30  -2 -12   49.75   11.87   0
  28  -2 -12  143.07   10.52   0
  28   2 -12  109.58   15.04   0
  26   2 -12  245.54   15.01   0
  26  -2 -12  314.64   11.72   0
  24  -2 -12  366.69   10.61   0
  24   2 -12  319.14   16.34   0
  22  -2 -12  441.55   10.49   0
  22   2 -12  396.08   15.58   0
  20   2 -12  480.70   16.62   0
  20  -2 -12  507.78   11.12   0
  18   2 -12 1056.40   23.30   0
  18   2 -12 1022.21   22.17   0
  18  -2 -12 1066.24   13.53   0
  16  -2 -12 1243.86   14.89   0
  16   2 -12 1301.25   27.02   0
  16   2 -12 1232.75   32.92   0
  14  -2 -12 1105.24   16.69   0
  14   2 -12 1215.22   37.65   0
 -12  -2  12 1128.99   29.71   0
  12  -2 -12 1079.27   17.84   0
  12   2 -12  971.76   25.40   0
 -12   2  12 1112.20   16.90   0
 -10   2  12 1346.67   18.40   0
  10  -2 -12 1321.59   17.15   0
 -10  -2  12 1359.48   23.01   0
  10   2 -12 1357.84   22.08   0
  -8   2  12 1048.25   17.05   0
   8  -2 -12 1109.12   16.70   0
  -8  -2  12 1292.27   17.58   0
   8   2 -12 1191.97   16.97   0
   6   2 -12 1224.43   16.16   0
  -6   2  12 1110.65   16.01   0
   6  -2 -12 1071.81   17.32   0
  -6  -2  12 1384.70   15.43   0
   4   2 -12 1244.14   14.25   0
  -4   2  12 1178.15   15.23   0
  -4  -2  12 1404.55   14.42   0
   4  -2 -12 1107.41   15.95   0
   2  -2 -12 1280.73   15.19   0
  -2   2  12 1403.75   14.86   0
   2   2 -12 1418.90   13.91   0
  -2  -2  12 1614.03   13.22   0
   0  -2  12  571.20   11.30   0
   0  -2 -12  478.19   11.71   0
   0   2  12  521.91   11.50   0
   0   2 -12  502.31   11.08   0
   2  -2  12  814.69   10.85   0
  -2   2 -12  769.85   11.64   0
  -2  -2 -12  639.64   12.30   0
   2   2  12  665.84   11.91   0
   4  -2  12  543.08   11.29   0
  -4   2 -12  528.61   12.10   0
   4   2  12  474.10   11.31   0
  -4  -2 -12  417.59   11.64   0
   6  -2  12  349.47   10.06   0
  -6   2 -12  316.84   10.93   0
   6   2  12  324.27   11.21   0
  -6  -2 -12  274.24   10.85   0
   8  -2  12  199.07    9.70   0
  -8   2 -12  160.41   10.86   0
  -8  -2 -12  158.12   10.66   0
   8   2  12  156.12   11.00   0
 -10  -2 -12   61.97   10.89   0
  10   2  12   80.34   11.61   0
 -10   2 -12   77.79   10.97   0
  10  -2  12  101.05    9.95   0
  31   3 -12   54.84   24.05   0
  31  -3 -12   83.54   12.84   0
  29  -3 -12   89.00   10.45   0
  29   3 -12   86.56   19.95   0
  27  -3 -12  244.62   10.58   0
  27   3 -12  206.48   22.00   0
  25  -3 -12  174.65   10.06   0
  25   3 -12  127.31   22.40   0
  23   3 -12  205.38   23.17   0
  23  -3 -12  277.82    9.97   0
  21   3 -12  250.38   26.73   0
  21  -3 -12  332.07   10.44   0
  19   3 -12  260.03   28.37   0
  19  -3 -12  270.48   10.47   0
  19   3 -12  221.96   42.92   0
  17  -3 -12  140.61   10.63   0
  15  -3 -12  124.31   11.28   0
  13  -3 -12   91.91   12.75   0
 -13   3  12   99.03   12.37   0
 -11  -3  12   25.08   26.27   0
  11  -3 -12   30.53   11.91   0
 -11   3  12   30.78   11.56   0
  -9   3  12   -1.51   11.34   0
   9   3 -12    8.32   13.84   0
   9  -3 -12   -6.40   11.95   0
  -9  -3  12    9.15   13.25   0
  -7   3  12   -2.77   12.35   0
   7  -3 -12   12.17   12.53   0
   7   3 -12    8.03   11.78   0
  -7  -3  12    6.00   11.02   0
  -5   3  12    3.84   12.21   0
  -5  -3  12   12.05    9.53   0
   5   3 -12    9.16   10.53   0
   5  -3 -12    9.83   12.97   0
  -3  -3  12   19.72    9.16   0
  -3   3  12    9.33   11.27   0
   3  -3 -12    9.98   11.75   0
   3   3 -12   12.80   10.30   0
   1  -3 -12   35.24   10.67   0
  -1  -3  12   34.82    9.28   0
  -1   3  12   28.24   10.73   0
   1   3 -12   35.60   10.45   0
  -1   3 -12   33.54    9.21   0
   1  -3  12   40.70    8.46   0
  -1  -3 -12   33.72   10.33   0
   1   3  12   50.98   10.83   0
   3  -3  12   26.25    8.10   0
  -3   3 -12   43.02   10.99   0
  -3  -3 -12   33.76   10.07   0
   3   3  12    5.86   10.64   0
   5  -3  12   30.49    8.42   0
   5   3  12   20.75   11.02   0
  -5  -3 -12   34.17   10.22   0
  -5   3 -12   40.73    9.88   0
   7  -3  12   48.85    8.79   0
   7   3  12   53.34   11.62   0
  -7   3 -12   32.60   10.07   0
  -7  -3 -12   42.60   10.36   0
  -9  -3 -12   22.73   10.59   0
   9  -3  12   31.86    9.14   0
   9   3  12    9.77   12.19   0
  -9   3 -12   27.06   10.28   0
  30  -4 -12   28.90   12.35   0
  30   4 -12   21.38   29.21   0
  28   4 -12   20.83   25.92   0
  28  -4 -12   17.62   10.22   0
  26  -4 -12   42.70    9.52   0
  26   4 -12   38.90   26.86   0
  26  -4 -12   21.91    9.92   0
  24   4 -12   55.86   26.07   0
  24  -4 -12   44.53    9.85   0
  22   4 -12   30.75   26.41   0
  22  -4 -12   25.20    9.74   0
  20  -4 -12   56.66    9.68   0
  18  -4 -12  184.90   10.59   0
  16  -4 -12  178.15   11.27   0
  14  -4 -12  106.27   12.41   0
  12  -4 -12  118.19   12.67   0
 -12   4  12  125.42   12.76   0
  10  -4 -12   70.92   12.13   0
 -10  -4  12   67.95   18.38   0
 -10   4  12   66.53   12.13   0
  -8   4  12   88.95   12.40   0
   8  -4 -12   93.47   12.47   0
  -8  -4  12  104.61   12.03   0
  -6   4  12  121.16   12.38   0
  -6  -4  12  125.36   10.68   0
   6  -4 -12   87.00   12.95   0
  -4   4  12  242.12   13.72   0
  -4  -4  12  298.92   11.56   0
   4  -4 -12  208.58   13.97   0
  -2   4  12   44.15   12.90   0
  -2  -4  12   75.44    9.04   0
   2  -4 -12   45.37   12.40   0
   0  -4 -12   82.38   11.10   0
   0  -4  12   91.72    8.71   0
   0   4  12   48.57   12.56   0
   2  -4  12   55.63    9.77   0
  -2  -4 -12   51.87   11.16   0
   2   4  12   53.14   12.28   0
   4  -4  12   74.38    8.78   0
   4   4  12   58.43   12.50   0
  -4  -4 -12   56.46   10.77   0
   6  -4  12   47.47    8.65   0
   6   4  12   56.20   12.66   0
  -6  -4 -12   21.24   11.21   0
   8  -4  12   13.87    9.24   0
   8   4  12   26.92   13.83   0
  -8  -4 -12   16.69   11.22   0
  29   5 -12   14.07   23.44   0
  29  -5 -12   11.42   10.89   0
  29  -5 -12    4.53   10.79   0
  27   5 -12    6.80   23.02   0
  27  -5 -12   13.26   10.26   0
  27  -5 -12   24.24   10.15   0
  25   5 -12   26.86   29.05   0
  25  -5 -12   33.39   10.12   0
  23  -5 -12   11.60    9.86   0
  21  -5 -12   11.06    9.72   0
  19  -5 -12    3.88   10.06   0
  17  -5 -12    2.48   10.76   0
  15  -5 -12   -3.19   11.77   0
  13  -5 -12   16.79   12.47   0
  11  -5 -12    5.41    9.71   0
 -11   5  12   -9.29   12.29   0
  -9  -5  12   26.15   14.57   0
   9  -5 -12   44.04   14.24   0
  -9   5  12   23.38   12.25   0
  -7   5  12   42.86   12.60   0
  -7  -5  12   57.80   11.39   0
   7  -5 -12   40.12   12.58   0
  -5   5  12    5.19   12.51   0
  -5  -5  12   13.78   10.64   0
   5  -5 -12    8.96   13.63   0
  -3   5  12    8.07   13.43   0
   3  -5 -12   -3.07   15.25   0
  -3  -5  12    8.49   10.15   0
  -1   5  12   11.17   13.99   0
  -1  -5  12   -4.62    9.11   0
   1  -5 -12   -2.83   11.94   0
  -1  -5 -12   -1.06   11.78   0
   1   5  12   16.60   13.91   0
   1  -5  12    8.74    7.72   0
   3   5  12    3.32   13.69   0
   3  -5  12    6.07    8.27   0
  -3  -5 -12   21.22   11.25   0
   5  -5  12    7.17    8.87   0
   5   5  12    1.06   14.45   0
  -5  -5 -12   -0.07   11.48   0
  26  -6 -12    7.75   10.34   0
  26  -6 -12    0.34   10.76   0
  24  -6 -12    1.61   10.69   0
  22  -6 -12   -5.53   10.55   0
  20  -6 -12   -2.39   10.70   0
  18  -6 -12   26.80   11.50   0
  16  -6 -12   26.01   12.08   0
  14  -6 -12   27.85   13.63   0
  12  -6 -12   18.55   12.66   0
  10  -6 -12   48.70   13.39   0
 -10   6  12   34.73   14.12   0
  -8  -6  12   23.78   12.13   0
   8  -6 -12   24.50   13.57   0
  -8   6  12   12.02   13.76   0
  -8  -6  12   13.76   22.02   0
  -6  -6  12   23.98   11.34   0
   6  -6 -12    9.48   13.67   0
  -6   6  12   26.86   13.67   0
  -4   6  12   25.28   13.90   0
  -4  -6  12   43.26   10.44   0
   4  -6 -12   42.40   14.43   0
  -2   6  12   17.61   13.86   0
  -2  -6  12   24.00   10.42   0
   2  -6 -12   30.43   13.28   0
   0  -6 -12   14.21   12.88   0
   0   6  12   -1.01   15.06   0
   0  -6  12    6.78    9.38   0
   2   6  12   39.61   15.83   0
  -2  -6 -12    2.33   12.23   0
   2  -6  12   17.13   10.04   0
   4   6  12   22.17   16.13   0
  -4  -6 -12   24.89   11.96   0
   4  -6  12   23.85    8.89   0
  23  -7 -12    4.38   11.93   0
  21  -7 -12   40.91   12.62   0
  19  -7 -12   18.58   12.94   0
  17  -7 -12   14.41   13.47   0
  15  -7 -12   24.33   14.82   0
  13  -7 -12   -3.93   14.03   0
  11  -7 -12   12.05   15.77   0
  -9  -7  12    5.70   26.00   0
  -9  -7  12    4.55   16.73   0
   9  -7 -12    7.72   13.63   0
  -9   7  12    3.74   15.86   0
  -7  -7  12   12.03   20.69   0
  -7  -7  12    2.48   12.41   0
   7  -7 -12   24.79   13.52   0
  -7   7  12  -12.49   15.26   0
  -5  -7  12    6.14   10.68   0
   5  -7 -12   17.35   17.96   0
  -5  -7  12    7.42   21.76   0
  -5   7  12   -0.24   14.81   0
  -3  -7  12   13.17   10.75   0
   3  -7 -12   15.34   16.87   0
  -3   7  12   21.23   14.60   0
  -1   7  12   -4.34   15.01   0
  -1  -7  12    7.01   11.11   0
   1  -7 -12    9.28   13.78   0
   1   7  12   31.08   15.70   0
  -1  -7 -12   18.64   13.16   0
   1  -7  12   20.42   10.02   0
  18  -8 -12   51.67   17.71   0
  16  -8 -12   66.64   16.41   0
  14  -8 -12   39.14   14.91   0
  12  -8 -12  102.69   14.66   0
  10  -8 -12   79.39   14.97   0
  -8  -8  12   89.95   26.88   0
  -8  -8  12  117.69   16.43   0
   8  -8 -12   75.16   15.04   0
  -6  -8  12   68.28   23.24   0
  -6   8  12   31.47   20.03   0
  -6  -8  12  104.55   13.21   0
   6  -8 -12   78.12   15.96   0
  -4  -8  12  118.01   13.18   0
   4  -8 -12   76.14   15.99   0
  -4   8  12   84.20   19.43   0
  -4  -8  12  103.34   21.68   0
  33  -1 -13    5.19   11.74   0
  33   1 -13    1.88   15.22   0
  31  -1 -13   44.95   12.73   0
  31   1 -13   34.10   14.54   0
  29   1 -13   33.27   11.19   0
  29  -1 -13   34.78   10.69   0
  27   1 -13   67.97   12.25   0
  27  -1 -13   87.61   11.52   0
  25  -1 -13   10.78    9.55   0
  25   1 -13    9.18   10.76   0
  23   1 -13   38.78   11.13   0
  23  -1 -13   34.91    8.92   0
  21   1 -13   32.28   12.27   0
  21   1 -13   20.54   12.02   0
  21  -1 -13   20.93    9.97   0
  19   1 -13   48.56   12.66   0
  19  -1 -13   53.05   10.94   0
  17  -1 -13   34.07   10.70   0
  17   1 -13   47.43   15.52   0
  15  -1 -13   84.61   12.87   0
  15   1 -13  105.83   15.59   0
 -13  -1  13   18.58   14.72   0
  13  -1 -13    5.62   13.91   0
 -13   1  13   13.96   11.73   0
  13   1 -13    9.35   16.29   0
 -11  -1  13   29.47   15.16   0
 -11   1  13   30.59   13.69   0
  11  -1 -13    8.52   12.45   0
  11   1 -13   10.71   14.03   0
   9   1 -13   57.42   12.60   0
  -9   1  13   45.53   14.28   0
  -9  -1  13   48.82   11.51   0
   9  -1 -13   46.79   12.71   0
  -7   1  13   25.48   12.25   0
   7   1 -13   20.44   10.71   0
  -7  -1  13   15.22   10.57   0
   7  -1 -13   16.12   12.37   0
   5  -1 -13   14.56   11.57   0
  -5   1  13    8.75   10.44   0
   5   1 -13    7.87   10.23   0
  -5  -1  13    9.04    8.89   0
   3  -1 -13   17.87   10.90   0
  -3   1  13   11.80    9.99   0
  -3  -1  13    8.16    8.69   0
   3   1 -13   -7.57    9.98   0
   1   1 -13   -0.40   11.16   0
   1  -1 -13    4.84   10.22   0
  -1   1  13   10.65    9.36   0
  -1  -1  13    4.53    8.43   0
  -1   1 -13   19.71   10.74   0
   1   1  13   -0.03    9.27   0
  -1  -1 -13   -0.73    9.86   0
   1  -1  13   15.78    9.53   0
  -3  -1 -13   10.11    9.80   0
  -3   1 -13   14.30    9.58   0
   3   1  13   -1.13    9.21   0
   3  -1  13    7.93    8.60   0
  -5  -1 -13   14.82    9.71   0
   5   1  13   14.96    9.44   0
  -5   1 -13    8.72   10.06   0
   5  -1  13   16.40   10.36   0
  -7   1 -13    7.36   10.39   0
  -7  -1 -13   13.06   10.13   0
   7   1  13   20.46    9.89   0
   7  -1  13   11.12    9.41   0
  -9   1 -13   15.03   10.45   0
  -9  -1 -13    3.89   10.33   0
   9   1  13    9.24   10.57   0
   9  -1  13    9.01    9.98   0
  32   2 -13   -8.69   17.59   0
  32  -2 -13   14.01   10.93   0
  30  -2 -13   15.46   10.28   0
  30   2 -13    2.15   16.33   0
  28   2 -13   22.89   16.18   0
  28  -2 -13   27.90   10.78   0
  26   2 -13   14.09   13.83   0
  26  -2 -13   19.08   10.63   0
  24  -2 -13   32.10    8.79   0
  24   2 -13   20.77   16.07   0
  22   2 -13   86.26   15.10   0
  22   2 -13  102.06   12.39   0
  22  -2 -13   93.25    9.36   0
  20   2 -13  134.36   15.41   0
  20  -2 -13  139.19    9.90   0
  20   2 -13  124.85   15.67   0
  18  -2 -13  489.22   11.94   0
  18   2 -13  442.84   24.40   0
  18   2 -13  490.14   19.85   0
  16  -2 -13  137.96   11.42   0
  16   2 -13  133.66   23.38   0
  14   2 -13  215.16   26.37   0
  14  -2 -13  206.29   14.40   0
 -14   2  13  213.21   12.44   0
 -12   2  13  100.14   12.03   0
 -12  -2  13  103.86   18.28   0
  12  -2 -13  102.49   12.02   0
  12   2 -13  106.21   16.86   0
 -10   2  13  375.00   12.89   0
 -10  -2  13  403.11   16.06   0
  10  -2 -13  368.10   12.95   0
  10   2 -13  366.84   15.80   0
  -8   2  13  415.46   14.23   0
  -8  -2  13  561.22   13.57   0
   8  -2 -13  453.05   14.25   0
   8   2 -13  507.14   13.99   0
   6   2 -13  654.54   14.11   0
  -6   2  13  687.21   14.46   0
  -6  -2  13  799.11   12.26   0
   6  -2 -13  619.12   15.75 0
   4  -2 -13  460.55   13.55   0
   4   2 -13  527.15   11.25   0
  -4   2  13  519.89   13.00   0
  -4  -2  13  601.32   11.43   0
   2  -2 -13  163.72   11.48   0
  -2   2  13  200.23   10.60   0
   2   2 -13  201.00   11.87   0
  -2  -2  13  236.62   10.49   0
   0  -2 -13  192.80   11.22   0
   0   2  13  213.73   10.81   0
   0   2 -13  216.81   10.07   0
   0  -2  13  236.08    9.12   0
   2   2  13  278.92   10.65   0
  -2  -2 -13  274.57   11.02   0
  -2   2 -13  323.46   10.61   0
   2  -2  13  317.85    9.55   0
  -4   2 -13  180.33   10.37   0
   4   2  13  193.04   10.76   0
  -4  -2 -13  150.87   10.79   0
   4  -2  13  216.34    9.14   0
   6   2  13  118.32   10.93   0
  -6   2 -13  105.60   10.82   0
  -6  -2 -13   92.20   10.67   0
   6  -2  13  134.87    9.43   0
  -8   2 -13   75.78   10.93   0
  -8  -2 -13   35.07   10.67   0
   8   2  13   84.52   11.08   0
   8  -2  13   83.14    9.75   0
  31  -3 -13  106.43   11.21   0
  31   3 -13  103.61   24.64   0
  29  -3 -13  208.14   11.22   0
  29   3 -13  167.70   21.36   0
  27   3 -13  164.33   22.52   0
  27  -3 -13  190.96   10.24   0
  27  -3 -13  229.47   10.30   0
  25   3 -13  195.78   22.13   0
  25  -3 -13  279.04   10.41   0
  23   3 -13  177.37   25.49   0
  23  -3 -13  259.39   10.60   0
  21   3 -13  255.76   24.19   0
  21   3 -13  206.03   34.05   0
  21  -3 -13  243.71   10.29   0
  19  -3 -13  246.43   10.92   0
  17  -3 -13  408.50   12.62   0
  15  -3 -13  243.28   13.20   0
  13  -3 -13  136.23   12.72   0
 -13   3  13  154.41   12.28   0
 -11   3  13  174.79   12.47   0
  11   3 -13  168.80   16.25   0
 -11  -3  13  167.53   19.19   0
  11  -3 -13  138.15   12.63   0
  -9   3  13   91.38   11.75   0
   9   3 -13   92.00   14.04   0
   9  -3 -13   88.91   12.28   0
  -9  -3  13   90.73   12.61   0
  -7   3  13  163.97   12.72   0
   7   3 -13  148.01   13.32   0
   7  -3 -13  140.50   12.57   0
  -7  -3  13  160.93   11.09   0
  -5   3  13   53.38   11.69   0
   5   3 -13   57.39   11.29   0
   5  -3 -13   59.13   14.30   0
  -5  -3  13   55.67    9.97   0
   3  -3 -13   40.21   11.40   0
  -3  -3  13   34.38    9.46   0
  -3   3  13   32.67   10.86   0
   3   3 -13   25.08   10.98   0
   1  -3 -13    5.52   10.78   0
  -1   3  13   -7.76   10.53   0
  -1  -3  13   -4.88    8.19   0
   1   3 -13    4.12    9.73   0
  -1   3 -13   11.00   11.30   0
   1  -3  13   -6.46    8.31   0
  -1  -3 -13    6.40   10.43   0
   1   3  13  -11.34   10.61   0
   3  -3  13   24.02    8.80   0
  -3   3 -13   16.37   11.59   0
   3   3  13   16.15   11.12   0
  -3  -3 -13   10.59   10.41   0
  -5   3 -13   21.92   11.97   0
   5  -3  13   34.80    8.58   0
   5   3  13    7.88   11.61   0
  -5  -3 -13   -4.08   10.79   0
   7  -3  13    9.19    8.96   0
  -7  -3 -13   -7.12   10.79   0
   7   3  13   14.04   11.73   0
  -7   3 -13   25.64   12.48   0
  30  -4 -13   34.14   11.28   0
  30   4 -13   17.40   25.74   0
  30  -4 -13   32.23   10.33   0
  28  -4 -13   44.43   10.16   0
  28   4 -13   28.32   24.30   0
  28  -4 -13   33.83   10.15   0
  26   4 -13   76.35   25.68   0
  26  -4 -13   82.64   10.07   0
  24   4 -13  188.51   29.24   0
  24  -4 -13  181.95   10.30   0
  22  -4 -13  263.52   10.70   0
  20  -4 -13  428.61   11.81   0
  18  -4 -13  202.21   11.22   0
  16  -4 -13  601.82   14.37   0
  14  -4 -13  707.44   14.92   0
  12  -4 -13  833.74   14.54   0
 -12   4  13  791.18   13.25   0
 -10   4  13  744.73   14.49   0
  10  -4 -13  838.76   14.50   0
 -10  -4  13  930.58   21.47   0
  -8   4  13  914.98   15.13   0
  -8  -4  13 1193.56   17.45   0
   8  -4 -13  961.46   15.18   0
  -6  -4  13 1068.66   15.12   0
  -6   4  13  852.38   14.91   0
   6  -4 -13  794.13   15.68   0
  -4  -4  13  669.02   11.79   0
   4  -4 -13  442.84   14.49   0
  -4   4  13  477.89   14.80   0
   2  -4 -13  676.18   14.14   0
  -2  -4  13  950.00   12.53   0
  -2   4  13  656.88   14.83   0
   0  -4  13  789.95   12.38   0
   0  -4 -13  558.62   13.48   0
   0   4  13  547.50   14.18   0
   2  -4  13  485.47   10.05   0
   2   4  13  353.84   13.64   0
  -2  -4 -13  356.69   12.82   0
   4  -4  13  316.07   11.22   0
   4   4  13  232.50   13.78   0
  -4  -4 -13  187.88   12.30   0
   6  -4  13  238.06   11.50   0
   6   4  13  154.39   14.02   0
  -6  -4 -13  132.60   12.42   0
  29  -5 -13  139.86   11.85   0
  29   5 -13  107.44   25.43   0
  29  -5 -13  140.01   11.48   0
  27  -5 -13  192.34   11.61   0
  27  -5 -13  217.34   11.25   0
  27   5 -13  172.45   31.91   0
  25  -5 -13  399.74   11.93   0
  23  -5 -13  379.71   11.42   0
  21  -5 -13  311.09   11.09   0
  19  -5 -13  399.96   11.92   0
  17  -5 -13  287.99   12.61   0
  15  -5 -13  336.64   13.88   0
  13  -5 -13  222.25   13.09   0
 -13   5  13  226.52   13.34   0
  11  -5 -13  231.34   13.07   0
 -11   5  13  240.98   13.12   0
   9  -5 -13  242.04   13.31   0
  -9   5  13  250.36   13.19   0
  -9  -5  13  284.33   15.22   0
  -7   5  13   78.54   12.36   0
  -7  -5  13   89.72   11.96   0
   7  -5 -13   79.43   13.09   0
  -5   5  13   54.25   12.64   0
  -5  -5  13   60.53   10.76   0
   5  -5 -13   47.85   13.62   0
  -3   5  13    2.62   13.20   0
  -3  -5  13    9.19   10.50   0
   3  -5 -13   17.88   12.92   0
   1  -5 -13   -1.49   12.36   0
  -1   5  13   21.14   14.15   0
  -1  -5  13   14.19    9.22   0
  -1  -5 -13   15.35   12.41   0
   1   5  13   17.59   14.81   0
   1  -5  13    9.38    9.60   0
   3  -5  13   17.85   10.11   0
   3   5  13   17.68   14.21   0
  -3  -5 -13   20.78   11.96   0
   5  -5  13   21.01   10.50   0
   5   5  13    6.90   14.54   0
  -5  -5 -13   25.24   11.88   0
  26  -6 -13   34.93   11.06   0
  24  -6 -13   51.48   11.23   0
  22  -6 -13  160.65   11.53   0
  20  -6 -13   94.36   11.68   0
  18  -6 -13  188.76   12.65   0
  16  -6 -13  243.73   14.06   0
  14  -6 -13  377.26   14.04   0
  12  -6 -13  342.57   13.98   0
 -10  -6  13  392.27   34.61   0
  10  -6 -13  440.03   14.81   0
 -10  -6  13  525.10   24.70   0
 -10   6  13  387.65   14.55   0
  -8  -6  13  546.92   16.77   0
   8  -6 -13  449.32   14.80   0
  -8   6  13  433.80   14.73   0
  -6   6  13  367.97   15.13   0
  -6  -6  13  493.72   13.99   0
   6  -6 -13  348.33   15.24   0
  -4   6  13  376.98   15.26   0
  -4  -6  13  552.78   13.10   0
   4  -6 -13  343.35   18.37   0
  -2   6  13  282.34   15.12   0
  -2  -6  13  407.72   11.42   0
   2  -6 -13  263.39   14.41   0
   0  -6 -13  269.79   14.30   0
   0   6  13  254.57   16.30   0
   0  -6  13  374.89   11.43   0
   2   6  13  168.51   17.22   0
  -2  -6 -13  121.35   13.41   0
   2  -6  13  222.82   11.09   0
  23  -7 -13   96.50   12.91   0
  21  -7 -13  121.88   12.89   0
  19  -7 -13   74.14   13.23   0
  17  -7 -13  141.25   14.54   0
  15  -7 -13  102.49   14.10   0
  13  -7 -13   87.96   13.74   0
  11  -7 -13   82.97   13.55   0
  -9  -7  13   88.36   17.96   0
  -9  -7  13   57.67   27.33   0
   9  -7 -13   81.22   13.55   0
  -9   7  13   76.45   14.58   0
  -7  -7  13   37.48   13.00   0
   7  -7 -13   40.03   13.83   0
  -7   7  13   13.70   14.39   0
  -7  -7  13   26.91   21.83   0
  -5  -7  13   11.21   10.79   0
   5  -7 -13   12.41   17.81   0
  -5   7  13   12.75   14.33   0
  -3   7  13    0.43   14.71   0
  -3  -7  13    5.21   11.15   0
   3  -7 -13   13.83   17.18   0
   1  -7 -13  -17.23   13.96   0
  -1   7  13   -4.05   14.34   0
  -1  -7  13    4.26   10.25   0
  18  -8 -13   67.02   15.45   0
  16  -8 -13   62.76   14.77   0
  14  -8 -13   78.99   14.39   0
  12  -8 -13  116.73   14.73   0
  10  -8 -13   96.81   14.58   0
  -8  -8  13  101.92   30.29   0
  -8  -8  13  143.49   18.11   0
   8  -8 -13  100.13   15.23   0
  -8   8  13  105.84   16.98   0
  -6  -8  13  136.23   24.23   0
  -6  -8  13  192.00   15.48   0
   6  -8 -13  106.74   18.57   0
  -6   8  13  135.21   17.15   0
  34   0 -14    6.22   15.00   0
  32   0 -14   21.53   11.65   0
  30   0 -14    8.24   10.67   0
  28   0 -14   11.29   11.66   0
  26   0 -14   31.52    9.81   0
  24   0 -14   52.56   10.95   0
  24   0 -14   49.97    9.07   0
  22   0 -14  138.84   10.87   0
  20   0 -14  230.19   12.19   0
  18   0 -14  286.24   14.14   0
  16   0 -14  601.81   16.00   0
  14   0 -14  726.51   15.58   0
 -14   0  14  687.40   15.87   0
 -12   0  14  908.79   17.22   0
  12   0 -14  961.43   17.36   0
 -10   0  14  957.56   17.53   0
  10   0 -14  957.78   19.70   0
   8   0 -14  796.79   15.85   0
  -8   0  14  879.85   14.28   0
   6   0 -14  945.52   15.17   0
  -6   0  14 1022.48   14.71   0
   4   0 -14  803.19   14.00   0
  -4   0  14  929.24   12.63   0
  -2   0  14 1668.68   15.23   0
   2   0 -14 1535.16   15.58   0
   0   0  14  551.78   11.14   0
   0   0 -14  498.91   13.76   0
  -2   0 -14  421.28   12.21   0
   2   0  14  548.15   11.05   0
  -4   0 -14  399.96   11.96   0
   4   0  14  452.49   11.08   0
  -6   0 -14  256.36   12.22   0
   6   0  14  348.00   11.24   0
  33  -1 -14  176.82   14.76   0
  33   1 -14  172.93   16.45   0
  31  -1 -14  274.76   12.86   0
  31   1 -14  262.30   16.08   0
  29   1 -14  449.64   15.60   0
  29  -1 -14  498.39   13.87   0
  27   1 -14  643.35   15.13   0
  27  -1 -14  719.51   14.52   0
  25  -1 -14  582.92   13.81   0
  25  -1 -14  625.27   12.61   0
  25   1 -14  574.34   14.74   0
  23   1 -14  551.78   15.11   0
  23   1 -14  539.93   14.77   0
  23  -1 -14  548.16   11.18   0
  21   1 -14  647.13   15.88   0
  21  -1 -14  650.87   11.62   0
  19  -1 -14  853.85   15.00   0
  19   1 -14  842.46   19.38   0
  17  -1 -14  674.33   15.70   0
  17   1 -14  764.80   19.71   0
 -15  -1  14  936.36   20.24   0
  15  -1 -14  916.61   15.77   0
  15   1 -14 1033.55   20.68   0
 -15   1  14  972.86   17.27   0
 -13   1  14 1053.91   17.90   0
 -13  -1  14 1060.05   19.94   0
  13  -1 -14 1102.61   16.21   0
  13   1 -14 1030.02   22.27   0
  11   1 -14  727.14   19.04   0
 -11   1  14  706.24   14.66   0
 -11  -1  14  709.42   16.81   0
  11  -1 -14  738.29   14.61   0
  -9   1  14  433.78   14.97   0
   9   1 -14  513.19   15.97   0
  -9  -1  14  518.08   14.02   0
   9  -1 -14  472.75   15.93   0
   7  -1 -14  490.72   14.52   0
  -7   1  14  554.88   14.58   0
   7   1 -14  511.33   14.44   0
  -7  -1  14  583.53   13.25   0
   5  -1 -14  388.43   13.55   0
  -5   1  14  418.56   11.96   0
  -5  -1  14  450.54   10.44   0
   5   1 -14  411.85   11.79   0
   3  -1 -14  137.26   11.17   0
  -3   1  14  156.81   10.04   0
  -3  -1  14  164.89    9.54   0
   3   1 -14  129.68   12.67   0
   1   1 -14   52.38   10.07   0
   1  -1 -14   62.16   10.99   0
  -1   1  14   70.66   10.01   0
  -1  -1  14   66.84    8.84   0
  -1   1 -14   38.75   11.40   0
   1   1  14   41.82    9.60   0
  -1  -1 -14   25.19   10.51   0
   1  -1  14   27.38   10.09   0
  -3  -1 -14   11.59   10.09   0
  -3   1 -14   15.89    9.88   0
   3   1  14    1.85    9.68   0
   3  -1  14    5.97    9.13   0
  -5  -1 -14   14.52   10.17   0
   5   1  14   19.85    9.90   0
   5  -1  14    8.88    8.98   0
  -5   1 -14   12.14   10.09   0
  -7   1 -14   17.12   10.78   0
  -7  -1 -14   16.42   10.84   0
   7   1  14   -4.18   10.55   0
   7  -1  14    8.50    9.75   0
  32   2 -14    0.73   17.66   0
  32  -2 -14   18.25   10.98   0
  30  -2 -14   14.45   10.34   0
  30   2 -14   29.61   17.64   0
  28  -2 -14    9.22    9.95   0
  28   2 -14   14.69   14.70   0
  26   2 -14   20.58   17.13   0
  26  -2 -14   42.89    9.36   0
  24   2 -14   51.01   14.87   0
  24   2 -14   58.66   11.85   0
  24  -2 -14   63.85   10.52   0
  22   2 -14  214.14   16.07   0
  22  -2 -14  196.08   10.07   0
  22   2 -14  188.35   16.64   0
  20  -2 -14  304.28   11.05   0
  20   2 -14  299.54   17.19   0
  20   2 -14  269.08   21.05   0
  18  -2 -14  577.12   13.39   0
  18   2 -14  700.43   25.14   0
  16  -2 -14  262.22   13.08   0
  16   2 -14  309.79   28.07   0
  14   2 -14  467.87   24.41   0
  14  -2 -14  474.08   14.74   0
 -14   2  14  454.69   13.29   0
 -14  -2  14  453.74   21.56   0
 -12   2  14  904.21   15.20   0
 -12  -2  14  859.09   23.20   0
  12  -2 -14  909.71   15.35   0
  12   2 -14  867.90   21.13   0
 -10   2  14 1019.93   15.79   0
 -10  -2  14 1139.13   18.81   0
  10  -2 -14 1099.60   15.88   0
  10   2 -14 1041.04   19.45   0
   8   2 -14  925.43   16.53   0
  -8   2  14  824.03   15.94   0
  -8  -2  14 1035.21   15.37   0
   8  -2 -14  927.87   16.04   0
   6   2 -14  797.60   14.65   0
  -6   2  14  755.77   15.60   0
  -6  -2  14  882.75   13.29   0
   6  -2 -14  727.55   15.78   0
   4  -2 -14  828.24   14.57   0
   4   2 -14  950.44   14.84   0
  -4   2  14  949.90   13.84   0
  -4  -2  14 1054.33   13.26   0
   2  -2 -14  356.47   12.50   0
  -2   2  14  356.17   12.03   0
   2   2 -14  352.41   11.03   0
  -2  -2  14  400.51    9.87   0
   0  -2  14  631.02   11.89   0
   0  -2 -14  514.60   12.43   0
   0   2  14  569.71   11.97   0
   0   2 -14  601.45   12.34   0
  -2   2 -14  434.40   11.56   0
   2   2  14  398.72   11.74   0
  -2  -2 -14  339.20   12.09   0
   2  -2  14  440.75   10.11   0
  -4   2 -14  313.37   13.06   0
   4   2  14  294.75   11.56   0
  -4  -2 -14  267.34    9.85   0
   4  -2  14  341.90   10.30   0
  -6  -2 -14  123.32   11.30   0
   6   2  14  188.17   11.57   0
  -6   2 -14  154.08   11.75   0
   6  -2  14  218.88   10.25   0
  31   3 -14   89.36   26.34   0
  31  -3 -14   80.27   11.48   0
  29  -3 -14  171.59   11.10   0
  29   3 -14  163.37   26.77   0
  29  -3 -14  178.72   10.22   0
  27   3 -14  103.02   25.80   0
  27  -3 -14  147.96    9.98   0
  25   3 -14   88.57   25.49   0
  25   3 -14  118.59   14.52   0
  25  -3 -14  120.79    9.99   0
  23   3 -14  192.62   30.88   0
  23   3 -14  249.07   21.39   0
  23  -3 -14  239.21   10.54   0
  21  -3 -14  316.37   11.00   0
  19  -3 -14  311.72   11.85   0
  17  -3 -14  361.03   13.07   0
 -15   3  14  304.70   12.99   0
  15  -3 -14  294.02   13.03   0
 -13  -3  14  277.03   23.95   0
 -13   3  14  271.18   12.87   0
  13  -3 -14  271.46   12.92   0
  13   3 -14  280.65   20.65   0
 -11   3  14  270.97   12.55   0
  11   3 -14  271.13   16.50   0
 -11  -3  14  283.41   16.45   0
  11  -3 -14  251.27   12.79   0
  -9   3  14  423.22   13.28   0
   9   3 -14  422.86   15.35   0
   9  -3 -14  449.32   13.50   0
  -9  -3  14  476.92   14.30   0
   7   3 -14  308.23   13.15   0
  -7   3  14  273.67   13.08   0
   7  -3 -14  282.09   13.22   0
  -7  -3  14  327.02   11.43   0
   5   3 -14  173.60   12.24   0
  -5   3  14  139.55   11.84   0
  -5  -3  14  197.45   10.57   0
   5  -3 -14  134.31   12.91   0
  -3   3  14   55.64   11.43   0
   3  -3 -14   61.41   11.90   0
   3   3 -14   73.32   10.61   0
  -3  -3  14  103.58   10.03   0
  -1  -3  14   19.88    9.74   0
   1  -3 -14   24.17   11.05   0
  -1   3  14   12.18   10.72   0
   1   3 -14   19.22   11.87   0
  -1   3 -14   19.70   12.44   0
   1  -3  14   16.48    7.72   0
   1   3  14   32.16   11.02   0
  -1  -3 -14    5.66   10.68   0
   3  -3  14    6.72    8.62   0
  -3   3 -14   -0.36   12.21   0
   3   3  14   21.65   11.09   0
  -3  -3 -14   15.20   10.62   0
  -5   3 -14   10.89   10.77   0
   5   3  14   11.14   11.53   0
  -5  -3 -14   -0.71   10.78   0
   5  -3  14   10.10   10.28   0
  30  -4 -14   -0.59   10.94   0
  30  -4 -14   11.87   10.42   0
  30   4 -14    5.58   22.34   0
  28  -4 -14    4.60    9.80   0
  28  -4 -14   24.19   10.57   0
  28   4 -14    9.30   24.32   0
  26   4 -14    7.56   26.45   0
  26   4 -14    7.77   18.87   0
  26  -4 -14   -1.50   11.52   0
  24  -4 -14   24.50    9.56   0
  22  -4 -14   38.43   10.05   0
  20  -4 -14   99.44   10.81   0
  18  -4 -14   57.47   11.23   0
  16  -4 -14   51.13   12.05   0
  14  -4 -14   76.65   11.83   0
 -14   4  14   87.68   13.28   0
 -12  -4  14  122.39   32.78   0
  12  -4 -14  155.61   11.75   0
 -12   4  14  135.93   11.65   0
 -10   4  14  152.68   11.84   0
  10  -4 -14  175.91   11.78   0
 -10  -4  14  204.41   15.42   0
  -8   4  14  207.11   12.37   0
   8  -4 -14  175.39   12.52   0
  -8  -4  14  220.77   13.31   0
  -6   4  14  142.12   12.77   0
   6  -4 -14  149.35   13.25   0
  -6  -4  14  195.89   11.69   0
  -4  -4  14   75.06   10.02   0
  -4   4  14   58.06   12.68   0
   4  -4 -14   60.34   12.45   0
  -2  -4  14   78.99    9.85   0
   2  -4 -14   57.34   13.55   0
  -2   4  14   59.28   12.25   0
   2   4 -14  70.06   10.71   0
   0  -4  14   56.23    9.90   0
   0  -4 -14   43.70   11.84   0
   0   4  14   46.79   12.40   0
   2  -4  14   92.57    9.07   0
   2   4  14   69.32   12.45   0
  -2  -4 -14   45.65   11.74   0
   4  -4  14   30.77   10.64   0
   4   4  14   32.51   13.16   0
  -4  -4 -14   11.83   11.65   0
  29  -5 -14   -9.48   10.89   0
  29   5 -14    7.07   36.25   0
  29  -5 -14   21.50   10.91   0
  27  -5 -14   14.62   10.85   0
  25  -5 -14   12.38   10.47   0
  23  -5 -14   14.68   10.59   0
  21  -5 -14    7.61   10.87   0
  19  -5 -14   21.93   11.32   0
  17  -5 -14   27.53   12.44   0
  15  -5 -14   10.30   12.03   0
  13  -5 -14   30.42   11.69   0
 -13   5  14   33.08   12.11   0
 -11   5  14   26.12   11.65   0
  11  -5 -14    3.36   11.77   0
 -11  -5  14   19.82   22.61   0
  -9   5  14   32.44   11.68   0
   9  -5 -14   28.47   11.86   0
  -9  -5  14   31.59   13.03   0
  -7  -5  14   49.57   10.89   0
  -7   5  14   46.03   12.03   0
   7  -5 -14   38.46   12.18   0
  -5  -5  14   10.82    9.61   0
  -5   5  14   11.75   12.40   0
   5  -5 -14   14.90   13.41   0
  -3  -5  14   12.56    9.52   0
  -3   5  14   -7.29   13.59   0
   3  -5 -14    8.09   12.53   0
   1  -5 -14   24.82   12.00   0
  -1  -5  14    1.37    9.40   0
  -1   5  14   -0.95   14.16   0
   1  -5  14   -1.73    9.76   0
   1   5  14   11.06   14.31   0
  -1  -5 -14    7.40   12.33   0
   3  -5  14    8.29    8.86   0
   3   5  14   19.84   14.31   0
  -3  -5 -14   18.95   12.46   0
  26  -6 -14   12.22   11.05   0
  24  -6 -14   -5.89   11.07   0
  22  -6 -14    7.36   11.40   0
  20  -6 -14   22.46   13.62   0
  18  -6 -14    8.71   13.16   0
  16  -6 -14    9.35   12.79   0
  14  -6 -14    8.06   12.02   0
  12  -6 -14    7.06   12.44   0
 -12   6  14    9.25   12.57   0
 -10  -6  14    6.87   24.31   0
  10  -6 -14   17.39   12.44   0
 -10  -6  14    3.94   18.59   0
 -10   6  14   11.93   12.81   0
  -8  -6  14   12.53   13.05   0
   8  -6 -14   17.96   12.95   0
  -8   6  14   20.12   12.82   0
  -6   6  14   33.79   13.27   0
  -6  -6  14   12.48   11.23   0
   6  -6 -14   16.58   16.09   0
  -4   6  14    0.61   13.60   0
  -4  -6  14    5.55   11.21   0
   4  -6 -14   -5.49   14.41   0
   2  -6 -14   -0.38   13.95   0
  -2   6  14    9.56   14.30   0
  -2  -6  14   -4.77    9.88   0
   0   6  14   -2.94   15.38   0
   0  -6 -14   -0.80   13.15   0
   0  -6  14    0.48   10.11   0
  23  -7 -14   50.03   13.03   0
  21  -7 -14   64.21   13.07   0
  19  -7 -14   87.71   16.06   0
  17  -7 -14   68.61   13.76   0
  15  -7 -14   45.24   13.23   0
  13  -7 -14   67.55   13.30   0
  11  -7 -14   36.85   13.20   0
 -11   7  14   27.95   14.60   0
  -9  -7  14   29.96   16.72   0
  -9  -7  14   13.30   24.90   0
   9  -7 -14   31.42   13.64   0
  -9   7  14   29.52   13.96   0
  -7  -7  14   34.70   12.73   0
   7  -7 -14   45.59   14.11   0
  -7  -7  14   19.29   20.95   0
  -7   7  14   25.30   14.28   0
  -5  -7  14    3.42   12.46   0
   5  -7 -14   10.06   17.90   0
  -5   7  14    9.21   14.43   0
  -3   7  14   -2.77   14.17   0
  -3  -7  14   17.97   11.59   0
   3  -7 -14   29.19   15.27   0
  18  -8 -14   12.85   15.09   0
  16  -8 -14   27.09   14.28   0
  14  -8 -14   29.38   16.24   0
  12  -8 -14   51.64   15.95   0
  10  -8 -14   46.81   14.58   0
  -8  -8  14   44.05   17.80   0
  -8  -8  14   26.18   27.45   0
   8  -8 -14   25.21   14.87   0
  -8   8  14   52.08   16.02   0
  33  -1 -15   37.08   14.00   0
  33   1 -15   24.11   15.89   0
  31  -1 -15    7.47   11.15   0
  31   1 -15   22.01   14.51   0
  29   1 -15   73.38   13.56   0
  29  -1 -15   71.58   10.58   0
  27   1 -15   48.06   13.16   0
  27  -1 -15   44.01   12.13   0
  27   1 -15   46.90   11.22   0
  27  -1 -15   51.13   11.03   0
  25   1 -15  172.06   14.78   0
  25   1 -15  167.86   12.73   0
  25  -1 -15  176.21   11.82   0
  23   1 -15  150.90   13.86   0
  23   1 -15  185.13   13.70   0
  23  -1 -15  178.78   10.13   0
  21   1 -15   98.87   14.39   0
  21  -1 -15  104.56   11.15   0
  19  -1 -15   66.63   13.03   0
  19   1 -15   71.77   15.38   0
  17  -1 -15  201.85   12.38   0
  17   1 -15  225.01   15.84   0
  15  -1 -15  163.47   13.72   0
  15   1 -15  151.94   16.52   0
 -15   1  15  133.66   11.78   0
 -15  -1  15  160.06   13.79   0
 -13   1  15   83.60   11.59   0
 -13  -1  15   83.72   15.00   0
  13  -1 -15   78.31   11.88   0
  13   1 -15   96.44   16.73   0
 -11   1  15  205.34   13.13   0
  11   1 -15  204.74   16.16   0
 -11  -1  15  236.41   14.14   0
  11  -1 -15  218.42   13.02   0
  -9   1  15   55.56   11.81   0
   9   1 -15   43.55   13.57   0
  -9  -1  15   64.41   11.70   0
   9  -1 -15   43.81   13.40   0
   7  -1 -15   35.06   12.85   0
  -7   1  15   30.79   11.15   0
  -7  -1  15   25.53   10.43   0
   7   1 -15   25.67   12.21   0
   5  -1 -15   19.83   11.76   0
  -5   1  15   30.23   10.11   0
  -5  -1  15   22.44    9.15   0
   5   1 -15   16.43   12.42   0
   3   1 -15   38.65   10.31   0
   3  -1 -15   59.76   13.14   0
  -3   1  15   65.28   11.40   0
  -3  -1  15   53.36    8.87   0
   1   1 -15   27.85   10.14   0
  -1   1  15   19.90    9.77   0
   1  -1 -15   11.99   11.19   0
  -1  -1  15   27.75    8.66   0
  -1   1 -15   11.02   10.41   0
   1   1  15   32.44    9.77   0
   1  -1  15   25.38    8.76   0
  -1  -1 -15    6.71   11.25   0
  -3  -1 -15    6.79   10.79   0
  -3   1 -15   25.81   10.48   0
   3   1  15    5.27    9.94   0
   3  -1  15    3.89    9.21   0
  -5  -1 -15    3.79   10.82   0
   5   1  15    3.58   10.63   0
   5  -1  15    0.60    9.95   0
  -5   1 -15   12.95   10.98   0
  34   2 -15    9.65   19.61   0
  34  -2 -15   30.07   12.35   0
  32  -2 -15   17.77   11.42   0
  32   2 -15   22.03   17.75   0
  30   2 -15    1.08   17.85   0
  30  -2 -15   18.30   11.92   0
  30  -2 -15    8.09   10.52   0
  28  -2 -15   18.70    9.96   0
  28   2 -15    0.59   16.60   0
  28  -2 -15   11.75    9.76   0
  26   2 -15   19.86   15.25   0
  26   2 -15    6.16   13.45   0
  26  -2 -15   20.08    8.95   0
  24   2 -15   15.01   13.96   0
  24   2 -15    5.22   15.51   0
  24  -2 -15   19.95   10.61   0
  22  -2 -15    6.15   11.53   0
  22   2 -15    2.03   16.98   0
  22   2 -15    9.01   16.29   0
  20  -2 -15   46.81   10.54   0
  20   2 -15   58.77   19.92   0
  20   2 -15   57.73   17.77   0
  18  -2 -15   24.09   12.20   0
  18   2 -15   51.15   20.77   0
  16   2 -15   56.94   24.32   0
  16  -2 -15   52.16   11.95   0
 -16   2  15   53.03   13.36   0
 -14  -2  15   81.06   17.36   0
  14   2 -15   73.55   18.57   0
  14  -2 -15   83.29   11.42   0
 -14   2  15   99.33   13.09   0
 -12   2  15   54.80   11.66   0
 -12  -2  15   59.64   15.01   0
  12  -2 -15   46.26   13.45   0
  12   2 -15   52.88   15.58   0
 -10   2  15   80.79   14.51   0
 -10  -2  15  102.77   12.38   0
  10  -2 -15  103.47   12.33   0
  10   2 -15   96.96   15.54   0
   8   2 -15  142.90   13.12   0
  -8   2  15  146.26   12.52   0
  -8  -2  15  150.02   11.26   0
   8  -2 -15  145.76   13.32   0
   6  -2 -15  173.62   13.20   0
   6   2 -15  193.08   11.29   0
  -6   2  15  160.86   11.82   0
  -6  -2  15  224.98    9.59   0
   4  -2 -15   77.07   12.05   0
  -4   2  15   54.12   11.22   0
   4   2 -15   69.40   12.34   0
  -4  -2  15   69.74   10.37   0
   2  -2 -15   82.35   11.67   0
  -2   2  15   93.72   10.50   0
   2   2 -15   88.16   11.93   0
  -2  -2  15   96.50    9.24   0
   0   2  15  156.59   10.86   0
   0  -2 -15  180.40   11.87   0
   0  -2  15  179.15    9.69   0
   0   2 -15  196.13   12.18   0
  -2   2 -15  121.83   11.23   0
   2   2  15  115.17   10.92   0
  -2  -2 -15   64.76   11.38   0
   2  -2  15  128.34    9.21   0
  -4   2 -15   53.60   11.30   0
   4   2  15   75.20   11.15   0
   4  -2  15   73.52    9.42   0
  -4  -2 -15   55.33   11.54   0
  33   3 -15   83.26   28.15   0
  33  -3 -15   63.17   12.31   0
  33  -3 -15   95.82   10.82   0
  31   3 -15   93.24   28.55   0
  31  -3 -15  159.59   11.78   0
  31  -3 -15  179.66   10.79   0
  29  -3 -15  179.81   11.33   0
  29   3 -15  132.54   30.67   0
  29  -3 -15  214.48   10.56   0
  27   3 -15  305.10   32.07   0
  27   3 -15  371.28   17.48   0
  27  -3 -15  369.78   10.94   0
  25   3 -15  426.67   21.74   0
  25   3 -15  327.04   34.57   0
  25  -3 -15  410.68   11.03   0
  23  -3 -15  568.67   13.55   0
  23   3 -15  449.32   48.94   0
  23   3 -15  550.85   35.51   0
  21  -3 -15  402.47   11.92   0
  19  -3 -15  617.58   13.76   0
  17  -3 -15  502.14   14.43   0
  15  -3 -15  568.15   13.57   0
 -15   3  15  572.90   13.67   0
 -13  -3  15  441.69   23.20   0
  13   3 -15  464.51   20.61   0
  13  -3 -15  493.78   13.30   0
 -13   3  15  438.01   13.49   0
  11   3 -15  299.65   16.42   0
 -11   3  15  288.47   12.51   0
 -11  -3  15  341.23   16.13   0
  11  -3 -15  341.66   12.14   0
   9   3 -15  366.08   15.83   0
  -9   3  15  341.85   12.81   0
  -9  -3  15  384.32   13.66   0
   9  -3 -15  346.35   12.91   0
   7   3 -15  190.41   12.97   0
  -7   3  15  156.75   12.86   0
  -7  -3  15  193.91   10.87   0
   7  -3 -15  161.73   13.09   0
   5   3 -15  126.27   12.68   0
  -5   3  15   90.56   11.92   0
   5  -3 -15   78.58   12.91   0
  -5  -3  15  132.81    9.78   0
   3  -3 -15  107.88   12.13   0
  -3   3  15   98.23   11.72   0
   3   3 -15  117.14   11.03   0
  -3  -3  15  134.27   10.49   0
   1  -3 -15   74.22   11.81   0
  -1   3  15   71.13   11.76   0
   1   3 -15   93.99   12.83   0
  -1  -3  15   98.55   10.76   0
  -1   3 -15   34.48   11.13   0
   1   3  15   48.50   11.13   0
  -1  -3 -15   42.11   11.08   0
   1  -3  15   47.32    8.93   0
   3  -3  15   17.40    8.82   0
   3   3  15   10.47   11.84   0
  -3   3 -15   21.94   11.48   0
  -3  -3 -15   12.78   11.31   0
   5  -3  15   24.37    9.51   0
  32  -4 -15   -5.23   11.36   0
  30   4 -15   11.63   23.49   0
  30  -4 -15   16.47   11.25   0
  30  -4 -15   18.62   10.36   0
  28   4 -15    5.76   21.53   0
  28   4 -15    8.49   25.93   0
  28  -4 -15   18.44   10.10   0
  26  -4 -15   14.08   10.20   0
  24  -4 -15   22.80   10.35   0
  22  -4 -15   72.00   11.07   0
  20  -4 -15   19.72   11.08   0
  18  -4 -15  110.78   14.59   0
  16  -4 -15  235.33   12.37   0
  14  -4 -15  331.58   12.55   0
 -14   4  15  316.28   10.59   0
 -12  -4  15  239.80   22.62   0
 -12   4  15  231.14   12.01   0
  12  -4 -15  262.52   12.17   0
 -10   4  15  342.68   12.56   0
  10  -4 -15  369.15   12.62   0
 -10  -4  15  396.41   15.39   0
  -8   4  15  383.57   13.01   0
   8  -4 -15  334.27   12.88   0
  -8  -4  15  402.69   13.45   0
  -6   4  15  264.04   13.47   0
   6   4 -15  272.64   14.04   0
   6  -4 -15  267.88   13.42   0
  -6  -4  15  325.67   11.35   0
   4  -4 -15  263.51   13.68   0
  -4   4  15  262.26   13.50   0
   4   4 -15  325.74   14.34   0
  -4  -4  15  395.96   12.20   0
  -2  -4  15  415.24   11.29   0
   2  -4 -15  297.31   13.50   0
  -2   4  15  338.81   13.50   0
   2   4 -15  355.78   14.95   0
   0  -4  15  238.27    9.82   0
   0   4  15  163.85   13.11   0
   0  -4 -15  172.30   12.71   0
   2  -4  15  205.61    9.88   0
   2   4  15  156.00   13.26   0
  -2  -4 -15  123.00   12.61   0
  29  -5 -15  170.74   11.75   0
  27  -5 -15  314.01   11.97   0
  25  -5 -15  459.45   12.23   0
  23  -5 -15  356.40   12.47   0
  21  -5 -15  630.79   13.45   0
  19  -5 -15  586.32   14.09   0
  17  -5 -15  713.50   14.61   0
  15  -5 -15  562.00   13.50   0
  13  -5 -15  444.55   13.18   0
 -13   5  15  469.57   13.13   0
  11  -5 -15  524.72   13.08   0
 -11  -5  15  576.74   22.40   0
 -11   5  15  557.12   13.24   0
  -9   5  15  306.57   12.87   0
  -9  -5  15  399.59   14.82   0
   9  -5 -15  355.09   13.14   0
  -7   5  15  312.85   13.10   0
   7  -5 -15  279.52   13.64   0
  -7  -5  15  335.10   12.68   0
  -5  -5  15  266.13   12.20   0
  -5   5  15  197.38   13.48   0
   5  -5 -15  188.69   16.39   0
   3  -5 -15  113.09   13.99   0
  -3  -5  15  167.83   10.96   0
  -3   5  15  130.90   14.64   0
  -1  -5  15   93.94   10.51   0
   1  -5 -15   59.98   13.28   0
  -1   5  15   58.16   14.97   0
   1  -5  15   45.30   10.37   0
   1   5  15   23.26   14.50   0
  -1  -5 -15   38.09   12.91   0
  26  -6 -15   -9.66   10.98   0
  24  -6 -15   16.89   11.50   0
  22  -6 -15    5.03   11.91   0
  20  -6 -15   46.15   12.46   0
  18  -6 -15   32.56   13.32   0
  16  -6 -15   96.11   12.75   0
  14  -6 -15  114.72   12.60   0
  12  -6 -15  210.87   12.89   0
 -12   6  15  172.65   13.05   0
  10  -6 -15  157.30   13.19   0
 -10  -6  15  186.22   18.26   0
 -10  -6  15  158.96   23.92   0
 -10   6  15  160.97   13.08   0
   8  -6 -15  185.65   13.75   0
  -8  -6  15  224.56   13.76   0
  -8   6  15  162.94   13.43   0
  -6   6  15  160.03   13.41   0
  -6  -6  15  216.71   12.41   0
   6  -6 -15  166.48   14.02   0
  -4   6  15  152.15   14.18   0
  -4  -6  15  209.20   12.09   0
   4  -6 -15  120.09   15.31   0
   2  -6 -15  109.90   14.49   0
  -2   6  15  146.36   14.85   0
  -2  -6  15  196.14   12.65   0
  23  -7 -15  184.56   13.64   0
  21  -7 -15  151.87   14.34   0
  19  -7 -15  223.71   15.19   0
  17  -7 -15  219.27   13.77   0
  15  -7 -15  227.44   13.87   0
  13  -7 -15  206.28   13.71   0
  11  -7 -15  178.63   13.79   0
 -11   7  15  183.62   14.55   0
  -9  -7  15  140.28   24.26   0
   9  -7 -15  136.92   13.90   0
  -9   7  15  176.71   14.24   0
  -9  -7  15  172.49   17.70   0
  -7  -7  15  105.32   14.60   0
   7  -7 -15   93.78   14.48   0
  -7   7  15   82.12   14.19   0
  -5  -7  15   77.77   13.29   0
   5  -7 -15   59.78   18.33   0
  -5   7  15   51.58   14.58   0
  16  -8 -15    7.21   14.37   0
  14  -8 -15   30.31   13.68   0
  12  -8 -15   26.84   13.68   0
  34   0 -16   75.16   13.59   0
  32   0 -16  163.95   14.37   0
  30   0 -16  123.07   11.86   0
  30   0 -16  155.10   11.61   0
  28   0 -16   37.85   12.24   0
  28   0 -16   48.10   10.58   0
  26   0 -16   10.68   11.30   0
  26   0 -16   15.09   10.63   0
  24   0 -16   93.89   11.53   0
  22   0 -16   42.14   12.56   0
  20   0 -16  157.84   14.60   0
  18   0 -16  100.05   12.85   0
  16   0 -16  105.86   13.00   0
 -16   0  16  103.14   13.03   0
 -14   0  16  271.97   13.67   0
  14   0 -16  283.92   12.51   0
 -12   0  16  177.72   14.46   0
  12   0 -16  178.21   12.83   0
  10   0 -16   85.18   14.84   0
 -10   0  16   89.87   12.03   0
   8   0 -16   77.50   14.31   0
  -8   0  16   84.41   10.66   0
   6   0 -16  144.35   12.44   0
  -6   0  16  139.80   10.45   0
  -4   0  16  707.37   13.29   0
   4   0 -16  637.64   15.27   0
  -2   0  16  230.03   10.41   0
   2   0 -16  200.95   12.04   0
   0   0 -16  198.41   12.04   0
   0   0  16  262.63   10.73   0
  -2   0 -16  227.96   12.09   0
   2   0  16  226.31   10.77   0
  -4   0 -16  166.40   12.39   0
   4   0  16  200.27   11.14   0
  33  -1 -16  122.86   14.69   0
  33   1 -16  123.71   17.00   0
  31   1 -16  209.14   15.99   0
  31  -1 -16  236.75   14.12   0
  31  -1 -16  273.34   11.30   0
  29  -1 -16  437.89   14.69   0
  29   1 -16  406.45   17.82   0
  29   1 -16  476.37   13.17   0
  29  -1 -16  465.85   11.44   0
  27   1 -16  780.87   16.75   0
  27   1 -16  822.92   15.23   0
  27  -1 -16  872.15   14.23   0
  25   1 -16 1088.06   18.30   0
  25   1 -16 1026.04   19.06   0
  25  -1 -16 1084.72   13.80   0
  23  -1 -16 1713.00   16.61   0
  23   1 -16 1614.41   21.66   0
  21  -1 -16 1836.55   18.31   0
  21   1 -16 1831.70   23.84   0
  19  -1 -16 1461.87   17.31   0
  19   1 -16 1659.64   23.60   0
  17  -1 -16 1317.81   17.36   0
  17   1 -16 1435.07   20.57   0
 -17   1  16 1462.96   17.79   0
 -15  -1  16 1614.54   22.17   0
  15  -1 -16 1803.13   18.45   0
  15   1 -16 1676.63   23.01   0
 -15   1  16 1709.75   17.31   0
  13   1 -16 1552.09   23.92   0
 -13   1  16 1586.10   16.94   0
 -13  -1  16 1407.54   21.37   0
  13  -1 -16 1654.93   16.84   0
 -11   1  16  903.69   15.69   0
  11   1 -16  960.62   19.45   0
 -11  -1  16 1011.71   15.75   0
  11  -1 -16  998.27   15.37   0
   9  -1 -16  714.62   17.65   0
  -9   1  16  676.29   14.14   0
  -9  -1  16  771.72   12.67   0
   9   1 -16  692.33   14.96   0
   7  -1 -16  537.96   14.37   0
  -7   1  16  534.63   12.67   0
  -7  -1  16  596.93   12.83   0
   7   1 -16  518.03   15.69   0
   5  -1 -16  307.21   13.30   0
  -5   1  16  320.55   11.73  0
  -5  -1  16  360.96   10.68   0
   5   1 -16  320.48   12.55   0
   3   1 -16  243.46   12.51   0
  -3   1  16  279.00   11.15   0
   3  -1 -16  226.90   12.59   0
  -3  -1  16  276.77   11.48   0
   1   1 -16  245.87   11.75   0
  -1   1  16  270.47   11.44   0
   1  -1 -16  228.47   12.42   0
  -1  -1  16  239.44   10.10   0
  -1   1 -16  187.92   12.00   0
   1   1  16  220.37   11.19   0
   1  -1  16  227.15   10.27   0
  -1  -1 -16  178.63   14.02   0
  -3  -1 -16   65.09   11.96   0
   3   1  16  118.91   11.30   0
  -3   1 -16   94.13   11.87   0
   3  -1  16  107.61   10.16   0
  34   2 -16    5.19   22.58   0
  34  -2 -16   31.39   12.43   0
  34  -2 -16   45.44   10.48   0
  32  -2 -16   37.49   11.91   0
  32   2 -16   59.22   20.52   0
  32  -2 -16   64.74   10.13   0
  30  -2 -16   60.79   11.57   0
  30  -2 -16   50.33    9.72   0
  30   2 -16   56.31   19.26   0
  30   2 -16   73.99   12.88   0
  28   2 -16   73.15   13.84   0
  28   2 -16   49.06   17.37   0
  28  -2 -16   62.94   10.10   0
  26   2 -16   29.47   15.11   0
  26   2 -16   30.06   16.76   0
  26  -2 -16   32.31    9.90   0
  24  -2 -16   29.05   11.57   0
  24   2 -16   17.14   15.70   0
  24   2 -16   26.43   16.12   0
  22  -2 -16   26.63   10.36   0
  22   2 -16   18.39   18.72   0
  22   2 -16   20.39   17.57   0
  20  -2 -16   33.99   13.36   0
  20   2 -16   32.24   18.86   0
  18  -2 -16    6.34   11.62   0
  18   2 -16    6.69   20.51   0
  16   2 -16   44.02   21.80   0
  16  -2 -16   46.10   13.20   0
 -16   2  16   47.16   11.32   0
 -16  -2  16   35.34   16.62   0
 -14   2  16  119.26   11.48   0
 -14  -2  16  111.60   15.15   0
  14   2 -16  111.20   19.03   0
  14  -2 -16  118.78   13.27   0
 -12   2  16  181.48   12.08   0
 -12  -2  16  173.60   15.07   0
  12  -2 -16  168.05   12.21   0
  12   2 -16  175.49   15.15   0
 -10   2  16  109.66   12.86   0
 -10  -2  16  132.13   13.40   0
  10  -2 -16  131.50   14.07   0
  10   2 -16  112.17   14.29   0
   8   2 -16  134.84   13.45   0
  -8   2  16  129.19   12.09   0
  -8  -2  16  159.28   11.35   0
   8  -2 -16  145.30   13.02   0
   6  -2 -16  253.60   14.29   0
   6   2 -16  296.30   14.07   0
  -6   2  16  229.66   12.60   0
  -6  -2  16  324.71   11.59   0
   4  -2 -16  101.16   12.25   0
  -4   2  16  114.47   11.44   0
   4   2 -16  101.02   11.79   0
  -4  -2  16  134.20    9.41   0
  -2   2  16  251.07   11.60   0
   2  -2 -16  241.74   12.66   0
   2   2 -16  262.57   12.08   0
  -2  -2  16  272.52   10.22   0
   0   2  16  152.74   11.55   0
   0  -2 -16  131.40   12.52   0
   0  -2  16  193.53    9.82   0
   0   2 -16  141.44   11.87   0
  -2   2 -16  161.46   12.04   0
   2   2  16  166.12   11.80   0
  -2  -2 -16  132.07   12.49   0
   2  -2  16  200.35   11.51   0
  -4  -2 -16   61.50   12.68   0
   4   2  16  130.91   12.07   0
  -4   2 -16  110.82   12.47   0
   4  -2  16  135.22   10.40   0
  33   3 -16   32.25   24.51   0
  33  -3 -16   33.25   12.19   0
  33  -3 -16   44.78   10.92   0
  31   3 -16   86.16   29.10   0
  31   3 -16  100.33   13.72   0
  31  -3 -16   67.82   11.67   0
  31  -3 -16   96.80   11.97   0
  29   3 -16  111.27   30.30   0
  29  -3 -16  143.12   10.32   0
  29   3 -16  135.98   15.23   0
  27   3 -16  157.08   19.71   0
  27   3 -16  123.19   34.42   0
  27  -3 -16  154.11   10.38   0
  25  -3 -16  321.23   11.14   0
  25   3 -16  262.47   43.39   0
  25   3 -16  310.75   29.69   0
  23  -3 -16  457.16   11.67   0
  21  -3 -16  336.52   12.24   0
  19  -3 -16  457.36   13.85   0
  17  -3 -16  471.27   13.24   0
 -17   3  16  485.79   12.84   0
  15  -3 -16  476.89   12.85   0
  15   3 -16  452.78   25.90   0
 -15   3  16  448.20   13.04   0
 -15  -3  16  444.49   26.48   0
 -13   3  16  367.52   12.40   0
 -13  -3  16  315.96   20.03   0
  13  -3 -16  342.78   12.13   0
  13   3 -16  315.46   19.33   0
 -11   3  16  235.33   12.01   0
 -11  -3  16  270.26   14.78   0
  11  -3 -16  269.78   13.62   0
  11   3 -16  247.79   16.51   0
  -9   3  16  166.52   12.68   0
  -9  -3  16  180.90   12.85   0
   9  -3 -16  151.54   12.39   0
   9   3 -16  157.25   15.66   0
   7   3 -16  124.77   13.06   0
  -7   3  16  129.81   13.08   0
  -7  -3  16  139.72   10.78   0
   7  -3 -16  121.59   13.28   0
   5  -3 -16  151.41   13.82   0
   5   3 -16  170.59   12.04   0
  -5   3  16  148.51   12.48   0
  -5  -3  16  187.20   10.61   0
   3  -3 -16   83.88   12.57   0
  -3   3  16   94.15   12.08   0
   3   3 -16  121.55   11.63   0
  -3  -3  16  144.01   10.67   0
  -1   3  16   86.18   11.98   0
   1  -3 -16   94.86   12.40   0
   1   3 -16   79.28   11.72   0
  -1  -3  16   89.87    9.38   0
  -1   3 -16   71.47   12.44   0
   1   3  16   46.53   12.00   0
  -1  -3 -16   47.62   13.73   0
   1  -3  16   77.46   10.89   0
   3   3  16   19.03   12.72   0
  -3   3 -16   39.30   14.55   0
  -3  -3 -16    1.95   12.17   0
   3  -3  16   16.69   10.94   0
  32  -4 -16   18.75   11.87   0
  32  -4 -16    7.37   10.71   0
  32   4 -16   16.26   24.66   0
  32   4 -16    8.39   17.90   0
  30  -4 -16   17.61   11.39   0
  30   4 -16   13.02   23.64   0
  30   4 -16    8.48   26.12   0
  30  -4 -16   25.96   10.13   0
  28  -4 -16   10.25   10.30   0
  26  -4 -16   13.88   10.85   0
  24  -4 -16   10.15   10.69   0
  22  -4 -16   18.39   11.28   0
  20  -4 -16    9.28   12.10   0
  18  -4 -16    7.05   12.31   0
  16  -4 -16   13.21   11.41   0
 -16   4  16  -12.49   13.34   0
  14  -4 -16    8.85   11.42   0
 -14   4  16   -0.54   11.23   0
 -12   4  16   13.20   11.20   0
 -12  -4  16   12.76   17.20   0
  12  -4 -16   24.16   11.37   0
 -10   4  16   38.77   10.97   0
 -10  -4  16   34.71   12.37   0
  10  -4 -16   31.42   11.18   0
  -8   4  16   66.90   11.89   0
   8   4 -16   66.98   14.22   0
  -8  -4  16   64.54   12.02   0
   8  -4 -16   49.90   11.83   0
  -6   4  16   33.80   12.78   0
   6   4 -16   38.26   13.69   0
  -6  -4  16   26.04   10.20   0
   6  -4 -16   17.96   12.45   0
   4  -4 -16   29.24   12.82   0
  -4   4  16   34.09   10.76   0
   4   4 -16   20.47   14.58   0
  -4  -4  16   34.93   10.04   0
   2  -4 -16   12.24   12.41   0
  -2   4  16   12.57   12.40   0
   2   4 -16   11.96   14.44   0
  -2  -4  16    6.71   10.49   0
   0   4  16   50.86   13.20   0
   0  -4 -16   37.97   12.62   0
   0  -4  16   50.86   10.95   0
   2   4  16   29.13   13.65   0
   2  -4  16   29.93    9.61   0
  29  -5 -16   20.12   11.06   0
  27  -5 -16   28.42   11.21   0
  25  -5 -16   13.56   11.25   0
  23  -5 -16   15.88   11.49   0
  21  -5 -16   41.52   12.26   0
  19  -5 -16   33.60   12.79   0
  17  -5 -16   23.39   11.63   0
  15  -5 -16   20.77   11.43   0
 -15   5  16    3.73   11.45   0
  13  -5 -16   13.43   11.14   0
 -13   5  16    8.96   11.23   0
 -11  -5  16   17.92   16.22   0
  11  -5 -16   15.82   11.13   0
 -11   5  16  -12.22   11.00   0
  -9   5  16   27.60    9.66   0
   9  -5 -16   14.99   12.01   0
  -9  -5  16   22.49   13.13   0
  -7   5  16   18.69   12.09   0
   7  -5 -16   10.17   12.24   0
  -7  -5  16   12.43   11.57   0
  -5   5  16   12.07   14.87   0
   5  -5 -16  -10.74   10.82   0
  -5  -5  16    6.12   11.53   0
   3  -5 -16    6.13   13.25   0
  -3   5  16   -1.87   14.09   0
  -3  -5  16   -0.17   10.10   0
  -1  -5  16    1.11   10.54   0
  -1   5  16   -0.44   14.53   0
   1  -5 -16   -3.82   14.93   0
  28  -6 -16   12.53   13.78   0
  26  -6 -16    1.72   11.72   0
  24  -6 -16    0.42   12.21   0
  22  -6 -16   15.49   12.06   0
  20  -6 -16    2.23   13.36   0
  18  -6 -16  -17.01   12.15   0
  16  -6 -16  -14.47   12.02   0
  14  -6 -16   12.65   11.74   0
 -14   6  16   -9.42   12.01   0
  12  -6 -16    4.47   11.74   0
 -12   6  16  -12.26   12.10   0
  10  -6 -16   15.14   12.51   0
 -10  -6  16   10.35   15.43   0
 -10   6  16   34.38   12.54   0
  -8   6  16   37.87   12.47   0
   8  -6 -16   14.01   12.33   0
  -8  -6  16    1.50   12.99   0
  -6   6  16   26.04   13.27   0
   6  -6 -16   22.74   13.32   0
  -6  -6  16   11.99   11.69   0
   4  -6 -16   -8.78   14.99   0
  -4  -6  16    3.02   10.67   0
  -4   6  16   10.37   13.49   0
  -2  -6  16   11.29   10.74   0
  23  -7 -16   43.94   14.00   0
  21  -7 -16   48.50   14.22   0
  19  -7 -16   60.03   13.68   0
  17  -7 -16   63.58   12.95   0
  15  -7 -16   88.77   13.40   0
  13  -7 -16   32.50   12.95   0
 -13   7  16   64.75   11.05   0
  11  -7 -16   26.92   12.95   0
 -11   7  16   35.96   13.56   0
   9  -7 -16   88.48   13.51   0
  -9  -7  16   79.86   16.48   0
  -9   7  16   72.46   13.77   0
  -9  -7  16   51.04   22.64   0
  -7  -7  16   47.42   13.96   0
   7  -7 -16   42.42   14.22   0
  -7   7  16   53.99   13.96   0
  35  -1 -17   11.25   15.11   0
  35   1 -17    8.68   18.42   0
  35  -1 -17    3.86   12.24   0
  33   1 -17   12.64   16.16   0
  33   1 -17   23.40   11.73   0
  33  -1 -17   29.18    9.98   0
  33  -1 -17   25.61   12.03   0
  31   1 -17   37.10   14.91   0
  31  -1 -17   44.63   11.42   0
  31   1 -17   47.78   11.36   0
  31  -1 -17   30.81   11.41   0
  29  -1 -17   25.93   12.95   0
  29   1 -17   18.60   13.66   0
  29   1 -17   23.70   11.42   0
  29  -1 -17   13.89   11.19   0
  27   1 -17   90.75   15.47   0
  27   1 -17   91.59   13.62   0
  27  -1 -17   86.04   11.86   0
  25  -1 -17  164.77   10.81   0
  25   1 -17  145.68   15.16   0
  25   1 -17  163.27   15.26   0
  23  -1 -17  167.56   11.73   0
  23   1 -17  172.53   17.97   0
  21  -1 -17   74.17   14.13   0
  21   1 -17   93.30   14.60   0
  19  -1 -17  360.17   13.64   0
  19   1 -17  397.74   15.58   0
  17  -1 -17  163.01   12.48   0
 -17   1  17  157.29   11.04   0
  17   1 -17  176.87   15.33   0
 -17  -1  17  191.58   14.73   0
  15   1 -17  173.32   17.36   0
 -15   1  17  186.16   11.35   0
 -15  -1  17  200.73   13.83   0
  15  -1 -17  191.08   10.81   0
 -13   1  17  207.21   12.99   0
  13   1 -17  201.55   18.95   0
 -13  -1  17  190.52   14.88   0
  13  -1 -17  231.93   11.53   0
 -11   1  17  157.01   12.44   0
 -11  -1  17  189.99   11.61   0
  11   1 -17  141.09   15.87   0
  11  -1 -17  184.75   12.53   0
   9  -1 -17  131.70   13.60   0
  -9   1  17  111.91   11.43   0
  -9  -1  17  137.59   10.58   0
   9   1 -17  107.63   14.98   0
   7  -1 -17   97.15   13.22   0
  -7   1  17   85.32   10.78   0
  -7  -1  17   95.53   10.17   0
   7   1 -17   93.84   12.26   0
   5  -1 -17   86.06   12.58   0
  -5   1  17   90.03   10.98   0
   5   1 -17   91.68   13.96   0
  -5  -1  17   96.81   11.17   0
   3   1 -17   57.04   12.33   0
  -3   1  17   33.28   10.77   0
   3  -1 -17   52.74   12.26   0
  -3  -1  17   39.51    9.49   0
   1   1 -17   16.36   12.94   0
  -1   1  17   44.30   10.61   0
  -1  -1  17   39.91   10.42   0
   1  -1 -17   33.67   11.98   0
  -1   1 -17   14.95   11.58   0
   1   1  17   30.78   10.91   0
   1  -1  17   18.32   11.09   0
  -1  -1 -17   12.71   12.27   0
  -3  -1 -17   20.52   12.45   0
   3   1  17  -13.60   11.57   0
   3  -1  17   24.65   10.15   0
  -3   1 -17   -0.33   12.18   0
  34  -2 -17   17.37   12.92   0
  34   2 -17   25.72   23.39   0
  34   2 -17   43.05   13.80   0
  34  -2 -17   31.36   10.71   0
  32   2 -17   33.40   21.38   0
  32   2 -17   40.25   13.22   0
  32  -2 -17   31.17   10.40   0
  32  -2 -17   22.59   13.65   0
  30   2 -17   63.26   21.26   0
  30  -2 -17   73.18   10.54   0
  30   2 -17   80.76   14.67   0
  30  -2 -17   79.89   13.44   0
  28   2 -17   92.33   16.42   0
  28   2 -17   76.13   19.54   0
  28  -2 -17   87.04   11.61   0
  26  -2 -17   54.50   12.14   0
  26   2 -17   44.12   16.61   0
  26   2 -17   44.45   18.07   0
  24  -2 -17   48.70   10.89   0
  24   2 -17   43.09   17.40   0
  24   2 -17   41.09   17.72   0
  22  -2 -17    1.54   13.16   0
  22   2 -17   13.23   17.40   0
  20  -2 -17   47.39   12.16   0
  20   2 -17   62.72   19.50   0
 -18   2  17   46.30   11.22   0
  18   2 -17   39.39   20.36   0
  18  -2 -17   38.01   11.49   0
  16   2 -17   11.39   19.97   0
  16  -2 -17    4.74   10.85   0
 -16   2  17    2.44   12.56   0
 -16  -2  17    3.43   14.39   0
 -14   2  17    0.47   10.87   0
 -14  -2  17    3.96   14.69   0
  14   2 -17   11.36   16.81   0
  14  -2 -17   -0.01   10.82   0
 -12   2  17    9.46   11.25   0
 -12  -2  17   23.15   12.61   0
  12  -2 -17   -0.22   12.76   0
  12   2 -17   15.59   16.80   0
 -10   2  17   59.97   12.15   0
 -10  -2  17   55.03   12.78   0
  10  -2 -17   57.21   13.22   0
  10   2 -17   51.98   13.91   0
   8  -2 -17   40.71   12.69   0
   8   2 -17   32.71   13.53   0
  -8   2  17   28.78   11.63   0
  -8  -2  17   23.99    9.02   0
   6  -2 -17    9.19   12.81   0
   6   2 -17   21.29   12.98   0
  -6   2  17   21.17   11.31   0
  -6  -2  17   19.03    9.22   0
   4  -2 -17   -8.24   12.25   0
  -4   2  17   17.84   11.33   0
   4   2 -17   17.99   11.40   0
  -4  -2  17   22.46    9.43   0
  -2   2  17   89.91   11.64   0
   2  -2 -17   79.72   12.28   0
   2   2 -17   89.46   12.16   0
  -2  -2  17   90.31    9.48   0
   0   2  17   68.78   11.69   0
   0  -2 -17   68.16   12.48   0
   0  -2  17   64.76    9.53   0
   0   2 -17   55.84   12.10   0
  -2   2 -17   22.06   12.29   0
   2   2  17   40.24   12.01   0
   2  -2  17   28.97    9.69   0
  -2  -2 -17   28.18   12.46   0
  33   3 -17   47.66   25.14   0
  33   3 -17   62.79   15.86   0
  33  -3 -17   60.04   11.16   0
  33  -3 -17   34.79   12.40   0
  31   3 -17   49.69   27.98   0
  31  -3 -17   73.80   10.58   0
  31  -3 -17   75.34   13.56   0
  31   3 -17   82.16   18.07   0
  29   3 -17  165.36   19.41   0
  29   3 -17  121.83   32.33   0
  29  -3 -17  194.53   12.21   0
  27  -3 -17  245.07   11.33   0
  27   3 -17  203.42   37.30   0
  27   3 -17  236.17   28.07   0
  25  -3 -17  368.79   12.06   0
  23  -3 -17  407.62   12.72   0
  21  -3 -17  602.29   16.32   0
  19  -3 -17  616.89   15.18   0
  17  -3 -17  743.54   13.67   0
  17   3 -17  774.18   36.71   0
 -17   3  17  778.10   13.59   0
 -15  -3  17  576.76   22.44   0
  15  -3 -17  623.92   13.13   0
  15   3 -17  560.29   25.22   0
 -15   3  17  537.18   12.83   0
 -13   3  17  489.67   12.87   0
 -13  -3  17  477.89   19.63   0
  13  -3 -17  494.20   12.74   0
  13   3 -17  457.63   20.99   0
 -11   3  17  659.24   14.15   0
 -11  -3  17  732.48   16.91   0
  11  -3 -17  671.63   13.92   0
  11   3 -17  647.90   19.98   0
  -9   3  17  410.31   13.73   0
  -9  -3  17  494.10   13.52   0
   9  -3 -17  464.76   13.07   0
   9   3 -17  457.85   18.65   0
   7  -3 -17  299.05   13.49   0
   7   3 -17  318.18   15.32   0
  -7   3  17  271.37   13.71   0
  -7  -3  17  333.53   11.96   0
   5  -3 -17  199.72   13.73   0
   5   3 -17  262.05   15.32   0
  -5   3  17  233.69   12.80   0
  -5  -3  17  288.42   11.56   0
   3  -3 -17  189.25   13.05   0
  -3   3  17  197.27   12.51   0
   3   3 -17  217.94   15.19   0
  -3  -3  17  229.04   11.37   0
  -1   3  17  111.45   12.08   0
   1  -3 -17   93.25   12.95   0
   1   3 -17  129.32   14.82   0
  -1  -3  17  150.65   11.29   0
  -1   3 -17   79.01   15.03   0
   1   3  17   55.60   12.61   0
  -1  -3 -17   57.77   12.75   0
   1  -3  17   84.93    9.71   0
  32   4 -17  121.17   26.61   0
  32  -4 -17  112.84   12.68   0
  32   4 -17   80.06   29.36   0
  32  -4 -17  104.02   11.89   0
  30  -4 -17  104.57   12.93   0
  28  -4 -17  153.95   11.56   0
  26  -4 -17  127.83   11.63   0
  24  -4 -17   91.00   11.47   0
  22  -4 -17  136.53   14.51   0
  20  -4 -17   89.15   12.67   0
  18  -4 -17   -7.17   11.51   0
  16  -4 -17   -6.65   12.80   0
 -16   4  17    3.41   10.88   0
 -14  -4  17   13.33   20.58   0
  14  -4 -17   15.36   11.13   0
 -14   4  17    7.56   11.12   0
 -12   4  17   23.67   10.86   0
 -12  -4  17   -3.11   15.39   0
  12  -4 -17   20.04   10.81   0
 -10   4  17   38.30   10.98   0
  10   4 -17   12.67   16.29   0
 -10  -4  17   33.90   12.62   0
  10  -4 -17   21.11   10.91   0
  -8   4  17   60.68   12.18   0
   8   4 -17   42.46   16.70   0
  -8  -4  17   42.29   11.78   0
   8  -4 -17   56.58   13.58   0
  -6   4  17   40.77   13.01   0
   6   4 -17   52.49   17.51   0
   6  -4 -17   38.43   12.87   0
  -6  -4  17   76.01   10.75   0
   4  -4 -17   85.46   13.54   0
  -4   4  17  118.13   13.13   0
   4   4 -17  138.02   16.23   0
  -4  -4  17  131.36   10.82   0
  -2   4  17   63.42   13.35   0
   2  -4 -17   65.21   12.97   0
   2   4 -17   55.63   16.57   0
  -2  -4  17   70.93    9.84   0
   0   4  17   74.15   13.62   0
   0  -4 -17   44.20   13.24   0
   0  -4  17   97.32   11.57   0
  29  -5 -17  124.70   12.14   0
  27  -5 -17  248.54   12.42   0
  25  -5 -17  257.14   12.81   0
  23  -5 -17  404.18   14.00   0
  21  -5 -17  441.17   14.66   0
  19  -5 -17  614.87   14.11   0
  17  -5 -17  593.19   13.84   0
  15  -5 -17  554.98   13.33   0
 -15   5  17  564.35   13.12   0
 -13  -5  17  542.05   36.37   0
  13  -5 -17  605.06   13.52   0
 -13   5  17  573.96   13.33   0
 -11   5  17  437.98   13.38   0
 -11  -5  17  487.25   18.59   0
  11  -5 -17  464.49   13.22   0
  -9   5  17  388.33   13.14   0
  -9  -5  17  450.61   14.50   0
   9  -5 -17  389.16   13.16   0
  -7   5  17  290.91   13.60   0
  -7  -5  17  388.29   13.41   0
   7  -5 -17  288.78   13.65   0
   5  -5 -17  203.96   14.72   0
  -5   5  17  214.36   14.03   0
  -5  -5  17  275.50   13.21   0
  -3   5  17  176.03   15.07   0
   3  -5 -17  152.97   15.14   0
  -3  -5  17  235.80   11.51   0
  26  -6 -17   54.37   12.38   0
  24  -6 -17   45.09   12.97   0
  22  -6 -17   45.22   13.49   0
  20  -6 -17   29.28   11.90   0
  18  -6 -17   14.39   11.82   0
  16  -6 -17   21.57   11.56   0
  14  -6 -17  -10.33   13.44   0
 -14   6  17   12.00   12.06   0
  12  -6 -17   -0.34   11.57   0
 -12   6  17   -3.21   11.60   0
 -10  -6  17   18.08   15.54   0
  10  -6 -17   35.22   12.21   0
 -10   6  17    3.01   12.30   0
  -8   6  17   38.69   12.61   0
   8  -6 -17   18.27   12.92   0
  -8  -6  17   29.66   13.62   0
  -6   6  17   32.39   13.06   0
  -6  -6  17   42.58   12.52   0
   6  -6 -17   37.07   13.59   0
  -4  -6  17   51.04   11.57   0
  23  -7 -17  101.46   15.09   0
  21  -7 -17  164.35   14.20   0
  19  -7 -17  194.48   13.90   0
  17  -7 -17  220.77   13.40   0
  15  -7 -17  217.37   13.51   0
  13  -7 -17  212.17   13.26   0
 -13   7  17  240.07   14.01   0
  11  -7 -17  165.71   13.92   0
 -11   7  17  182.93   11.35   0
   9  -7 -17  122.79   14.23   0
  -9  -7  17  153.07   18.11   0
  -9  -7  17  122.83   22.47   0
  -9   7  17  127.56   14.05   0
  34   0 -18  192.15   14.88   0
  34   0 -18  225.64   13.18   0
  32   0 -18  268.21   16.40   0
  32   0 -18  325.56   13.35   0
  30   0 -18  225.27   14.82   0
  30   0 -18  273.23   12.74   0
  28   0 -18  301.47   13.19   0
  28   0 -18  265.11   14.72   0
  26   0 -18  321.48   13.84   0
  24   0 -18  320.63   15.24   0
  22   0 -18  403.85   14.85   0
  20   0 -18  115.24   12.97   0
  18   0 -18  200.41   12.97   0
 -18   0  18  201.94   13.12   0
 -16   0  18  172.91   12.96   0
  16   0 -18  206.22   13.12   0
 -14   0  18   55.90   12.86   0
  14   0 -18   56.26   13.30   0
  12   0 -18   20.45   14.27   0
 -12   0  18   20.13   13.06   0
  10   0 -18   -7.20   12.93   0
 -10   0  18    3.85   10.61   0
  -8   0  18    2.38   11.42   0
   8   0 -18   23.77   13.31   0
  -6   0  18  106.76   12.01   0
   6   0 -18   83.55   12.49   0
  -4   0  18   31.82   10.29   0
   4   0 -18   41.55   13.84   0
   2   0 -18   16.47   12.14   0
  -2   0  18   16.29   10.27   0
   0   0 -18   48.37   12.74   0
   0   0  18   60.52   10.73   0
  35  -1 -18   34.64   15.69   0
  35   1 -18   31.08   12.91   0
  35  -1 -18   27.96   10.81   0
  35   1 -18   17.03   20.70   0
  33   1 -18   63.21   18.78   0
  33  -1 -18   66.50   12.64   0
  33   1 -18   86.87   12.28   0
  33  -1 -18   62.85   10.74   0
  31  -1 -18  148.63   14.53   0
  31   1 -18  138.41   17.80   0
  31  -1 -18  160.61   12.29   0
  31   1 -18  154.73   12.77   0
  29   1 -18  226.15   15.35   0
  29   1 -18  271.15   14.90   0
  29  -1 -18  273.30   12.80   0
  27  -1 -18  285.14   11.77   0
  27   1 -18  264.18   15.97   0
  27   1 -18  259.46   15.51   0
  25  -1 -18  316.19   13.74   0
  25   1 -18  300.58   17.56   0
  23  -1 -18  650.01   14.73   0
  23   1 -18  696.24   18.24   0
  21  -1 -18  671.85   15.47   0
  21   1 -18  744.62   18.47   0
  19  -1 -18  869.85   15.79   0
  19   1 -18  948.89   17.86   0
 -19   1  18  913.94   15.58   0
  17  -1 -18 1042.26   14.50   0
  17   1 -18 1103.42   19.47   0
 -17   1  18 1007.25   14.43   0
 -17  -1  18  966.83   18.26   0
 -15   1  18 1254.02   17.00   0
  15   1 -18 1299.81   20.47   0
 -15  -1  18 1309.52   19.88   0
  15  -1 -18 1293.02   15.42   0
 -13   1  18 1046.33   15.47   0
 -13  -1  18  940.40   18.44   0
  13   1 -18 1048.56   21.10   0
  13  -1 -18 1133.00   15.05   0
  11  -1 -18 1111.08   15.53   0
 -11   1  18  989.90   15.85   0
 -11  -1  18 1107.35   16.61   0
  11   1 -18 1040.59   19.43   0
   9  -1 -18 1210.96   17.27   0
  -9   1  18 1072.47   15.31   0
  -9  -1  18 1220.63   16.24   0
   9   1 -18 1118.45   19.39   0
   7  -1 -18  950.71   16.59   0
  -7   1  18  932.79   14.64   0
  -7  -1  18 1085.03   13.88   0
   7   1 -18  917.87   16.63   0
   5   1 -18  544.00   16.02   0
  -5   1  18  608.98   14.49   0
   5  -1 -18  580.21   14.92   0
  -5  -1  18  693.32   12.65   0
   3   1 -18  470.68   14.68   0
  -3   1  18  511.63   12.84   0
  -3  -1  18  514.61   11.87   0
   3  -1 -18  387.71   14.19   0
   1   1 -18  264.71   13.66   0
  -1   1  18  324.06   12.15   0
  -1  -1  18  370.72   11.21   0
   1  -1 -18  254.72   14.35   0
  -1  -1 -18  103.49   13.87   0
   1   1  18  225.30   12.39   0
   1  -1  18  248.44   12.83   0
  -1   1 -18  209.86   15.77   0
  34  -2 -18   73.71   13.77   0
  34   2 -18   94.79   24.69   0
  34  -2 -18  129.53   11.32   0
  34   2 -18  140.30   14.77   0
  32  -2 -18  168.47   14.84   0
  32   2 -18  157.58   25.39   0
  32  -2 -18  211.91   12.72   0
  32   2 -18  197.99   16.55   0
  30   2 -18  250.29   16.74   0
  30   2 -18  172.50   22.47   0
  30  -2 -18  250.46   12.97   0
  28  -2 -18  240.97   11.33   0
  28   2 -18  228.94   17.48   0
  28   2 -18  205.24   22.34   0
  26  -2 -18  291.58   13.38   0
  26   2 -18  280.25   21.18   0
  26   2 -18  244.55   20.81   0
  24   2 -18  340.79   20.52   0
  24  -2 -18  376.34   12.90   0
  24   2 -18  402.41   20.26   0
  22  -2 -18   73.76   12.56   0
  22   2 -18   98.77   16.68   0
  20   2 -18  261.81   20.36   0
  20  -2 -18  244.67   13.52   0
  18   2 -18  156.32   22.45   0
  18  -2 -18  144.13   12.98   0
 -18   2  18  158.43   11.21   0
 -16  -2  18  147.15   14.92   0
  16   2 -18  141.49   22.56   0
  16  -2 -18  155.21   10.94   0
 -16   2  18  141.88   11.24   0
 -14   2  18   41.28   11.10   0
 -14  -2  18   49.03   16.01   0
  14   2 -18   48.53   18.41   0
  14  -2 -18   47.81   10.93   0
 -12   2  18   47.55   11.44   0
 -12  -2  18   29.34   12.61   0
  12  -2 -18   37.58   12.73   0
  12   2 -18   37.86   16.36   0
  10   2 -18    0.95   14.09   0
 -10   2  18   28.18   12.38   0
 -10  -2  18    5.86   11.05   0
  10  -2 -18    5.33   11.68   0
   8  -2 -18    7.51   12.47   0
   8   2 -18   17.65   14.49   0
  -8   2  18   23.80   11.73   0
  -8  -2  18    7.11    9.61   0
   6  -2 -18   15.09   13.22   0
  -6   2  18   15.35   11.28   0
   6   2 -18    0.30   11.91   0
  -6  -2  18    4.86   10.94   0
  -4   2  18   54.53   11.58   0
   4  -2 -18   25.43   13.07   0
   4   2 -18   44.29   12.40   0
  -4  -2  18   35.59    9.48   0
  -2   2  18   27.95   11.59   0
   2  -2 -18   17.65   12.72   0
  -2  -2  18   19.96   11.34   0
   2   2 -18   25.66   12.83   0
   0   2 -18   23.27   12.87   0
   0   2  18   51.03   12.01   0
   0  -2  18   36.23   11.53   0
   0  -2 -18   27.24   13.12   0
  33   3 -18   19.19   18.65   0
  33   3 -18   24.79   24.79   0
  33  -3 -18   18.38   12.79   0
  33  -3 -18    3.83   11.13   0
  31   3 -18   57.43   19.95   0
  31   3 -18   42.51   25.81   0
  31  -3 -18   60.16   12.69   0
  29  -3 -18   80.31   12.56   0
  29   3 -18   69.32   30.24   0
  29   3 -18   87.39   26.04   0
  27  -3 -18  161.53   11.18   0
  25  -3 -18  127.05   13.06   0
  23  -3 -18   50.90   12.08   0
  21  -3 -18  111.33   12.26   0
  19  -3 -18  228.86   12.27   0
  17  -3 -18  289.54   12.17   0
 -17   3  18  302.89   11.97   0
  17   3 -18  267.89   26.66   0
 -15  -3  18  337.93   19.70   0
  15  -3 -18  338.94   12.37   0
  15   3 -18  303.61   23.52   0
 -15   3  18  335.64   12.33   0
 -13   3  18  267.98   12.51   0
 -13  -3  18  279.67   17.95   0
  13   3 -18  274.40   19.13   0
  13  -3 -18  276.12   11.77   0
 -11   3  18  210.27   12.71   0
 -11  -3  18  225.01   13.77   0
  11   3 -18  211.14   18.68   0
  11  -3 -18  246.96   12.22   0
  -9   3  18  240.92   13.92   0
  -9  -3  18  280.37   13.66   0
   9  -3 -18  270.52   12.68   0
   9   3 -18  259.34   18.03   0
   7   3 -18  276.57   16.33   0
   7  -3 -18  257.75   13.73   0
  -7   3  18  245.26   13.70   0
  -7  -3  18  267.46   11.78   0
   5  -3 -18  224.99   14.40   0
   5   3 -18  281.15   16.43   0
  -5   3  18  242.07   13.13   0
  -5  -3  18  286.78   11.90   0
  -3   3  18  151.17   12.87   0
   3  -3 -18   99.88   13.58   0
   3   3 -18  117.70   13.84   0
  -3  -3  18  175.91   10.02   0
  -1   3  18   89.13   12.65   0
   1  -3 -18   80.53   13.55   0
  -1  -3  18  124.58   10.71   0
   1   3 -18   92.26   14.20   0
  32  -4 -18   13.41   11.45   0
  30  -4 -18   10.50   10.92   0
  28  -4 -18   55.72   11.25   0
  26  -4 -18   37.74   11.66   0
  24  -4 -18   25.76   12.03   0
  22  -4 -18   29.72   12.67   0
  20  -4 -18   16.89   11.71   0
  18  -4 -18   19.55   11.34   0
 -18   4  18   22.91   11.18   0
  16  -4 -18   21.67   10.88   0
 -16   4  18   -5.73   11.09   0
 -14  -4  18   29.72   20.39   0
  14  -4 -18   25.84   11.05   0
 -14   4  18   11.32   10.82   0
 -12   4  18   17.17   11.04   0
 -12  -4  18    0.34   15.47   0
  12  -4 -18   -9.67   10.60   0
 -10   4  18    1.89   11.52   0
  10   4 -18   11.00   17.80   0
 -10  -4  18   -0.61   12.47   0
  10  -4 -18   -4.30   11.33   0
  -8   4  18   10.28   12.09   0
   8   4 -18   12.06   16.36   0
  -8  -4  18   -0.18   10.92   0
   8  -4 -18   23.98   11.71   0
   6  -4 -18    3.83   12.19   0
  -6   4  18   11.80   13.20   0
   6   4 -18    2.18   16.98   0
  -6  -4  18    6.50   10.54   0
  -4   4  18   10.19   13.28   0
   4  -4 -18   -6.96   13.53   0
   4   4 -18  -14.29   16.50   0
  -4  -4  18   11.21    9.45   0
   2   4 -18   26.90   17.21   0
  -2   4  18   18.36   13.32   0
   2  -4 -18   -0.83   13.28   0
  -2  -4  18   12.34   10.94   0
  29  -5 -18    7.32   12.03   0
  27  -5 -18   12.79   12.20   0
  25  -5 -18    9.12   12.43   0
  23  -5 -18    6.78   12.76   0
  21  -5 -18   22.81   12.40   0
  19  -5 -18    0.96   11.66   0
  17  -5 -18   18.93   11.47   0
 -17   5  18   22.95   11.41   0
  15  -5 -18   -9.62   11.31   0
 -15   5  18    2.31   11.38   0
 -13  -5  18   16.10   23.20   0
  13  -5 -18   22.69   10.95   0
 -13   5  18    3.32   11.25   0
 -11   5  18   29.11   11.38   0
 -11  -5  18   19.41   15.91   0
  11  -5 -18   17.04    9.36   0
  -9   5  18   11.25   11.63   0
  -9  -5  18    8.40   12.42   0
   9  -5 -18    1.08   11.55   0
  -7   5  18    2.22   12.68   0
  -7  -5  18   13.66   11.13   0
   7  -5 -18   12.83   12.41   0
   5  -5 -18   -3.22   13.32   0
  -5   5  18    1.45   13.29   0
  -5  -5  18   12.17   11.28   0
  26  -6 -18   18.73   13.06   0
  24  -6 -18   12.66   13.65   0
  22  -6 -18    3.76   13.00   0
  20  -6 -18   28.53   12.31   0
  18  -6 -18   25.35   11.68   0
  16  -6 -18    0.58   11.43   0
 -16   6  18   -3.86   11.74   0
  14  -6 -18   -6.67   11.34   0
 -14   6  18   12.28   11.82   0
 -12  -6  18    7.03   25.32   0
  12  -6 -18   -0.45   11.54   0
 -12   6  18  -12.01   12.08   0
 -10  -6  18    8.25   15.94   0
  10  -6 -18    3.21   12.13   0
 -10   6  18    1.60   12.33   0
  -8   6  18   -2.71   12.63   0
  -8  -6  18   16.41   14.20   0
   8  -6 -18   17.83   12.69   0
  -6  -6  18   11.60   13.10   0
  21  -7 -18   47.23   13.36   0
  19  -7 -18   48.55   12.60   0
  17  -7 -18   70.19   12.42   0
  15  -7 -18   69.60   12.44   0
  13  -7 -18   30.25   12.61   0
 -13   7  18   34.43   13.42   0
  35  -1 -19   10.17   15.98   0
  35   1 -19   -6.33   18.39   0
  35  -1 -19    3.47   12.32   0
  35   1 -19   -1.14   13.98   0
  33   1 -19    2.92   19.10   0
  33  -1 -19   25.64   14.59   0
  33  -1 -19    0.61   12.10   0
  33   1 -19    8.72   14.03   0
  31  -1 -19    0.44   11.84   0
  31   1 -19    1.12   13.83   0
  31  -1 -19   16.34   13.88   0
  31   1 -19    2.32   17.23   0
  29  -1 -19   17.03   12.09   0
  29   1 -19   12.29   14.37   0
  29   1 -19   17.20   16.25   0
  27   1 -19   21.43   15.59   0
  27  -1 -19   13.98   12.56   0
  27   1 -19   17.87   15.75   0
  25  -1 -19    7.56   14.10   0
  25   1 -19   10.19   14.84   0
  23  -1 -19    6.96   11.24   0
  23   1 -19    8.93   14.16   0
  21  -1 -19  132.71   13.13   0
  21   1 -19  160.45   14.46   0
  19  -1 -19   99.56   12.48   0
  19   1 -19   82.79   14.79   0
 -19  -1  19   85.33   14.15   0
 -19   1  19   93.59   12.57   0
 -17  -1  19   90.85   13.88   0
  17   1 -19  111.57   15.11   0
  17  -1 -19  105.96   10.89   0
 -17   1  19   82.38   11.02   0
 -15   1  19   77.23   11.30   0
 -15  -1  19   86.27   13.23   0
  15   1 -19   90.70   15.98   0
  15  -1 -19   94.68   12.50   0
 -13   1  19   56.78   13.33   0
 -13  -1  19   53.89   13.14   0
  13   1 -19   35.99   15.92   0
  13  -1 -19   38.71   11.01   0
  11  -1 -19   81.20   11.88   0
 -11   1  19   71.45   11.30   0
 -11  -1  19   77.40   10.97   0
  11   1 -19   70.35   16.17   0
   9  -1 -19   74.54   12.79   0
  -9   1  19   57.09   11.15   0
  -9  -1  19   86.61   10.64   0
   9   1 -19   62.21   16.03   0
  -7   1  19  130.74   10.86   0
   7  -1 -19  117.80   13.79   0
  -7  -1  19  129.33   10.83   0
   7   1 -19  105.35   14.08   0
   5   1 -19   46.61   13.01   0
  -5   1  19   78.35   10.94   0
  -5  -1  19   85.13   10.06   0
   5  -1 -19   49.62   13.22   0
   3   1 -19   53.58   12.56   0
  -3   1  19   41.01   11.06   0
  -3  -1  19   27.67   10.04   0
   3  -1 -19   25.68   12.93   0
   1   1 -19   15.30   13.49   0
  -1   1  19   26.04   11.57   0
  -1  -1  19   19.18   10.48   0
   1  -1 -19   11.35   13.37   0
  34   2 -19   61.36   16.38   0
  34   2 -19   46.15   22.81   0
  34  -2 -19   37.06   13.55   0
  34  -2 -19   57.23   11.09   0
  32   2 -19   81.67   16.62   0
  32   2 -19   65.96   25.17   0
  32  -2 -19   67.09   12.86   0
  32  -2 -19   95.05   12.88   0
  30  -2 -19  141.87   11.23   0
  30   2 -19  110.19   22.68   0
  30   2 -19  141.10   17.63   0
  28  -2 -19  156.95   11.79   0
  28   2 -19  157.72   19.92   0
  28   2 -19  143.13   22.80   0
  26  -2 -19  100.31   13.83   0
  26   2 -19   90.06   20.47   0
  26   2 -19  110.40   17.60   0
  24  -2 -19   68.37   12.30   0
  24   2 -19   65.02   17.15   0
  22  -2 -19   82.32   11.38   0
  22   2 -19   89.44   18.30   0
  20   2 -19  204.13   21.43   0
  20  -2 -19  177.32   13.02   0
  18   2 -19  112.99   20.94   0
  18  -2 -19  112.32   12.09   0
 -18   2  19  100.49   10.57   0
 -18  -2  19  113.34   15.33   0
 -16   2  19   93.33   10.65   0
 -16  -2  19   89.24   15.16   0
  16   2 -19   73.11   22.85   0
  16  -2 -19   97.42   10.41   0
 -14   2  19   66.95   11.20   0
 -14  -2  19   67.86   16.57   0
  14   2 -19   69.21   17.30   0
  14  -2 -19   78.30   10.43   0
 -12   2  19   23.83   11.71   0
 -12  -2  19   14.51   12.64   0
  12   2 -19   18.60   16.12   0
  12  -2 -19   22.29   11.52   0
  10  -2 -19   12.61   11.80   0
  10   2 -19   29.36   14.85   0
 -10   2  19    5.91   12.49   0
 -10  -2  19   -1.41   11.38   0
   8  -2 -19  -23.40   12.89   0
   8   2 -19    8.52   12.87   0
  -8   2  19   13.60   11.81   0
  -8  -2  19    3.21   11.31   0
  -6   2  19    3.71   11.87   0
   6  -2 -19   18.93   15.33   0
   6   2 -19   31.58   12.94   0
  -6  -2  19   19.52    9.96   0
  -4   2  19    3.20   11.92   0
   4  -2 -19    3.47   13.44   0
  -4  -2  19   -0.49    9.89   0
   4   2 -19    3.74   15.26   0
  -2   2  19   -5.25   12.14   0
   2  -2 -19   23.28   13.40   0
  -2  -2  19   16.04   12.04   0
   2   2 -19   18.84   15.74   0
  33   3 -19   12.79   20.74   0
  33   3 -19   11.23   25.23   0
  33  -3 -19   12.48   13.35   0
  33  -3 -19    5.54   12.92   0
  31  -3 -19   26.18   10.93   0
  31   3 -19   14.98   28.21   0
  31   3 -19   24.49   26.05   0
  29  -3 -19   45.57   12.96   0
  29   3 -19   37.41   31.27   0
  27  -3 -19   62.76   13.23   0
  25  -3 -19   52.86   11.91   0
  23  -3 -19  143.03   12.37   0
  21  -3 -19  147.64   11.66   0
  19   3 -19  339.17   35.70   0
  19  -3 -19  392.04   12.17   0
 -19   3  19  391.96   12.50   0
  17  -3 -19  316.00   12.00   0
  17   3 -19  281.79   26.32   0
 -17   3  19  297.65   11.90   0
 -17  -3  19  296.95   19.63   0
 -15   3  19  281.82   13.87   0
 -15  -3  19  267.31   18.16   0
  15  -3 -19  321.25   13.46   0
  15   3 -19  248.69   24.12   0
 -13   3  19  387.74   13.19   0
 -13  -3  19  411.27   16.88   0
  13   3 -19  398.19   21.34   0
  13  -3 -19  478.78   12.66   0
 -11   3  19  429.19   13.04   0
 -11  -3  19  446.54   15.29   0
  11   3 -19  425.03   18.79   0
  11  -3 -19  451.18   12.63   0
   9  -3 -19  318.05   13.10   0
  -9   3  19  303.98   14.20   0
  -9  -3  19  351.74   12.98   0
   9   3 -19  297.74   17.75   0
   7  -3 -19  303.88   13.62   0
   7   3 -19  331.44   17.71   0
  -7   3  19  286.56   13.93   0
  -7  -3  19  365.58   12.51   0
  -5   3  19  256.00   13.51   0
   5  -3 -19  261.13   14.68   0
   5   3 -19  229.42   17.69   0
  -5  -3  19  285.01   12.39   0
  -3   3  19  135.17   13.31   0
   3  -3 -19  126.66   14.39   0
   3   3 -19  169.06   17.62   0
  -3  -3  19  196.76   10.98   0
  32  -4 -19  139.01   12.66   0
  30  -4 -19  226.37   14.29   0
  28  -4 -19  276.91   12.84   0
  26  -4 -19  275.03   13.02   0
  24  -4 -19  341.88   13.68   0
  22  -4 -19  389.72   13.40   0
  20  -4 -19  260.64   12.22   0
  18  -4 -19  247.17   11.93   0
 -18   4  19  244.57   11.47   0
 -16  -4  19  244.31   25.56   0
  16  -4 -19  224.70   11.37   0
 -16   4  19  234.02   11.62   0
 -14   4  19  144.05   11.59   0
 -14  -4  19  132.91   19.87   0
  14  -4 -19  162.49   11.45   0
 -12   4  19   96.63   11.73   0
  12   4 -19  102.51   21.75   0
 -12  -4  19  112.37   14.47   0
  12  -4 -19  109.41   11.57   0
 -10   4  19   48.36   12.02   0
  10   4 -19   45.05   20.14   0
 -10  -4  19   42.34   13.06   0
  10  -4 -19   37.08   11.46   0
   8  -4 -19   33.42   12.04   0
  -8   4  19    1.21   12.49   0
   8   4 -19   41.09   21.05   0
  -8  -4  19   30.22   11.32   0
   6  -4 -19   -0.87   12.97   0
  -6   4  19   -5.78   13.65   0
   6   4 -19    4.91   18.30   0
  -6  -4  19   -2.07   11.64   0
  -4   4  19  -11.58   13.93   0
   4  -4 -19   17.67   13.99   0
   4   4 -19   13.45   18.36   0
  -4  -4  19    1.78   11.25   0
  29  -5 -19   65.91   12.64   0
  27  -5 -19   63.80   12.75   0
  25  -5 -19   93.44   13.54   0
  23  -5 -19  140.10   13.32   0
  21  -5 -19  189.91   12.39   0
  19  -5 -19  224.21   12.15   0
  17  -5 -19  308.22   12.26   0
 -17   5  19  273.67   12.51   0
  15  -5 -19  385.26   12.55   0
 -15   5  19  374.37   12.73   0
 -13  -5  19  379.37   24.23   0
  13  -5 -19  419.05   12.31   0
 -13   5  19  362.38   12.63   0
 -11   5  19  380.51   12.72   0
 -11  -5  19  429.05   17.68   0
  11  -5 -19  368.69   12.71   0
  -9   5  19  281.83   13.30   0
  -9  -5  19  354.80   15.16   0
   9  -5 -19  280.57   13.09   0
   7  -5 -19  207.74   13.51   0
  -7   5  19  191.20   13.45   0
  -7  -5  19  224.31   14.28   0
  26  -6 -19  131.82   14.68   0
  24  -6 -19  151.59   13.84   0
  22  -6 -19  170.54   12.92   0
  20  -6 -19  131.32   12.71   0
  18  -6 -19  115.92   12.31   0
  16  -6 -19   80.67   11.82   0
 -16   6  19   64.83   12.10   0
  14  -6 -19   59.06   11.70   0
 -14   6  19   81.65   11.89   0
 -12  -6  19   35.30   22.22   0
  12  -6 -19   26.61   11.76   0
 -12   6  19   48.95   11.82   0
 -10   6  19   15.02   12.27   0
 -10  -6  19   22.57   17.14   0
  10  -6 -19   31.88   12.30   0
  19  -7 -19   80.27   12.81   0
  17  -7 -19  109.46   12.83   0
  34   0 -20  251.04   14.12   0
  34   0 -20  199.01   17.90   0
  32   0 -20  309.24   14.36   0
  32   0 -20  286.55   16.70   0
  30   0 -20  428.84   18.16   0
  30   0 -20  419.78   16.65   0
  28   0 -20  503.15   16.21   0
  26   0 -20  580.99   16.26   0
  24   0 -20  929.72   16.88   0
  22   0 -20  418.76   13.77   0
  20   0 -20  704.76   14.02   0
 -20   0  20  746.39   14.33   0
  18   0 -20  645.77   13.88   0
 -18   0  20  611.00   14.62   0
 -16   0  20  537.76   13.80   0
  16   0 -20  556.87   13.33   0
  14   0 -20  231.04   14.28   0
 -14   0  20  213.68   14.89   0
 -12   0  20  276.56   12.74   0
  12   0 -20  333.18   15.50   0
 -10   0  20  150.52   11.39   0
  10   0 -20  165.61   14.65   0
  -8   0  20   34.82   12.77   0
   8   0 -20   43.64   16.29   0
  -6   0  20   46.41   12.51   0
   6   0 -20   35.09   13.63   0
  -4   0  20   41.40   11.02   0
   4   0 -20   26.97   13.82   0
   2   0 -20   16.98   13.99   0
  -2   0  20   10.09   11.39   0
  35   1 -20   13.14   14.65   0
  35   1 -20    8.64   20.86   0
  35  -1 -20   30.46   15.89   0
  35  -1 -20    7.00   13.21   0
  33  -1 -20   12.36   12.46   0
  33   1 -20    1.86   14.74   0
  33  -1 -20  -10.97   14.64   0
  33   1 -20    1.86   18.91   0
  31  -1 -20   21.57   12.55   0
  31   1 -20    6.23   14.87   0
  31   1 -20    8.31   18.28   0
  29  -1 -20   15.37   12.89   0
  29   1 -20   10.49   16.19   0
  29   1 -20   -9.38   17.48   0
  27  -1 -20   14.52   12.04   0
  27   1 -20   24.26   14.93   0
  25  -1 -20   99.40   12.11   0
  25   1 -20  116.36   14.69   0
  23  -1 -20  253.06   13.64   0
  23   1 -20  267.85   14.93   0
  21  -1 -20  166.21   12.94   0
  21   1 -20  195.65   14.65   0
  19  -1 -20  343.28   11.28   0
 -19   1  20  360.99   13.26   0
 -19  -1  20  362.30   15.44   0
  19   1 -20  356.39   15.87   0
 -17   1  20  404.74   12.25   0
 -17  -1  20  409.90   16.61   0
  17   1 -20  434.42   16.01   0
  17  -1 -20  418.80   13.25   0
 -15   1  20  555.13   14.72   0
 -15  -1  20  504.23   15.91   0
  15   1 -20  562.72   16.50   0
  15  -1 -20  605.99   14.65   0
  13  -1 -20  457.19   12.90   0
 -13   1  20  446.49   15.61   0
 -13  -1  20  389.29   14.93   0
  13   1 -20  470.71   17.11   0
  11  -1 -20  459.42   14.88   0
 -11   1  20  411.70   13.98   0
 -11  -1  20  440.14   12.98   0
  11   1 -20  427.71   18.03   0
  -9   1  20  385.52   13.17   0
   9  -1 -20  402.26   14.21   0
  -9  -1  20  436.14   13.83   0
   9   1 -20  393.71   17.94   0
   7   1 -20  237.19   15.30   0
  -7   1  20  285.70   12.77   0
   7  -1 -20  261.81   14.90   0
  -7  -1  20  319.69   11.65   0
   5   1 -20  262.06   17.23   0
  -5   1  20  268.28   12.66   0
  -5  -1  20  294.29   11.84   0
   5  -1 -20  219.11   15.10   0
   3   1 -20  199.64   15.15   0
  -3   1  20  269.04   12.61   0
  -3  -1  20  259.16   11.84   0
   3  -1 -20  186.40   14.85   0
  34  -2 -20  170.92   13.76   0
  34   2 -20  174.14   18.37   0
  34  -2 -20  121.18   14.39   0
  34   2 -20  118.22   24.35   0
  32  -2 -20  303.16   14.15   0
  32   2 -20  240.44   19.62   0
  32   2 -20  220.57   25.66   0
  30  -2 -20  255.38   12.78   0
  30   2 -20  298.72   20.82   0
  30   2 -20  267.94   26.21   0
  28  -2 -20  389.28   14.63   0
  28   2 -20  422.72   21.24   0
  28   2 -20  366.29   26.63   0
  26  -2 -20  475.79   15.84   0
  26   2 -20  450.81   24.78   0
  26   2 -20  553.68   20.10   0
  24  -2 -20  405.88   13.29   0
  24   2 -20  462.37   20.43   0
  22   2 -20  720.83   21.23   0
  22  -2 -20  653.51   13.41   0
  20   2 -20  600.44   21.93   0
  20  -2 -20  582.98   14.04   0
 -20   2  20  616.17   12.84   0
  18   2 -20  511.04   20.79   0
  18  -2 -20  533.79   12.02   0
 -18   2  20  481.62   13.98   0
 -18  -2  20  510.15   16.88   0
 -16   2  20  291.18   11.87   0
 -16  -2  20  310.23   16.41   0
  16   2 -20  304.55   22.00   0
  16  -2 -20  295.03   12.72   0
 -14   2  20  282.12   12.05   0
 -14  -2  20  238.44   15.93   0
  14   2 -20  253.84   19.70   0
  14  -2 -20  285.82   11.78   0
 -12   2  20  169.88   14.18   0
 -12  -2  20  166.33   13.10   0
  12  -2 -20  186.76   11.39   0
  12   2 -20  192.57   17.84   0
  10   2 -20  144.47   16.79   0
  10  -2 -20  171.27   13.51   0
 -10   2  20  138.76   13.08   0
 -10  -2  20  173.85   12.66   0
   8  -2 -20   81.94   12.74   0
  -8   2  20   94.11   14.48   0
   8   2 -20  121.78   16.22   0
  -8  -2  20  119.25   12.02   0
  -6   2  20   32.80   12.24   0
   6  -2 -20   25.62   13.65   0
   6   2 -20   40.77   16.86   0
  -6  -2  20   55.32   11.88   0
  -4   2  20   24.86   12.16   0
   4  -2 -20   26.80   14.27   0
  -4  -2  20   30.49   12.38   0
   4   2 -20   12.31   16.86   0
  33  -3 -20    1.56   11.42   0
  33   3 -20    6.20   27.58   0
  33   3 -20    3.21   24.73   0
  31  -3 -20   15.03   11.29   0
  31   3 -20    6.06   30.12   0
  29  -3 -20   17.55   11.50   0
  27  -3 -20   16.20   12.67   0
  25  -3 -20   24.95   14.01   0
  23  -3 -20  113.19   12.02   0
  21  -3 -20  211.81   12.92   0
  19  -3 -20  134.40   11.08   0
  19   3 -20  126.03   31.76   0
 -19   3  20  154.02   11.12   0
 -17  -3  20  184.93   17.84   0
  17  -3 -20  181.77   11.34   0
  17   3 -20  175.68   27.47   0
 -17   3  20  170.11   11.37   0
 -15   3  20  148.77   11.74   0
 -15  -3  20  151.75   17.30   0
  15   3 -20  149.52   23.90   0
  15  -3 -20  161.73   11.17   0
 -13   3  20  152.67   12.26   0
 -13  -3  20  156.30   15.30   0
  13   3 -20  162.52   21.47   0
  13  -3 -20  191.24   11.52   0
 -11   3  20  180.81   12.75   0
 -11  -3  20  196.09   13.34   0
  11   3 -20  174.00   20.37   0
  11  -3 -20  182.94   12.13   0
   9   3 -20  125.15   18.06   0
   9  -3 -20  138.80   12.72   0
  -9   3  20  141.74   13.78   0
  -9  -3  20  149.86   12.61   0
   7   3 -20  134.78   15.97   0
  -7   3  20  126.39   13.79   0
   7  -3 -20  116.41   13.24   0
  -7  -3  20  123.22   10.84   0
  -5   3  20   63.57   13.14   0
   5  -3 -20   81.09   14.49   0
   5   3 -20   71.66   18.22   0
  -5  -3  20   66.60   12.02   0
  32  -4 -20   42.82   12.23   0
  30  -4 -20   86.51   12.73   0
  28  -4 -20   38.02   14.13   0
  26  -4 -20   29.24   12.80   0
  24  -4 -20   67.24   12.03   0
  22  -4 -20   63.63   12.04   0
  20  -4 -20  154.71   11.91   0
  18  -4 -20   48.41   11.15   0
 -18   4  20   73.10   11.14   0
 -16  -4  20   50.90   20.11   0
  16  -4 -20   56.38   10.77   0
 -16   4  20   59.67   11.26   0
 -14   4  20   15.23   11.34   0
 -14  -4  20   13.95   17.43   0
  14   4 -20   27.13   21.99   0
  14  -4 -20   29.96   11.20   0
 -12   4  20   28.58   11.48   0
  12   4 -20   11.40   21.72   0
 -12  -4  20   27.63   15.86   0
  12  -4 -20   21.62   11.11   0
 -10   4  20   33.05   13.89   0
 -10  -4  20   25.86   13.82   0
  10   4 -20   19.23   20.91   0
  10  -4 -20   34.97   11.55   0
   8  -4 -20   18.10   12.29   0
  -8   4  20   29.09   13.37   0
   8   4 -20   17.77   22.72   0
  -8  -4  20   23.46   12.07   0
  -6   4  20   17.03   14.20   0
   6  -4 -20   30.23   12.98   0
   6   4 -20   44.90   20.55   0
  -6  -4  20    9.70   12.05   0
  29  -5 -20    8.05   13.08   0
  27  -5 -20    4.51   13.51   0
  25  -5 -20   -0.32   13.34   0
  23  -5 -20   16.90   11.94   0
  21  -5 -20   16.29   12.07   0
  19  -5 -20   19.20   11.09   0
  17  -5 -20   16.94   11.06   0
 -17   5  20   -0.46   11.48   0
 -15  -5  20    4.11   28.26   0
  15  -5 -20    7.39   10.80   0
 -15   5  20   17.34   11.18   0
 -13  -5  20   16.13   20.22   0
  13  -5 -20    8.51   11.12   0
 -13   5  20  -16.25    9.62   0
 -11   5  20   -0.03   11.96   0
 -11  -5  20   17.18   15.53   0
  11  -5 -20   15.68   11.93   0
  -9   5  20   -0.41   12.27   0
  -9  -5  20    3.16   13.73   0
   9  -5 -20    8.37   12.06   0
  26  -6 -20   30.75   14.17   0
  24  -6 -20    7.31   12.90   0
  22  -6 -20   11.63   12.47   0
  20  -6 -20   35.09   11.80   0
  18  -6 -20   14.92   11.02   0
  16  -6 -20   13.18   11.51   0
 -16   6  20   17.42   11.81   0
  14  -6 -20   -6.89   11.46   0
 -14   6  20   12.94    9.49   0
 -12  -6  20   10.71   21.83   0
  12  -6 -20   25.17   11.80   0
 -12   6  20   30.63   12.16   0
  35  -1 -21    3.99   11.81   0
  35   1 -21    8.45   15.62   0
  35   1 -21   19.12   19.24   0
  35  -1 -21   19.00   15.54   0
  33  -1 -21   13.41   13.44   0
  33   1 -21   16.13   13.98   0
  33  -1 -21    0.26   14.20   0
  33   1 -21   12.76   18.55   0
  31  -1 -21   -0.50   13.32   0
  31   1 -21   -2.30   16.22   0
  31   1 -21    8.61   17.26   0
  29  -1 -21   14.58   12.16   0
  29   1 -21    5.59   15.42   0
  29   1 -21    4.91   16.53   0
  27  -1 -21   21.03   13.52   0
  27   1 -21   -1.41   13.69   0
  25  -1 -21   22.15   12.72   0
  25   1 -21   43.33   13.60   0
  23  -1 -21   10.02   12.18   0
  23   1 -21    8.69   13.56   0
  21  -1 -21    9.87   10.25   0
 -21   1  21   15.87   12.19   0
  21   1 -21   19.91   13.67   0
  19   1 -21   19.27   12.27   0
  19  -1 -21   15.53   12.01   0
 -19   1  21   19.82   10.39   0
 -19  -1  21    9.88   12.27   0
 -17   1  21    7.86   10.61   0
 -17  -1  21    8.43   12.80   0
  17   1 -21   20.64   14.65   0
  17  -1 -21    5.58   10.58   0
 -15   1  21   12.87   12.91   0
 -15  -1  21   -0.04   13.34   0
  15   1 -21    7.75   13.89   0
  15  -1 -21   16.55   10.59   0
  13  -1 -21   10.48   10.90   0
 -13   1  21    7.58   12.62   0
 -13  -1  21    9.60   12.94   0
  13   1 -21   13.36   13.04   0
 -11   1  21   -2.72   11.83   0
  11  -1 -21   26.08   11.32   0
 -11  -1  21   11.25   13.01   0
  11   1 -21    5.68   16.89   0
  -9   1  21   18.58   13.19   0
   9  -1 -21    9.89   11.64   0
  -9  -1  21   11.51   12.94   0
   9   1 -21   24.59   16.98   0
   7   1 -21   26.09   17.31   0
  -7   1  21   45.16   13.73   0
  -7  -1  21   28.18   12.63   0
   7  -1 -21   15.80   13.28   0
   5   1 -21   19.51   14.99   0
  -5   1  21   20.20   12.04   0
  -5  -1  21   19.94   10.97   0
   5  -1 -21    6.97   14.78   0
  34  -2 -21   58.80   13.67   0
  34   2 -21   63.05   19.74   0
  34   2 -21   38.47   22.14   0
  34  -2 -21   30.73   12.99   0
  32  -2 -21   82.97   11.75   0
  32   2 -21   68.15   23.94   0
  32   2 -21   56.26   18.97   0
  30  -2 -21  133.77   14.31   0
  30   2 -21  141.70   18.64   0
  30   2 -21  126.03   24.31   0
  28  -2 -21  134.11   13.35   0
  28   2 -21  136.71   24.40   0
  28   2 -21  140.79   17.18   0
  26  -2 -21  149.64   14.15   0
  26   2 -21  158.04   18.19   0
  24   2 -21  184.67   17.58   0
  24  -2 -21  167.06   11.83   0
  22   2 -21  291.81   20.56   0
  22  -2 -21  285.93   12.05   0
  20   2 -21  141.20   18.39   0
  20  -2 -21  157.03   10.99   0
 -20  -2  21  145.90   15.67   0
 -20   2  21  200.41   10.99   0
 -18  -2  21  130.51   14.65   0
  18   2 -21  113.66   18.20   0
  18  -2 -21  132.92   10.83   0
 -18   2  21  141.15   12.85   0
 -16   2  21  177.88   11.68   0
 -16  -2  21  207.17   14.55   0
  16   2 -21  195.47   18.03   0
  16  -2 -21  207.54   12.55   0
 -14   2  21  182.85   12.11   0
 -14  -2  21  156.84   15.77   0
  14   2 -21  166.24   18.66   0
  14  -2 -21  155.32   12.67   0
  12  -2 -21   84.52   11.49   0
  12   2 -21   98.81   18.25   0
 -12   2  21  101.19   12.72   0
 -12  -2  21  100.52   13.41   0
  10  -2 -21   67.02   13.55   0
 -10   2  21   63.33   12.80   0
  10   2 -21   41.82   17.62   0
 -10  -2  21   66.84   12.58   0
  -8   2  21   77.11   12.55   0
   8  -2 -21   60.15   12.72   0
   8   2 -21   77.53   17.64   0
  -8  -2  21   83.05   12.56   0
  -6   2  21   23.71   12.74   0
   6  -2 -21   10.22   13.65   0
  -6  -2  21    3.12   11.35   0
   6   2 -21   20.63   14.73   0
  33  -3 -21   15.42   12.25   0
  31  -3 -21   10.56   11.99   0
  29  -3 -21    0.41   12.64   0
  27  -3 -21    8.94   12.44   0
  25  -3 -21   -8.38   11.22   0
  23  -3 -21   17.30   10.58   0
  21   3 -21   55.44   39.41   0
  21  -3 -21   75.01   10.99   0
 -21   3  21   44.35   10.62   0
  19  -3 -21   67.42   10.64   0
  19   3 -21   59.74   33.53   0
 -19   3  21   51.60   10.57   0
 -17  -3  21   57.45   16.08   0
  17   3 -21   40.60   28.92   0
  17  -3 -21   68.03    9.96   0
 -17   3  21   54.48   10.45   0
 -15   3  21  107.12   11.19   0
 -15  -3  21  104.06   17.22   0
  15   3 -21   97.86   25.84   0
  15  -3 -21  125.53   10.90   0
 -13   3  21  106.94   12.12   0
 -13  -3  21  104.50   14.28   0
  13   3 -21  119.13   22.94   0
  13  -3 -21  130.91   11.28   0
  11  -3 -21  113.26   11.78   0
 -11   3  21   99.37   12.63   0
 -11  -3  21  101.73   13.32   0
  11   3 -21  107.32   22.14   0
   9   3 -21  120.01   19.17   0
   9  -3 -21   83.25   14.18   0
  -9   31   90.30   14.20   0
  -9  -3  21  116.65   12.70   0
  -7   3  21  105.04   13.91   0
   7   3 -21  108.38   16.94   0
   7  -3 -21   94.44   13.24   0
  -7  -3  21  114.61   12.58   0
  32  -4 -21  172.34   15.15   0
  30  -4 -21  218.88   13.34   0
  28  -4 -21  241.20   14.06   0
  26  -4 -21  308.56   15.37   0
  24  -4 -21  476.54   12.96   0
  22  -4 -21  424.43   12.57   0
  20  -4 -21  450.45   12.87   0
 -20   4  21  514.44   12.93   0
  18  -4 -21  405.93   12.42   0
 -18   4  21  366.66   12.45   0
 -16  -4  21  329.74   21.63   0
  16  -4 -21  365.78   12.08   0
 -16   4  21  338.83   14.16   0
 -14   4  21  285.44   12.59   0
  14   4 -21  306.46   27.99   0
 -14  -4  21  293.82   19.43   0
  14  -4 -21  326.59   12.29   0
 -12   4  21  208.76   12.86   0
  12   4 -21  252.70   27.65   0
 -12  -4  21  227.07   15.61   0
  12  -4 -21  247.84   12.28   0
  10  -4 -21  177.26   12.38   0
 -10   4  21  165.16   13.33   0
 -10  -4  21  186.38   15.44   0
  10   4 -21  181.24   24.57   0
  -8   4  21   89.30   14.38   0
   8  -4 -21   77.35   15.01   0
   8   4 -21   89.92   22.86   0
  -8  -4  21  117.37   13.04   0
  29  -5 -21   28.11   14.12   0
  27  -5 -21    1.38   13.51   0
  25  -5 -21   26.43   12.61   0
  23  -5 -21   24.95   12.29   0
  21  -5 -21   33.03   13.49   0
  19  -5 -21   85.61   13.15   0
 -19   5  21   80.94   11.47   0
  17  -5 -21   97.55   11.53   0
 -17   5  21  115.72   11.77   0
 -15  -5  21  117.71   24.22   0
  15  -5 -21  151.42   11.74   0
 -15   5  21  103.90   12.21   0
 -13   5  21  133.28   12.45   0
 -13  -5  21  132.53   19.72   0
  13  -5 -21  174.79   11.78   0
 -11   5  21  124.93   13.03   0
 -11  -5  21  148.71   16.06   0
  11  -5 -21  115.18   12.50   0
  24  -6 -21  185.67   13.67   0
  22  -6 -21  222.31   13.25   0
  20  -6 -21  189.65   12.75   0
  18  -6 -21  203.97   12.31   0
 -18   6  21  240.10   12.55   0
  16  -6 -21  182.65   12.14   0
 -16   6  21  162.94   12.65   0
  34   0 -22  228.51   15.66   0
  34   0 -22  223.84   16.69   0
  32   0 -22  307.57   16.56   0
  32   0 -22  287.71   15.57   0
  30   0 -22  296.78   15.31   0
  28   0 -22  579.91   15.31   0
  26   0 -22  782.65   15.84   0
  24   0 -22  662.55   14.60   0
  22   0 -22  617.77   14.18   0
  20   0 -22  808.05   14.51   0
 -20   0  22  719.80   14.58   0
  18   0 -22  691.09   14.90   0
 -18   0  22  611.22   13.68   0
 -16   0  22  490.27   12.97   0
  16   0 -22  537.23   14.74   0
 -14   0  22  618.36   15.71   0
  14   0 -22  730.74   14.43   0
 -12   0  22  456.52   13.99   0
  12   0 -22  545.22   14.49   0
 -10   0  22  320.70   13.23   0
  10   0 -22  361.03   14.30   0
  -8   0  22  167.30   12.37   0
   8   0 -22  155.29   15.02   0
  -6   0  22  129.79   12.71   0
   6   0 -22  113.91   16.31   0
  35  -1 -22   86.80   14.59   0
  35   1 -22   65.71   17.01   0
  35  -1 -22   65.48   14.48   0
  35   1 -22   53.07   18.61   0
  33   1 -22   57.21   17.74   0
  33  -1 -22   52.76   12.20   0
  33   1 -22   59.63   17.89   0
  31  -1 -22   45.91   14.99   0
  31   1 -22   47.32   16.47   0
  31   1 -22   69.84   16.12   0
  29  -1 -22   34.03   13.77   0
  29   1 -22   39.45   14.86   0
  27  -1 -22    0.39   12.84   0
  27   1 -22    9.87   13.91   0
  25  -1 -22   14.50   12.06   0
  25   1 -22    7.04   11.97   0
  23  -1 -22    9.94   11.88   0
  23   1 -22   20.17   13.03   0
  21   1 -22   11.54   13.80   0
  21  -1 -22   15.37   11.75   0
 -21  -1  22    8.70   13.53   0
 -21   1  22   17.96   11.65   0
 -19  -1  22   10.04   12.14   0
  19   1 -22    8.97   14.19   0
  19  -1 -22   13.05   10.14   0
 -19   1  22   -3.70   10.65   0
 -17   1  22   27.63   12.79   0
 -17  -1  22   41.73   14.26   0
  17   1 -22   45.57   13.31   0
  17  -1 -22   42.85   10.27   0
  15  -1 -22   72.22   11.22   0
 -15   1  22   56.99   13.80   0
 -15  -1  22   57.03   14.18   0
  15   1 -22   46.02   14.58   0
 -13   1  22   24.06   14.79   0
  13  -1 -22   63.20   12.74   0
 -13  -1  22   42.48   13.71   0
  13   1 -22   56.71   14.88   0
 -11   1  22   70.28   12.62   0
 -11  -1  22   70.90   12.09   0
  11  -1 -22  120.06   13.68   0
  11   1 -22   87.29   16.40   0
   9   1 -22   83.29   17.75   0
  -9   1  22   61.12   12.56   0
  -9  -1  22   90.03   13.67   0
   9  -1 -22   89.80   14.40   0
   7   1 -22   98.42   18.14   0
  -7   1  22   97.08   12.68   0
  -7  -1  22   94.81   13.69   0
   7  -1 -22   79.60   13.88   0
  34  -2 -22  196.19   15.60   0
  34   2 -22  204.59   20.53   0
  34   2 -22  106.91   25.03   0
  32  -2 -22  163.61   13.34   0
  32   2 -22  114.72   23.15   0
  32   2 -22  163.92   19.22   0
  30  -2 -22  258.27   15.71   0
  30   2 -22  253.21   19.92   0
  30   2 -22  206.12   25.10   0
  28  -2 -22  341.64   13.75   0
  28   2 -22  300.87   24.04   0
  28   2 -22  324.31   19.43   0
  26  -2 -22  365.49   12.98   0
  26   2 -22  394.71   18.60   0
  24   2 -22  580.23   21.56   0
  24  -2 -22  557.55   13.94   0
  22   2 -22  479.57   20.20   0
  22  -2 -22  416.53   13.56   0
 -22   2  22  455.66   12.14   0
  20   2 -22  486.66   18.67   0
  20  -2 -22  494.62   13.11   0
 -20   2  22  501.99   11.88   0
 -20  -2  22  513.65   17.27   0
 -18  -2  22  388.39   14.86   0
  18   2 -22  385.23   20.28   0
  18  -2 -22  411.72   12.55   0
 -18   2  22  354.13   11.89   0
 -16   2  22  443.61   12.52   0
 -16  -2  22  442.73   17.86   0
  16   2 -22  450.88   18.34   0
  16  -2 -22  477.14   12.26   0
  14  -2 -22  344.51   12.36   0
 -14   2  22  323.99   12.97   0
 -14  -2  22  282.83   15.74   0
  14   2 -22  275.97   18.95   0
  12   2 -22  271.39   19.75   0
  12  -2 -22  369.86   13.01   0
 -12   2  22  321.76   14.08   0
 -12  -2  22  296.23   14.81   0
 -10   2  22  175.41   14.01   0
  10   2 -22  224.62   17.44   0
  10  -2 -22  218.27   14.44   0
 -10  -2  22  209.29   14.15   0
  -8   2  22  135.72   13.51   0
   8  -2 -22  121.62   13.48   0
  -8  -2  22  131.98   11.95   0
   8   2 -22  136.05   19.20   0
  33  -3 -22   -6.40   14.51   0
  31  -3 -22   11.22   12.52   0
  29  -3 -22   13.40   13.00   0
  27  -3 -22    9.70   13.60   0
  25  -3 -22   12.13   11.57   0
  23  -3 -22   38.71   12.83   0
  21  -3 -22   -3.86    9.88   0
  21   3 -22   15.92   33.10   0
 -21   3  22    6.85   10.53   0
  19   3 -22   32.85   27.99   0
  19  -3 -22   15.02   10.30   0
 -19   3  22   21.65    9.93   0
 -19  -3  22   22.97   16.20   0
 -17  -3  22   25.72   16.54   0
  17   3 -22   28.34   25.86   0
  17  -3 -22   17.05   10.21   0
 -17   3  22   25.01   10.84   0
 -15   3  22   25.09   10.58   0
 -15  -3  22   11.89   16.92   0
  15   3 -22   23.75   23.77   0
  15  -3 -22   26.44    9.87   0
 -13   3  22   38.18   12.30   0
 -13  -3  22   37.32   15.44   0
  13   3 -22   46.57   23.33   0
  13  -3 -22   62.45   10.97   0
  11  -3 -22   55.80   11.71   0
 -11   3  22   38.25   12.88   0
 -11  -3  22   61.97   13.42   0
  11   3 -22   60.33   20.79   0
   9   3 -22  108.60   20.88   0
  -9   3  22   81.09   14.14   0
   9  -3 -22   70.18   12.70   0
  -9  -3  22  110.77   13.38   0
  30  -4 -22   37.91   15.46   0
  28  -4 -22   30.66   12.93   0
  26  -4 -22   70.24   13.95   0
  24  -4 -22   41.82   11.42   0
  22  -4 -22   73.00   11.11   0
  20  -4 -22   41.79   11.47   0
 -20   4  22   55.86   11.24   0
  18  -4 -22   64.16   12.36   0
 -18   4  22   54.17   11.33   0
 -18  -4  22   72.07   22.08   0
 -16  -4  22   49.12   19.15   0
  16   4 -22   48.16   23.55   0
  16  -4 -22   73.48   10.91   0
 -16   4  22   73.16   11.39   0
 -14   4  22   53.56   11.84   0
 -14  -4  22   57.59   16.87   0
  14   4 -22   60.07   25.01   0
  14  -4 -22   58.04   11.44   0
 -12   4  22   29.41   12.48   0
 -12  -4  22   37.37   15.54   0
  12   4 -22   30.73   27.75   0
  12  -4 -22   32.28   11.52   0
  10  -4 -22   37.58   12.43   0
 -10   4  22   33.20   13.37   0
  10   4 -22   41.54   26.94   0
 -10  -4  22   29.45   13.37   0
  27  -5 -22    4.47   12.91   0
  25  -5 -22   10.84   12.13   0
  23  -5 -22   -2.20   13.64   0
  21  -5 -22    3.01   11.44   0
  19  -5 -22   14.58   11.23   0
 -19   5  22    6.57   11.65   0
  17  -5 -22   14.90   10.90   0
 -17   5  22    7.84   11.34   0
 -15  -5  22    4.14   23.15   0
  15  -5 -22   12.47   11.31   0
 -15   5  22    1.69   11.57   0
 -13   5  22   15.01   11.91   0
 -13  -5  22   16.88   19.57   0
  13  -5 -22    7.33   11.68   0
  35  -1 -23   17.60   14.81   0
  35  -1 -23   -4.09   14.08   0
  35   1 -23    8.86   18.12   0
  35   1 -23    3.05   17.42   0
  33  -1 -23   14.72   15.23   0
  33   1 -23    4.74   16.12   0
  33   1 -23   12.56   17.94   0
  31  -1 -23   28.06   14.20   0
  31   1 -23   -1.48   16.22   0
  31   1 -23    1.95   16.79   0
  29  -1 -23   31.89   13.67   0
  29   1 -23   -1.38   13.78   0
  27  -1 -23   35.28   10.90   0
  27   1 -23   33.69   13.87   0
  25  -1 -23    9.42   10.23   0
  25   1 -23   10.59   13.46   0
  23  -1 -23    8.53    9.82   0
  23   1 -23   13.95   13.20   0
  21   1 -23    8.83   12.31   0
  21  -1 -23    5.92   10.12   0
 -21   1  23   17.96   12.36   0
 -21  -1  23    8.84   13.35   0
 -19   1  23   13.91   11.73   0
 -19  -1  23   12.77   12.51   0
  19   1 -23   19.99   12.75   0
  19  -1 -23   -0.14   10.30   0
  17  -1 -23   20.52   10.69   0
 -17   1  23   14.21   13.02   0
 -17  -1  23   34.90   12.92   0
  17   1 -23   12.99   13.29   0
  15  -1 -23   -8.91   11.04   0
 -15   1  23    3.47   12.08   0
 -15  -1  23   10.85   14.18   0
  15   1 -23   -3.29   13.53   0
 -13   1  23    6.47   14.70   0
 -13  -1  23    4.14   11.83   0
  13  -1 -23   -9.48   13.25   0
  13   1 -23    5.16   12.86   0
 -11   1  23   25.13   12.70   0
 -11  -1  23    5.95   13.60   0
  11  -1 -23   16.10   11.81   0
  11   1 -23   16.93   13.28   0
   9   1 -23   11.45   16.70   0
  -9   1  23   19.67   14.75   0
  -9  -1  23    4.80   13.94   0
   9  -1 -23   -0.80   12.92   0
  34   2 -23   33.38   21.98   0
  34  -2 -23   37.04   13.34   0
  34   2 -23   49.35   20.26   0
  32  -2 -23   89.46   15.82   0
  32   2 -23   80.87   23.23   0
  32   2 -23   97.95   20.06   0
  30  -2 -23  121.82   13.06   0
  30   2 -23   91.01   22.26   0
  30   2 -23  109.56   18.54   0
  28  -2 -23  127.56   13.70   0
  28   2 -23  136.26   18.36   0
  26   2 -23  140.72   18.41   0
  26  -2 -23  152.53   11.54   0
  24   2 -23  243.29   19.94   0
  24  -2 -23  228.83   13.00   0
  22   2 -23  180.10   17.54   0
  22  -2 -23  160.37   10.95   0
 -22   2  23  190.11   11.35   0
  20   2 -23  144.28   16.71   0
  20  -2 -23  147.37   12.55   0
 -20   2  23  146.49   13.04   0
 -20  -2  23  143.72   14.39   0
 -18   2  23  174.32   12.87   0
 -18  -2  23  166.02   14.14   0
  18   2 -23  171.17   17.54   0
  18  -2 -23  192.87   12.20   0
 -16   2  23  172.85   12.13   0
 -16  -2  23  160.87   17.28   0
  16   2 -23  163.83   18.34   0
  16  -2 -23  171.33   11.22   0
  14  -2 -23  126.95   11.27   0
  14   2 -23   85.78   17.19   0
 -14   2  23  103.45   12.26   0
 -14  -2  23   96.38   14.78   0
 -12   2  23   87.25   13.51   0
  12  -2 -23  124.13   11.75   0
  12   2 -23  101.04   17.49   0
 -12  -2  23   97.62   14.27   0
 -10   2  23   79.56   16.21   0
  10  -2 -23   93.04   12.78   0
  10   2 -23  111.67   18.12   0
 -10  -2  23  131.23   13.99   0
  33  -3 -23   34.56   16.10   0
  31  -3 -23   29.67   13.15   0
  29  -3 -23   25.47   12.64   0
  27  -3 -23   44.18   11.68   0
  25  -3 -23   37.10   12.94   0
  23   3 -23    6.44   34.80   0
  23  -3 -23    3.03   10.84   0
  21  -3 -23   10.53   10.36   0
  21   3 -23   11.76   27.85   0
 -21   3  23   11.05   10.55   0
  19   3 -23    9.69   24.37   0
  19  -3 -23    6.25   10.27   0
 -19   3  23   13.19   10.82   0
 -19  -3  23   14.71   15.47   0
 -17   3  23   14.21   10.78   0
 -17  -3  23    1.29   16.84   0
  17   3 -23   12.07   22.88   0
  17  -3 -23   17.31   10.48   0
 -15   3  23   -4.49   11.28   0
 -15  -3  23   15.78   17.01   0
  15   3 -23    9.88   21.06   0
  15  -3 -23    6.01   10.46   0
  13  -3 -23   -6.16   11.38   0
 -13   3  23   -6.90   12.30   0
 -13  -3  23   12.19   14.57   0
  13   3 -23    6.38   21.44   0
  11   3 -23    7.60   19.63   0
 -11   3  23   16.50   12.97   0
  11  -3 -23   18.20   12.04   0
 -11  -3  23    9.37   13.94   0
  30  -4 -23  173.36   13.75   0
  28  -4 -23  179.78   12.90   0
  26  -4 -23  208.97   14.46   0
  24  -4 -23  263.90   12.13   0
  22  -4 -23  303.62   12.08   0
  20  -4 -23  332.36   12.08   0
 -20   4  23  344.05   12.24   0
 -18  -4  23  289.30   21.15   0
  18  -4 -23  293.43   11.76   0
 -18   4  23  308.28   11.88   0
 -16   4  23  246.76   12.41   0
 -16  -4  23  229.84   19.59   0
  16   4 -23  237.80   25.55   0
  16  -4 -23  274.54   11.73   0
 -14   4  23  207.12   12.82   0
 -14  -4  23  194.54   18.29   0
  14   4 -23  240.69   23.84   0
  14  -4 -23  221.22   12.14   0
  27  -5 -23   41.97   14.44   0
  25  -5 -23   57.91   12.28   0
  23  -5 -23   37.18   11.46   0
  21  -5 -23   16.70   11.13   0
  19  -5 -23   12.78   11.10   0
 -19   5  23    5.78   11.38   0
  17  -5 -23   25.12   11.46   0
 -17   5  23    2.22   11.69   0
  34   0 -24  136.53   15.98   0
  34   0 -24   93.21   16.01   0
  32   0 -24  130.45   14.77   0
  30   0 -24  339.09   16.21   0
  28   0 -24  421.36   13.96   0
  26   0 -24  403.46   13.59   0
  24   0 -24  534.11   13.91   0
  22   0 -24  621.05   14.09   0
 -22   0  24  601.51   14.38   0
  20   0 -24  757.99   14.61   0
 -20   0  24  700.06   15.14   0
 -18   0  24  373.92   14.12   0
  18   0 -24  436.21   14.03   0
 -16   0  24  465.04   15.64   0
  16   0 -24  523.37   13.27   0
 -14   0  24  334.98   14.56   0
  14   0 -24  365.08   13.25   0
 -12   0  24  306.43   14.74   0
  12   0 -24  369.43   16.00   0
 -10   0  24  229.83   16.27   0
  33   1 -24   97.51   16.86   0
  33  -1 -24  121.57   15.22   0
  33   1 -24  151.14   16.39   0
  31  -1 -24  157.85   14.31   0
  31   1 -24  177.97   16.97   0
  29  -1 -24  209.16   14.06   0
  29   1 -24  204.99   15.01   0
  27  -1 -24  164.60   11.26   0
  27   1 -24  135.00   13.90   0
  25  -1 -24  193.18   12.40   0
  25   1 -24  192.40   14.35   0
  23   1 -24  118.86   14.03   0
  23  -1 -24  109.77   11.87   0
 -23   1  24  134.18   12.65   0
  21   1 -24   77.63   14.38   0
  21  -1 -24   87.74   11.91   0
 -21   1  24   80.10   12.43   0
 -21  -1  24   84.42   12.62   0
 -19   1  24   41.26   11.46   0
 -19  -1  24   38.76   14.20   0
  19   1 -24   59.15   14.61   0
  19  -1 -24   41.39   10.47   0
  17  -1 -24   33.62   10.86   0
 -17   1  24   38.91   13.33   0
 -17  -1  24   29.39   13.72   0
  17   1 -24   35.59   13.28   0
 -15   1  24   26.81   14.01   0
 -15  -1  24   16.21   13.09   0
  15  -1 -24   34.40   12.68   0
  15   1 -24   21.60   14.00   0
 -13   1  24   14.08   15.28   0
 -13  -1  24   -4.08   14.62   0
  13  -1 -24   18.02   13.25   0
  13   1 -24   -8.25   14.85   0
 -11   1  24    1.36   13.68   0
 -11  -1  24   17.47   14.55   0
  11  -1 -24    0.40   12.27   0
  11   1 -24    4.95   13.50   0
  34  -2 -24   52.67   13.89   0
  34   2 -24   32.98   22.43   0
  34   2 -24   45.81   19.49   0
  32  -2 -24  109.43   13.31   0
  32   2 -24  108.28   18.99   0
  32   2 -24   95.40   23.67   0
  30   2 -24  140.39   22.55   0
  30  -2 -24  166.67   14.29   0
  30   2 -24  154.88   19.89   0
  28   2 -24  213.71   18.00   0
  28  -2 -24  208.28   12.25   0
  26   2 -24  258.18   19.54   0
  26  -2 -24  241.45   13.51   0
  24   2 -24  208.37   18.63   0
  24  -2 -24  220.40   11.55   0
  22   2 -24  320.70   18.58   0
  22  -2 -24  307.67   11.45   0
 -22   2  24  349.17   11.76   0
  20   2 -24  327.46   17.50   0
  20  -2 -24  332.65   12.91   0
 -20   2  24  319.29   12.20   0
 -20  -2  24  293.96   15.41   0
 -18   2  24  320.07   13.92   0
 -18  -2  24  309.89   16.78   0
  18   2 -24  331.39   17.10   0
  18  -2 -24  361.19   11.58   0
  16  -2 -24  232.42   11.39   0
  16   2 -24  225.09   18.33   0
 -16   2  24  202.32   12.27   0
 -16  -2  24  192.04   16.35   0
 -14   2  24  211.36   15.03   0
  14  -2 -24  228.13   11.84   0
  14   2 -24  203.89   17.04   0
 -14  -2  24  178.04   15.94   0
 -12   2  24  175.69   14.48   0
  12  -2 -24  160.60   12.50   0
  12   2 -24  140.69   17.02   0
 -12  -2  24  135.97   15.14   0
  31  -3 -24   61.88   13.00   0
  29  -3 -24   93.65   12.50   0
  27  -3 -24  135.37   11.97   0
  25  -3 -24   40.06   10.79   0
  23   3 -24   31.80   29.56   0
  23  -3 -24   41.99   10.42   0
 -23   3  24   41.74   10.41   0
  21   3 -24   18.02   24.58   0
  21  -3 -24   31.65   10.48   0
 -21   3  24   22.11   10.81   0
 -19  -3  24   24.16   15.99   0
  19   3 -24   16.82   21.34   0
  19  -3 -24   34.65   10.28   0
 -19   3  24   15.21   12.60   0
 -17   3  24   -3.79   11.11   0
 -17  -3  24   12.57   17.41   0
  17   3 -24   16.63   21.27   0
  17  -3 -24   15.67   10.38   0
  15  -3 -24    9.91   10.92   0
 -15   3  24    4.74   11.85   0
 -15  -3  24    3.35   17.68   0
  15   3 -24   19.91   19.93   0
  13   3 -24  -22.47   21.27   0
 -13   3  24   -0.33   12.45   0
  13  -3 -24    1.92   11.35   0
 -13  -3  24    3.46   16.87   0
  30  -4 -24   23.49   12.81   0
  28  -4 -24   28.32   11.80   0
  26  -4 -24   29.17   11.35   0
  24  -4 -24   52.31   11.33   0
  22  -4 -24   38.60   11.20   0
 -22   4  24   27.99   11.01   0
  20  -4 -24   55.97   10.93   0
 -20   4  24   45.60   11.46   0
 -18  -4  24   52.60   19.65   0
  18  -4 -24   72.05   12.38   0
 -18   4  24   26.82   11.39   0
 -16   4  24   51.04   11.88   0
  16   4 -24   43.31   22.33   0
 -16  -4  24   37.21   19.12   0
  16  -4 -24   47.22   13.10   0
 -21   5  24   -6.30   11.52   0
  33   1 -25   13.27   16.52   0
  33  -1 -25   28.65   14.14   0
  33   1 -25   27.91   16.46   0
  31  -1 -25   45.20   13.38   0
  31   1 -25   39.26   15.76   0
  29  -1 -25   39.67   12.68   0
  29   1 -25   36.48   13.82   0
  27  -1 -25   43.40   12.06   0
  27   1 -25   30.72   14.97   0
  25   1 -25   12.96   13.35   0
  25  -1 -25    7.73   11.76   0
  23   1 -25   16.29   14.14   0
  23  -1 -25   23.65   11.67   0
 -23  -1  25   25.43   13.80   0
 -23   1  25   14.07   12.17   0
  21   1 -25   12.78   12.79   0
  21  -1 -25   12.18   11.92   0
 -21   1  25    0.77   10.84   0
 -21  -1  25   21.70   12.65   0
 -19   1  25    7.86   11.36   0
  19  -1 -25   21.67   12.18   0
 -19  -1  25   34.13   13.08   0
  19   1 -25   14.38   13.27   0
 -17   1  25   16.25   11.64   0
 -17  -1  25   18.33   14.04   0
  17  -1 -25   12.52   12.41   0
  17   1 -25    9.90   13.62   0
 -15   1  25    7.12   14.07   0
 -15  -1  25    7.22   13.57   0
  15  -1 -25    2.38   12.96   0
  15   1 -25   15.68   14.00   0
 -13   1  25    6.29   13.61   0
 -13  -1  25    0.04   13.22   0
  13  -1 -25    7.98   11.59   0
  13   1 -25   30.90   15.20   0
  32   2 -25    8.81   22.91   0
  32  -2 -25   22.91   14.48   0
  32   2 -25   12.11   20.03   0
  30   2 -25   29.63   17.74   0
  30  -2 -25   31.97   13.77   0
  30   2 -25   18.76   20.40   0
  28   2 -25   45.30   18.92   0
  28  -2 -25   35.75   13.07   0
  26   2 -25   80.75   17.53   0
  26  -2 -25   82.44   12.56   0
  24   2 -25   90.07   16.97   0
  24  -2 -25   95.63   10.79   0
  22   2 -25   87.36   17.59   0
  22  -2 -25   92.29   10.43   0
 -22  -2  25   80.71   15.56   0
 -22   2  25   88.55   11.14   0
 -20  -2  25  116.73   15.02   0
  20   2 -25  111.01   16.38   0
  20  -2 -25  111.90   12.44   0
 -20   2  25  104.53   11.48   0
  18  -2 -25  162.36   12.61   0
 -18   2  25  116.03   11.62   0
 -18  -2  25  128.15   16.37   0
  18   2 -25  117.72   17.25   0
 -16   2  25   72.06   12.04   0
  16   2 -25   77.63   17.13   0
  16  -2 -25  104.74   12.86   0
 -16  -2  25   73.63   15.94   0
 -14   2  25   64.28   15.02   0
 -14  -2  25   56.97   15.95   0
  14  -2 -25   79.84   13.20   0
  14   2 -25   78.30   16.44   0
  31  -3 -25  108.09   12.87   0
  29  -3 -25  135.26   14.10   0
  27  -3 -25  124.65   11.73   0
  25  -3 -25  112.87   10.96   0
  23  -3 -25   64.03   10.87   0
 -23   3  25   53.33   10.96   0
  23   3 -25   74.22   26.30   0
  21   3 -25   41.28   23.48   0
  21  -3 -25   64.30   10.39   0
 -21   3  25   39.18   10.89   0
 -21  -3  25   57.49   18.07   0
 -19  -3  25   30.76   16.78   0
  19   3 -25   24.34   20.21   0
  19  -3 -25   42.05   10.66   0
 -19   3  25   25.86   12.98   0
 -17   3  25   29.16   11.95   0
 -17  -3  25   18.60   16.52   0
  17   3 -25   30.21   18.38   0
  17  -3 -25   32.34   10.93   0
  26  -4 -25   91.19   11.38   0
  24  -4 -25  142.96   11.56   0
  22  -4 -25  133.14   11.55   0
 -22   4  25  162.15   11.75   0
  20  -4 -25  158.57   11.36   0
 -20   4  25  171.73   12.11   0
  32   0 -26    1.64   12.94   0
  30   0 -26   13.53   13.90   0
  28   0 -26   56.77   12.23   0
  26   0 -26  121.64   13.68   0
 -24   0  26  183.86   13.06   0
  24   0 -26  167.94   12.67   0
  22   0 -26  223.63   12.91   0
 -22   0  26  208.59   13.19   0
 -20   0  26  156.89   13.71   0
  20   0 -26  194.30   13.21   0
 -18   0  26  155.05   14.30   0
  18   0 -26  157.88   13.27   0
 -16   0  26  217.08   15.78   0
  16   0 -26  235.07   12.74   0
  33  -1 -26  258.86   15.88   0
  33   1 -26  239.29   17.87   0
  31  -1 -26  319.54   15.66   0
  31   1 -26  287.35   17.41   0
  29  -1 -26  261.50   13.96   0
  29   1 -26  282.89   16.62   0
  27   1 -26  340.87   15.33   0
  27  -1 -26  313.36   13.15   0
  25   1 -26  337.55   15.08   0
  25  -1 -26  337.73   13.36   0
  23   1 -26  297.56   15.27   0
  23  -1 -26  271.12   12.78   0
 -23   1  26  277.98   12.42   0
 -23  -1  26  274.85   15.18   0
  21  -1 -26  232.45   11.21   0
  21   1 -26  219.09   13.86   0
 -21   1  26  190.18   11.69   0
 -21  -1  26  178.90   15.23   0
 -19   1  26  122.38   13.64   0
 -19  -1  26  115.08   14.11   0
  19  -1 -26  142.41   11.16   0
  19   1 -26  116.52   13.64   0
 -17   1  26  100.44   12.87   0
 -17  -1  26   79.25   15.15   0
  17  -1 -26  115.29   11.28   0
  17   1 -26   98.48   14.77   0
  32  -2 -26   18.05   13.99   0
  32   2 -26    2.96   22.05   0
  30   2 -26   18.94   19.34   0
  30  -2 -26   -2.51   12.85   0
  28   2 -26   25.38   18.52   0
  28  -2 -26   31.40   11.10   0
  26   2 -26   44.03   17.37   0
  26  -2 -26   29.17   10.85   0
  24   2 -26   72.92   16.78   0
  24  -2 -26   66.52   10.60   0
 -24   2  26   81.36   11.27   0
  22   2 -26   83.44   17.36   0
  22  -2 -26   82.41   11.12   0
 -22   2  26   66.95   11.44   0
 -22  -2  26   77.49   14.87   0
 -20  -2  26   98.50   15.69   0
  20   2 -26  107.76   16.55   0
  20  -2 -26  111.10   10.95   0
 -20   2  26  102.05   11.68   0
 -18   2  26   87.09   12.08   0
  18   2 -26  102.34   16.61   0
  18  -2 -26  112.13   11.22   0
 -18  -2  26   97.25   14.96   0
  29  -3 -26  134.21   13.86   0
  27  -3 -26   68.23   11.31   0
  25   3 -26   86.37   29.67   0
  25  -3 -26   89.01   11.31   0
  23  -3 -26  107.65   11.04   0
 -23   3  26  104.87   11.53   0
  23   3 -26   90.21   24.60   0
  21  -3 -26   86.23   10.88   0
  21   3 -26   69.33   21.45   0
 -21   3  26   74.39   11.45   0
 -21  -3  26   70.17   16.81   0
  31  -1 -27   11.15   12.99   0
  31   1 -27   36.14   14.09   0
  29   1 -27   36.49   15.31   0
  29  -1 -27   43.86   12.48   0
  27   1 -27    3.12   13.78   0
  27  -1 -27   18.36   12.06   0
  25   1 -27   41.39   14.06   0
 -25   1  27   32.93   10.90   0
  25  -1 -27   46.74   11.83   0
  23   1 -27   14.39   12.83   0
 -23   1  27   29.89   12.47   0
 -23  -1  27   32.77   14.44   0
  23  -1 -27   35.81   12.00   0
 -21  -1  27   34.38   13.56   0
  21  -1 -27   36.36   12.46   0
  21   1 -27   37.10   14.66   0
 -21   1  27   36.22   11.46   0
  28   2 -27    1.37   18.49   0
  28  -2 -27   -2.11   10.97   0
  26   2 -27    4.21   16.52   0
  26  -2 -27    8.16   10.71   0
  24   2 -27   22.91   14.99   0
  24  -2 -27   11.63   12.07   0
 -24   2  27   -9.05   12.64   0
  22   2 -27   16.21   15.43   0
 -22   2  27   11.17   11.62   0
  22  -2 -27   17.69   12.29   0
 -22  -2  27    7.47   14.54   0
;
_shelx_hkl_checksum              4452
loop_
_space_group_symop_operation_xyz
'x, y, z'
'-x, y, -z+1/2'
'x+1/2, y+1/2, z'
'-x+1/2, y+1/2, -z+1/2'
'-x, -y, -z'
'x, -y, z-1/2'
'-x+1/2, -y+1/2, -z'
'x+1/2, -y+1/2, z-1/2'
loop_
_atom_site_label
_atom_site_type_symbol
_atom_site_fract_x
_atom_site_fract_y
_atom_site_fract_z
_atom_site_U_iso_or_equiv
_atom_site_adp_type
_atom_site_occupancy
_atom_site_site_symmetry_order
_atom_site_calc_flag
_atom_site_refinement_flags_posn
_atom_site_refinement_flags_adp
_atom_site_refinement_flags_occupancy
_atom_site_disorder_assembly
_atom_site_disorder_group
C1 C 0.3893(4) 0.8549(16) 0.3767(5) 0.031(2) Uani 1 1 d . . . . .
C2 C 0.4614(4) 0.7786(15) 0.4608(5) 0.0291(19) Uani 1 1 d . . . . .
C3 C 0.4762(5) 0.7057(17) 0.5330(6) 0.039(2) Uani 1 1 d . . . . .
H3 H 0.4394 0.6882 0.5265 0.047 Uiso 1 1 calc R U . . .
C4 C 0.5449(5) 0.6598(17) 0.6136(7) 0.039(2) Uani 1 1 d . . . . .
H4 H 0.5550 0.6149 0.6624 0.046 Uiso 1 1 calc R U . . .
C5 C 0.5840(5) 0.7326(17) 0.5504(6) 0.038(2) Uani 1 1 d . . . . .
H5 H 0.6208 0.7340 0.5563 0.045 Uiso 1 1 calc R U . . .
C6 C 0.5159(5) 0.7841(18) 0.4692(6) 0.041(3) Uani 1 1 d . . . . .
H6 H 0.5066 0.8225 0.4203 0.049 Uiso 1 1 calc R U . . .
C7 C 0.2197(7) 1.0340(16) 0.0404(8) 0.041(2) Uani 1 1 d . . . . .
C8 C 0.2248(7) 0.9848(15) -0.0236(8) 0.039(2) Uani 1 1 d . . . . .
C9 C 0.2832(7) 1.0248(19) -0.0003(7) 0.047(3) Uani 1 1 d . . . . .
H9 H 0.3193 1.0929 0.0520 0.056 Uiso 1 1 calc R U . . .
C10 C 0.2905(7) 0.9637(16) -0.0551(8) 0.043(3) Uani 1 1 d . . . . .
H10 H 0.3318 0.9910 -0.0381 0.052 Uiso 1 1 calc R U . . .
C11 C 0.1777(5) 0.8368(19) -0.1577(6) 0.045(3) Uani 1 1 d . . . . .
H11 H 0.1409 0.7745 -0.2121 0.054 Uiso 1 1 calc R U . . .
C12 C 0.1695(6) 0.8964(19) -0.1055(7) 0.047(3) Uani 1 1 d . . . . .
H12 H 0.1266 0.8771 -0.1255 0.057 Uiso 1 1 calc R U . . .
N1 N 0.5968(4) 0.6802(12) 0.6213(5) 0.0348(18) Uani 1 1 d . . . . .
N2 N 0.2600(5) 0.6302(12) 0.1291(5) 0.0348(19) Uani 1 1 d . . . . .
O1 O 0.3828(4) 0.9389(11) 0.3217(4) 0.0380(17) Uani 1 1 d . . . . .
O2 O 0.3397(3) 0.8350(13) 0.3696(4) 0.0430(19) Uani 1 1 d . . . . .
O3 O 0.6646(3) 0.6442(14) 0.7018(4) 0.0478(19) Uani 1 1 d . . . . .
O4 O 0.2769(6) 1.0822(14) 0.1192(6) 0.057(2) Uani 1 1 d . . . . .
O5 O 0.1608(6) 1.0103(16) 0.0116(7) 0.065(3) Uani 1 1 d . . . . .
O6 O 0.2494(4) 0.7019(11) 0.1737(4) 0.0390(17) Uani 1 1 d . . . . .
Pb1 Pb 0.25695(2) 1.04638(5) 0.21168(2) 0.02988(15) Uani 1 1 d . . . . .
C13 C 0.544(2) 0.264(5) 0.283(3) 0.111(13) Uani 0.5 1 d D U P A -1
H13A H 0.5296 0.3525 0.2998 0.166 Uiso 0.5 1 calc R U P A -1
H13B H 0.5363 0.3110 0.2353 0.166 Uiso 0.5 1 calc R U P A -1
H13C H 0.5931 0.2342 0.3354 0.166 Uiso 0.5 1 calc R U P A -1
O7 O 0.5083(15) -0.168(4) 0.2129(18) 0.118(10) Uiso 0.5 1 d D . P A -1
C14 C 0.5332(14) -0.014(4) 0.2349(18) 0.060(7) Uani 0.5 1 d D U P A -1
H14 H 0.5685 0.0248 0.2411 0.072 Uiso 0.5 1 calc R U P A -1
N3 N 0.5000 0.099(4) 0.2500 0.099(7) Uani 1 2 d DS TU P . .
loop_
_atom_site_aniso_label
_atom_site_aniso_U_11
_atom_site_aniso_U_22
_atom_site_aniso_U_33
_atom_site_aniso_U_23
_atom_site_aniso_U_13
_atom_site_aniso_U_12
C1 0.022(4) 0.036(5) 0.025(4) -0.006(4) 0.015(3) 0.001(4)
C2 0.022(4) 0.030(5) 0.024(4) 0.000(4) 0.013(3) 0.002(4)
C3 0.032(4) 0.048(7) 0.042(5) -0.001(5) 0.028(4) -0.003(5)
C4 0.040(5) 0.039(6) 0.040(4) 0.007(5) 0.031(4) 0.006(5)
C5 0.027(4) 0.042(6) 0.040(5) 0.000(5) 0.023(4) 0.001(4)
C6 0.031(4) 0.057(8) 0.030(4) -0.001(5) 0.021(4) -0.002(5)
C7 0.065(7) 0.026(6) 0.052(6) 0.003(5) 0.049(6) 0.003(5)
C8 0.062(7) 0.028(6) 0.047(5) 0.000(5) 0.046(6) 0.004(5)
C9 0.056(6) 0.056(8) 0.036(5) -0.008(5) 0.036(5) -0.007(6)
C10 0.067(7) 0.033(6) 0.059(6) -0.011(5) 0.056(6) -0.014(6)
C11 0.036(5) 0.063(9) 0.033(4) 0.001(5) 0.024(4) 0.011(5)
C12 0.044(5) 0.055(8) 0.049(5) 0.003(6) 0.036(5) 0.004(6)
N1 0.032(4) 0.029(5) 0.035(4) 0.002(3) 0.022(3) 0.005(3)
N2 0.058(5) 0.022(4) 0.041(4) 0.015(4) 0.041(4) 0.025(4)
O1 0.030(3) 0.045(5) 0.033(3) 0.001(3) 0.021(3) 0.004(3)
O2 0.030(3) 0.061(6) 0.036(3) -0.011(4) 0.024(3) -0.006(4)
O3 0.032(3) 0.059(6) 0.034(3) 0.016(4) 0.019(3) 0.016(4)
O4 0.082(6) 0.058(7) 0.058(5) 0.001(4) 0.060(5) -0.006(5)
O5 0.083(7) 0.078(8) 0.070(5) -0.008(5) 0.068(6) 0.000(6)
O6 0.056(4) 0.040(5) 0.040(3) 0.000(3) 0.041(3) 0.005(4)
Pb1 0.0286(2) 0.0359(3) 0.02505(19) 0.00037(14) 0.01975(16) 0.00120(15)
C13 0.109(19) 0.10(2) 0.105(18) 0.008(15) 0.074(15) -0.005(15)
C14 0.064(10) 0.074(12) 0.059(9) -0.005(7) 0.050(8) 0.009(8)
N3 0.104(10) 0.112(12) 0.086(9) 0.000 0.071(8) 0.000
loop_
_atom_type_symbol
_atom_type_description
_atom_type_scat_dispersion_real
_atom_type_scat_dispersion_imag
_atom_type_scat_source
C C 0.0033 0.0016 'International Tables Vol C Tables 4.2.6.8 and 6.1.1.4'
H H 0.0000 0.0000 'International Tables Vol C Tables 4.2.6.8 and 6.1.1.4'
N N 0.0061 0.0033 'International Tables Vol C Tables 4.2.6.8 and 6.1.1.4'
O O 0.0106 0.0060 'International Tables Vol C Tables 4.2.6.8 and 6.1.1.4'
Pb Pb -3.3944 10.1111 'International Tables Vol C Tables 4.2.6.8 and 6.1.1.4'
loop_
_geom_angle_atom_site_label_1
_geom_angle_atom_site_label_2
_geom_angle_atom_site_label_3
_geom_angle
_geom_angle_site_symmetry_1
_geom_angle_site_symmetry_3
O1 C1 O2 124.5(8) . .
O1 C1 C2 118.4(8) . .
O2 C1 C2 117.1(9) . .
C6 C2 C3 118.2(8) . .
C6 C2 C1 119.7(8) . .
C3 C2 C1 122.1(8) . .
C4 C3 C2 120.3(9) . .
C4 C3 H3 119.8 . .
C2 C3 H3 119.8 . .
N1 C4 C3 119.3(9) . .
N1 C4 H4 120.3 . .
C3 C4 H4 120.3 . .
N1 C5 C6 119.3(9) . .
N1 C5 H5 120.3 . .
C6 C5 H5 120.3 . .
C5 C6 C2 119.8(9) . .
C5 C6 H6 120.1 . .
C2 C6 H6 120.1 . .
O4 C7 O5 126.5(10) . .
O4 C7 C8 115.3(10) . .
O5 C7 C8 118.0(10) . .
C9 C8 C12 118.8(10) . .
C9 C8 C7 120.2(10) . .
C12 C8 C7 121.0(10) . .
C8 C9 C10 120.0(11) . .
C8 C9 H9 120.0 . .
C10 C9 H9 120.0 . .
N2 C10 C9 120.6(11) 7_565 .
N2 C10 H10 119.7 7_565 .
C9 C10 H10 119.7 . .
N2 C11 C12 119.4(10) 7_565 .
N2 C11 H11 120.3 7_565 .
C12 C11 H11 120.3 . .
C11 C12 C8 120.3(11) . .
C11 C12 H12 119.8 . .
C8 C12 H12 119.8 . .
C4 N1 O3 119.2(8) . .
C4 N1 C5 122.5(8) . .
O3 N1 C5 118.3(8) . .
C10 N2 O6 120.0(9) 7_565 .
C10 N2 C11 120.5(9) 7_565 7_565
O6 N2 C11 119.4(9) . 7_565
C1 O1 Pb1 100.7(5) . .
N1 O3 Pb1 111.5(7) . 5_676
C7 O4 Pb1 104.9(7) . .
N2 O6 Pb1 127.7(6) . .
O4 Pb1 O1 79.2(3) . .
O4 Pb1 O6 82.1(3) . .
O1 Pb1 O6 73.9(2) . .
O4 Pb1 O3 85.6(3) . 5_676
O1 Pb1 O3 76.5(2) . 5_676
O6 Pb1 O3 149.6(2) . 5_676
N3 C13 H13A 109.5 . .
N3 C13 H13B 109.5 . .
H13A C13 H13B 109.5 . .
N3 C13 H13C 109.5 . .
H13A C13 H13C 109.5 . .
H13B C13 H13C 109.5 . .
O7 C14 N3 111(3) . .
O7 C14 H14 124.6 . .
N3 C14 H14 124.6 . .
C14 N3 C13 99(2) . .
loop_
_geom_bond_atom_site_label_1
_geom_bond_atom_site_label_2
_geom_bond_distance
_geom_bond_site_symmetry_2
C1 O1 1.233(12) .
C1 O2 1.273(11) .
C1 C2 1.502(11) .
C2 C6 1.383(13) .
C2 C3 1.397(13) .
C3 C4 1.371(13) .
C3 H3 0.9300 .
C4 N1 1.331(13) .
C4 H4 0.9300 .
C5 N1 1.351(13) .
C5 C6 1.380(13) .
C5 H5 0.9300 .
C6 H6 0.9300 .
C7 O4 1.248(15) .
C7 O5 1.257(16) .
C7 C8 1.537(14) .
C8 C9 1.324(17) .
C8 C12 1.381(17) .
C9 C10 1.417(15) .
C9 H9 0.9300 .
C10 N2 1.303(15) 7_565
C10 H10 0.9300 .
C11 N2 1.361(14) 7_565
C11 C12 1.378(15) .
C11 H11 0.9300 .
C12 H12 0.9300 .
N1 O3 1.344(10) .
N2 C10 1.303(15) 7_565
N2 O6 1.308(10) .
N2 C11 1.361(14) 7_565
O1 Pb1 2.494(7) .
O3 Pb1 2.732(10) 5_676
O4 Pb1 2.454(8) .
O6 Pb1 2.637(8) .
Pb1 O3 2.732(10) 5_676
C13 N3 1.472(19) .
C13 H13A 0.9600 .
C13 H13B 0.9600 .
C13 H13C 0.9600 .
O7 C14 1.230(19) .
C14 N3 1.448(17) .
C14 H14 0.9300 .
loop_
_geom_torsion_atom_site_label_1
_geom_torsion_atom_site_label_2
_geom_torsion_atom_site_label_3
_geom_torsion_atom_site_label_4
_geom_torsion
_geom_torsion_site_symmetry_1
_geom_torsion_site_symmetry_4
O1 C1 C2 C6 -8.0(16) . .
O2 C1 C2 C6 175.2(10) . .
O1 C1 C2 C3 170.2(10) . .
O2 C1 C2 C3 -6.6(16) . .
C6 C2 C3 C4 7.0(17) . .
C1 C2 C3 C4 -171.2(11) . .
C2 C3 C4 N1 -2.1(18) . .
N1 C5 C6 C2 -1.1(18) . .
C3 C2 C6 C5 -5.4(17) . .
C1 C2 C6 C5 172.9(11) . .
O4 C7 C8 C9 -12.0(16) . .
O5 C7 C8 C9 172.9(13) . .
O4 C7 C8 C12 167.2(12) . .
O5 C7 C8 C12 -8.0(17) . .
C12 C8 C9 C10 -5.3(18) . .
C7 C8 C9 C10 173.8(12) . .
C8 C9 C10 N2 0.7(19) . 7_565
N2 C11 C12 C8 -1.7(19) 7_565 .
C9 C8 C12 C11 5.8(19) . .
C7 C8 C12 C11 -173.3(11) . .
C3 C4 N1 O3 176.5(11) . .
C3 C4 N1 C5 -4.8(17) . .
C6 C5 N1 C4 6.4(17) . .
C6 C5 N1 O3 -174.9(11) . .
O2 C1 O1 Pb1 1.6(12) . .
C2 C1 O1 Pb1 -175.0(8) . .
C4 N1 O3 Pb1 -107.4(9) . 5_676
C5 N1 O3 Pb1 73.9(10) . 5_676
O5 C7 O4 Pb1 13.5(15) . .
C8 C7 O4 Pb1 -161.1(8) . .
C10 N2 O6 Pb1 -121.5(10) 7_565 .
C11 N2 O6 Pb1 54.8(11) 7_565 .
O7 C14 N3 C13 175(3) . .
