#------------------------------------------------------------------------------
#$Date: 2019-11-23 09:11:03 +0200 (Sat, 23 Nov 2019) $
#$Revision: 232661 $
#$URL: file:///home/coder/svn-repositories/cod/cif/4/34/80/4348028.cif $
#------------------------------------------------------------------------------
#
# This file is available in the Crystallography Open Database (COD),
# http://www.crystallography.net/
#
# All data on this site have been placed in the public domain by the
# contributors.
#
data_4348028
loop_
_publ_author_name
'Zhang, Jie'
'Li, Zijian'
'Gong, Wei'
'Han, Xing'
'Liu, Yan'
'Cui, Yong'
_publ_section_title
;
 Chiral DHIP-Based Metal-Organic Frameworks for Enantioselective
 Recognition and Separation.
;
_journal_issue                   15
_journal_name_full               'Inorganic chemistry'
_journal_page_first              7229
_journal_page_last               7232
_journal_paper_doi               10.1021/acs.inorgchem.6b00894
_journal_volume                  55
_journal_year                    2016
_chemical_absolute_configuration rmad
_chemical_formula_moiety         'C70 H48 Cd3 N8 O12'
_chemical_formula_sum            'C70 H48 Cd3 N8 O12'
_chemical_formula_weight         1530.36
_space_group_crystal_system      orthorhombic
_space_group_IT_number           19
_space_group_name_Hall           'P 2ac 2ab'
_space_group_name_H-M_alt        'P 21 21 21'
_atom_sites_solution_hydrogens   geom
_audit_creation_date             2014-10-29
_audit_creation_method
;
Olex2 1.2
(compiled 2014.08.28 svn.r2986 for OlexSys, GUI svn.r4874)
;
_cell_angle_alpha                90
_cell_angle_beta                 90
_cell_angle_gamma                90
_cell_formula_units_Z            4
_cell_length_a                   11.6274(18)
_cell_length_b                   19.663(4)
_cell_length_c                   32.678(6)
_cell_measurement_reflns_used    2989
_cell_measurement_temperature    259(2)
_cell_measurement_theta_max      21.67
_cell_measurement_theta_min      2.39
_cell_volume                     7471(2)
_computing_molecular_graphics    'Olex2 (Dolomanov et al., 2009)'
_computing_publication_material  'Olex2 (Dolomanov et al., 2009)'
_computing_structure_refinement  'ShelXL (Sheldrick, 2008)'
_diffrn_ambient_temperature      259.15
_diffrn_measured_fraction_theta_full 0.976
_diffrn_measured_fraction_theta_max 0.963
_diffrn_measurement_device_type  'Bruker APEX-II CCD'
_diffrn_measurement_method       '\f and \w scans'
_diffrn_radiation_monochromator  graphite
_diffrn_radiation_type           MoK\a
_diffrn_radiation_wavelength     0.71073
_diffrn_reflns_av_R_equivalents  0.0526
_diffrn_reflns_av_unetI/netI     0.1115
_diffrn_reflns_Laue_measured_fraction_full 0.976
_diffrn_reflns_Laue_measured_fraction_max 0.963
_diffrn_reflns_limit_h_max       14
_diffrn_reflns_limit_h_min       -11
_diffrn_reflns_limit_k_max       25
_diffrn_reflns_limit_k_min       -7
_diffrn_reflns_limit_l_max       28
_diffrn_reflns_limit_l_min       -42
_diffrn_reflns_number            18498
_diffrn_reflns_point_group_measured_fraction_full 0.899
_diffrn_reflns_point_group_measured_fraction_max 0.862
_diffrn_reflns_theta_full        25.242
_diffrn_reflns_theta_max         27.528
_diffrn_reflns_theta_min         1.620
_diffrn_standards_number         0
_exptl_absorpt_coefficient_mu    0.906
_exptl_absorpt_correction_type   none
_exptl_crystal_colour            colorless
_exptl_crystal_density_diffrn    1.361
_exptl_crystal_description       block
_exptl_crystal_F_000             3056
_exptl_crystal_size_max          0.35
_exptl_crystal_size_mid          0.27
_exptl_crystal_size_min          0.16
_refine_diff_density_max         1.500
_refine_diff_density_min         -0.731
_refine_diff_density_rms         0.125
_refine_ls_abs_structure_details
;
 Flack x determined using 2588 quotients [(I+)-(I-)]/[(I+)+(I-)]
 (Parsons, Flack and Wagner, Acta Cryst. B69 (2013) 249-259).
;
_refine_ls_abs_structure_Flack   0.07(3)
_refine_ls_extinction_method     none
_refine_ls_goodness_of_fit_ref   0.982
_refine_ls_hydrogen_treatment    constr
_refine_ls_matrix_type           full
_refine_ls_number_parameters     790
_refine_ls_number_reflns         14829
_refine_ls_number_restraints     215
_refine_ls_restrained_S_all      1.006
_refine_ls_R_factor_all          0.1340
_refine_ls_R_factor_gt           0.0750
_refine_ls_shift/su_max          0.015
_refine_ls_shift/su_mean         0.000
_refine_ls_structure_factor_coef Fsqd
_refine_ls_weighting_details
'w=1/[\s^2^(Fo^2^)+(0.1274P)^2^] where P=(Fo^2^+2Fc^2^)/3'
_refine_ls_weighting_scheme      calc
_refine_ls_wR_factor_gt          0.1884
_refine_ls_wR_factor_ref         0.2327
_reflns_Friedel_coverage         0.635
_reflns_Friedel_fraction_full    0.805
_reflns_Friedel_fraction_max     0.739
_reflns_number_gt                8307
_reflns_number_total             14829
_reflns_threshold_expression     'I > 2\s(I)'
_cod_data_source_file            ic6b00894_si_003.cif
_cod_data_source_block           p212121_sq
_cod_database_code               4348028
_shelxl_version_number           2014/6
_shelx_space_group_comment
;
The symmetry employed for this shelxl refinement is uniquely defined
by the following loop, which should always be used as a source of
symmetry information in preference to the above space-group names.
They are only intended as comments.
;
_olex2_refinement_description
;
1. Fixed Uiso
 At 1.2 times of:
  All C(H) groups, All C(H,H) groups
2. Restrained distances
 O12-O5
 2.01 with sigma of 0.02
 O5-C55 = O12-C55
 1.21 with sigma of 0.02
 O12-C61 \\sim C57-O5
 with sigma of 0.02
3. Restrained planarity
 C57, C56, C61, C55, O5, O12
 with sigma of 0.1
4. Rigid bond restraints
 C24, N8, C25
 with sigma for 1-2 distances of 0.01 and sigma for 1-3 distances of 0.01
 O1, C54, Cd3
 with sigma for 1-2 distances of 0.01 and sigma for 1-3 distances of 0.01
 O8, O7, C62, C59
 with sigma for 1-2 distances of 0.01 and sigma for 1-3 distances of 0.01
 C62, O8, C59, O7
 with sigma for 1-2 distances of 0.01 and sigma for 1-3 distances of 0.01
 C2, C1, C3, N1
 with sigma for 1-2 distances of 0.01 and sigma for 1-3 distances of 0.01
 O12, C55, O5, C56, C61, C57, Cd1
 with sigma for 1-2 distances of 0.01 and sigma for 1-3 distances of 0.01
 C55, O12, C56, O5
 with sigma for 1-2 distances of 0.01 and sigma for 1-3 distances of 0.01
 C63, O10, Cd2
 with sigma for 1-2 distances of 0.01 and sigma for 1-3 distances of 0.01
 C60, C61
 with sigma for 1-2 distances of 0.01 and sigma for 1-3 distances of 0.01
 C60, C59
 with sigma for 1-2 distances of 0.01 and sigma for 1-3 distances of 0.01
 C48, C49
 with sigma for 1-2 distances of 0.01 and sigma for 1-3 distances of 0.01
 C48, C53
 with sigma for 1-2 distances of 0.01 and sigma for 1-3 distances of 0.01
 C45, N5
 with sigma for 1-2 distances of 0.01 and sigma for 1-3 distances of 0.01
 C45, C46
 with sigma for 1-2 distances of 0.01 and sigma for 1-3 distances of 0.01
 O12, C55
 with sigma for 1-2 distances of 0.01 and sigma for 1-3 distances of 0.01
 O5, C55
 with sigma for 1-2 distances of 0.01 and sigma for 1-3 distances of 0.01
5. Uiso/Uaniso restraints and constraints
C24 \\sim C27 \\sim N8: within 1.7A with sigma of 0.04 and sigma for terminal
atoms of 0.08
O1 \\sim C54 \\sim Cd3: within 1.7A with sigma of 0.04 and sigma for terminal
atoms of 0.08
O8 \\sim O7 \\sim C62 \\sim C59: within 1.7A with sigma of 0.04 and sigma for
terminal atoms of 0.08
C3 \\sim C2 \\sim C1 \\sim N1: within 1.7A with sigma of 0.04 and sigma for
terminal atoms of 0.08
C61 \\sim C56 \\sim C57 \\sim C55 \\sim O12 \\sim O5 \\sim Cd1: within 1.7A
with sigma of 0.04 and sigma for terminal atoms of 0.08
O10 \\sim C63 \\sim Cd2: within 1.7A with sigma of 0.04 and sigma for terminal
atoms of 0.08
C60 \\sim C61: within 1.7A with sigma of 0.04 and sigma for terminal atoms of
0.08
C60 \\sim C59: within 1.7A with sigma of 0.04 and sigma for terminal atoms of
0.08
C48 \\sim C49: within 1.7A with sigma of 0.04 and sigma for terminal atoms of
0.08
C48 \\sim C53: within 1.7A with sigma of 0.04 and sigma for terminal atoms of
0.08
C43 \\sim C42: within 1.7A with sigma of 0.04 and sigma for terminal atoms of
0.08
C44 \\sim N5: within 1.7A with sigma of 0.04 and sigma for terminal atoms of
0.08
C70 \\sim C67: within 1.7A with sigma of 0.04 and sigma for terminal atoms of
0.08
C21 \\sim C20: within 1.7A with sigma of 0.04 and sigma for terminal atoms of
0.08
N4 \\sim C21: within 1.7A with sigma of 0.04 and sigma for terminal atoms of
0.08
C38 \\sim C39: within 1.7A with sigma of 0.04 and sigma for terminal atoms of
0.08
C37 \\sim C36: within 1.7A with sigma of 0.04 and sigma for terminal atoms of
0.08
C44 \\sim N5: within 1.7A with sigma of 0.04 and sigma for terminal atoms of
0.08
C1 \\sim N1: within 1.7A with sigma of 0.04 and sigma for terminal atoms of 0.08
C2 \\sim C3: within 1.7A with sigma of 0.04 and sigma for terminal atoms of 0.08
O12 \\sim C55: within 1.7A with sigma of 0.01 and sigma for terminal atoms of
0.08
O5 \\sim C55: within 1.7A with sigma of 0.01 and sigma for terminal atoms of
0.08
C55 \\sim O5: within 1.7A with sigma of 0.01 and sigma for terminal atoms of
0.08
Uanis(C62) \\sim Ueq: with sigma of 0.001 and sigma for terminal atoms of 0.002
Uanis(C55) \\sim Ueq: with sigma of 0.001 and sigma for terminal atoms of 0.002
6.a Ternary CH refined with riding coordinates:
 C35(H35), C12(H12)
6.b Secondary CH2 refined with riding coordinates:
 C11(H11A,H11B), C34(H34A,H34B)
6.c Aromatic/amide H refined with riding coordinates:
 C7(H7), C46(H46), C5(H5), C44(H44), C10(H10), C69(H69), C37(H37), C45(H45),
 C8(H8), C22(H22), C57(H57), C58(H58), C60(H60), C61(H61), C40(H40), C43(H43),
 C68(H68), C23(H23), C24(H24), C27(H27), C26(H26), C25(H25), C66(H66), C41(H41),
  C2(H2), C32(H32), C4(H4), C65(H65), C33(H33), C50(H50), C49(H49), C53(H53),
 C52(H52), C1(H1), C15(H15), C17(H17), C18(H18), C14(H14), C30(H30), C38(H38),
 C20(H20), C21(H21)
6.d Fitted hexagon refined as free rotating group:
 C56(C57,C58,C59,C60,C61), C24(C27,C28,C26,C25,N8), C51(C50,C49,C48,C53,C52),
 C15(C16,C17,C18,C13,C14)
;
_shelx_res_file
;
TITL P212121 in P2(1)2(1)2(1)
CELL 0.71073 11.6274 19.6627 32.6784 90 90 90
ZERR 4 0.0018 0.0036 0.0056 0 0 0
LATT -1
SYMM 0.5-X,-Y,0.5+Z
SYMM 0.5+X,0.5-Y,-Z
SYMM -X,0.5+Y,0.5-Z

SFAC C H Cd N O
UNIT 280 192 12 32 48
DFIX 2.01 O12 O5
DFIX 1.21 O5 C55 O12 C55
SADI O12 C61 C57 O5
FLAT C57 C56 C61 C55 O5 O12
DELU C24 N8 C25
DELU O1 C54 Cd3
DELU O8 O7 C62 C59
DELU C62 O8 C59 O7
DELU C2 C1 C3 N1
DELU O12 C55 O5 C56 C61 C57 Cd1
DELU C55 O12 C56 O5
DELU C63 O10 Cd2
DELU C60 C61
DELU C60 C59
DELU C48 C49
DELU C48 C53
DELU C45 N5
DELU C45 C46
DELU O12 C55
DELU O5 C55
SIMU 0.04 0.08 1.7 C24 C27 N8
SIMU 0.04 0.08 1.7 O1 C54 Cd3
SIMU 0.04 0.08 1.7 O8 O7 C62 C59
SIMU 0.04 0.08 1.7 C3 C2 C1 N1
SIMU 0.04 0.08 1.7 C61 C56 C57 C55 O12 O5 Cd1
SIMU 0.04 0.08 1.7 O10 C63 Cd2
SIMU 0.04 0.08 1.7 C60 C61
SIMU 0.04 0.08 1.7 C60 C59
SIMU 0.04 0.08 1.7 C48 C49
SIMU 0.04 0.08 1.7 C48 C53
SIMU 0.04 0.08 1.7 C43 C42
SIMU 0.04 0.08 1.7 C44 N5
SIMU 0.04 0.08 1.7 C70 C67
SIMU 0.04 0.08 1.7 C21 C20
SIMU 0.04 0.08 1.7 N4 C21
SIMU 0.04 0.08 1.7 C38 C39
SIMU 0.04 0.08 1.7 C37 C36
SIMU 0.04 0.08 1.7 C44 N5
SIMU 0.04 0.08 1.7 C1 N1
SIMU 0.04 0.08 1.7 C2 C3
SIMU 0.01 0.08 1.7 O12 C55
SIMU 0.01 0.08 1.7 O5 C55
SIMU 0.01 0.08 1.7 C55 O5
ISOR 0.001 0.002 C62
ISOR 0.001 0.002 C55

L.S. 4 147
PLAN  20
TEMP -14
FREE C9 C12
GRID
ABIN
fmap 2
acta
MERG 2
OMIT -4 1 14
OMIT -6 1 20
OMIT 0 1 1
OMIT -6 2 18
OMIT 0 1 16
OMIT 0 5 1
OMIT 0 0 16
OMIT 4 0 14
OMIT -1 7 5
OMIT -1 7 6
OMIT 0 3 15
OMIT 0 3 1
OMIT 0 6 1
OMIT 6 2 18
OMIT 6 1 20
OMIT 0 8 3
OMIT 1 7 6
OMIT -6 3 18
OMIT 0 6 2
OMIT 0 14 1
OMIT -5 1 18
OMIT 3 7 11
OMIT 4 1 14
OMIT 0 2 15
OMIT 0 15 1
OMIT 5 1 18
OMIT 6 0 1
OMIT 6 4 19
OMIT 6 3 17
OMIT 2 7 7
OMIT 6 3 18
OMIT -6 4 18
OMIT 0 7 1
OMIT -5 1 19
OMIT -6 2 19
OMIT 6 0 17
OMIT 1 7 4
OMIT -2 3 3
OMIT 1 0 5
OMIT 0 4 13
OMIT 0 4 4
OMIT -2 8 6
OMIT -2 7 8
OMIT -6 4 19
OMIT 6 4 18
OMIT 6 2 19
OMIT 5 1 19
OMIT -6 3 17
OMIT 6 0 18
OMIT -5 1 20
REM <HKL>E:/crystal/zhangjie/ZJ1124G/p212121_sq.hkl</HKL>

WGHT    0.127400
FVAR       0.06436
C47   1    0.940153    1.462169    0.441659    11.00000    0.02653    0.05795 =
         0.06866   -0.02476    0.00662    0.00339
C3    1    0.914172    0.534625   -0.023675    11.00000    0.06133    0.06022 =
         0.06659    0.01482    0.01534    0.00162
C7    1    1.001672    0.614063    0.025646    11.00000    0.06889    0.06035 =
         0.07385    0.01213   -0.02689   -0.00014
AFIX  43
H7    2    1.056155    0.580742    0.031313    11.00000   -1.20000
AFIX   0
C46   1    0.799513    0.928691    0.199662    11.00000    0.06034    0.06149 =
         0.07623   -0.00706    0.00809    0.01271
AFIX  43
H46   2    0.785079    0.971884    0.210060    11.00000   -1.20000
AFIX   0
C5    1    0.863409    0.456328   -0.077782    11.00000    0.05690    0.05008 =
         0.04997   -0.01427    0.00379   -0.01163
AFIX  43
H5    2    0.828839    0.450286   -0.103187    11.00000   -1.20000
AFIX   0
C64   1   -0.035167    1.114331    0.207684    11.00000    0.04768    0.08721 =
         0.09160    0.01684   -0.00333    0.02333
C44   1    0.841670    0.807286    0.169378    11.00000    0.13606    0.06310 =
         0.10456   -0.02865    0.04072   -0.03862
AFIX  43
H44   2    0.850092    0.764012    0.158288    11.00000   -1.20000
AFIX   0
C63   1    0.065388    1.091252    0.230281    11.00000    0.04172    0.07976 =
         0.12148    0.04979    0.01292    0.00258
C62   1    0.421277    1.140701    0.299119    11.00000    0.02825    0.02675 =
         0.02834    0.00007    0.00003    0.00222
C31   1    0.172972    0.905937    0.299558    11.00000    0.03434    0.07446 =
         0.04915    0.01158    0.01544   -0.00907
C9    1    0.928106    0.725123    0.036458    11.00000    0.03427    0.05743 =
         0.04382   -0.00101   -0.00965   -0.00452
C10   1    0.852298    0.650223   -0.011713    11.00000    0.04911    0.05342 =
         0.05580    0.00180   -0.00707   -0.00656
AFIX  43
H10   2    0.796623    0.643905   -0.031790    11.00000   -1.20000
AFIX   0
C69   1   -0.055732    1.095735    0.163678    11.00000    0.05129    0.06401 =
         0.09504   -0.01955   -0.02455    0.01736
AFIX  43
H69   2   -0.002439    1.069396    0.149565    11.00000   -1.20000
AFIX   0
C37   1    0.473485    0.850348    0.280687    11.00000    0.07759    0.06864 =
         0.09467    0.00925    0.05650   -0.01801
AFIX  43
H37   2    0.422378    0.815206    0.286357    11.00000   -1.20000
AFIX   0
C45   1    0.879337    0.919186    0.167767    11.00000    0.08822    0.07043 =
         0.06309   -0.00238    0.01876   -0.01750
AFIX  43
H45   2    0.915880    0.956731    0.156343    11.00000   -1.20000
AFIX   0
C35   1    0.355167    0.926131    0.324663    11.00000    0.03981    0.06220 =
         0.07792   -0.00405   -0.00929    0.00015
AFIX  13
H35   2    0.374382    0.964748    0.342345    11.00000   -1.20000
AFIX   0
C42   1    0.743870    0.873270    0.214968    11.00000    0.04074    0.06070 =
         0.06944   -0.00450    0.01049    0.00013
C8    1    1.012391    0.675661    0.048017    11.00000    0.06264    0.03493 =
         0.07397   -0.00013    0.00396    0.01437
AFIX  43
H8    2    1.068030    0.683047    0.067973    11.00000   -1.20000
AFIX   0
C39   1    0.648836    0.885931    0.249328    11.00000    0.05162    0.05086 =
         0.07440   -0.00505    0.00358   -0.00678
C67   1   -0.240268    1.149751    0.163845    11.00000    0.04324    0.04935 =
         0.06415    0.01717    0.01272    0.01784
C22   1    0.472793    1.038186    0.192642    11.00000    0.07805    0.05938 =
         0.08246   -0.01714    0.05599   -0.01837
AFIX  43
H22   2    0.495380    1.079131    0.204406    11.00000   -1.20000
AFIX  66
C56   1    0.690935    1.234968    0.352824    11.00000    0.07625    0.05809 =
         0.09713   -0.00413   -0.00183    0.00088
C57   1    0.604326    1.210044    0.378018    11.00000    0.08833    0.05749 =
         0.10161   -0.00261   -0.00060   -0.02394
AFIX  43
H57   2    0.609358    1.215602    0.406223    11.00000   -1.20000
AFIX  65
C58   1    0.510197    1.176813    0.361055    11.00000    0.07890    0.11187 =
         0.09782    0.02785   -0.00285   -0.02635
AFIX  43
H58   2    0.452250    1.160138    0.377911    11.00000   -1.20000
AFIX  65
C59   1    0.502676    1.168506    0.318899    11.00000    0.06916    0.06877 =
         0.06163    0.02309   -0.00365    0.00015
C60   1    0.589284    1.193430    0.293705    11.00000    0.06127    0.14719 =
         0.06275   -0.01715   -0.00600   -0.02604
AFIX  43
H60   2    0.584252    1.187871    0.265500    11.00000   -1.20000
AFIX  65
C61   1    0.683414    1.226661    0.310667    11.00000    0.09343    0.13819 =
         0.09206   -0.02148   -0.01805   -0.04323
AFIX  43
H61   2    0.741361    1.243337    0.293811    11.00000   -1.20000
AFIX   0
C40   1    0.640219    0.944512    0.268941    11.00000    0.08234    0.05929 =
         0.08246   -0.02569    0.01856   -0.01273
AFIX  43
H40   2    0.696876    0.977184    0.264812    11.00000   -1.20000
AFIX   0
C6    1    0.921326    0.597775   -0.003116    11.00000    0.06600    0.04641 =
         0.04915   -0.00575    0.00115    0.00243
C43   1    0.763553    0.814327    0.201626    11.00000    0.07262    0.08278 =
         0.08503   -0.00756    0.02004   -0.01652
AFIX  43
H43   2    0.727194    0.776588    0.212892    11.00000   -1.20000
AFIX   0
C11   1    0.776127    0.773845   -0.001539    11.00000    0.07268    0.09665 =
         0.06768   -0.04290   -0.00487    0.02436
AFIX  23
H11A  2    0.779653    0.789717   -0.029616    11.00000   -1.20000
H11B  2    0.696925    0.764703    0.005989    11.00000   -1.20000
AFIX   0
C68   1   -0.154503    1.118096    0.144347    11.00000    0.07473    0.06991 =
         0.13517   -0.00835   -0.04998    0.00459
AFIX  43
H68   2   -0.161659    1.110745    0.116349    11.00000   -1.20000
AFIX   0
C23   1    0.538756    1.009357    0.163550    11.00000    0.07478    0.04324 =
         0.07113    0.00395    0.00267   -0.00704
AFIX  43
H23   2    0.603617    1.033081    0.154975    11.00000   -1.20000
AFIX  66
C24   1   -0.197587    0.725139    0.399276    11.00000    0.05354    0.14805 =
         0.13350    0.05006   -0.00081   -0.03354
AFIX  43
H24   2   -0.200577    0.715202    0.427080    11.00000   -1.20000
AFIX  65
C27   1   -0.100783    0.756395    0.382869    11.00000    0.05503    0.12289 =
         0.09869    0.03598    0.00819    0.00367
AFIX  43
H27   2   -0.039006    0.767371    0.399695    11.00000   -1.20000
AFIX  65
C28   1   -0.096314    0.771246    0.341313    11.00000    0.08083    0.06054 =
         0.06875    0.01353   -0.02032   -0.00372
C26   1   -0.188648    0.754840    0.316164    11.00000    0.07202    0.11712 =
         0.08645    0.04293   -0.01563   -0.03824
AFIX  43
H26   2   -0.185657    0.764776    0.288360    11.00000   -1.20000
AFIX  65
C25   1   -0.285452    0.723584    0.332570    11.00000    0.05183    0.08312 =
         0.08989    0.02926    0.01929   -0.01048
AFIX  43
H25   2   -0.347229    0.712608    0.315744    11.00000   -1.20000
AFIX  65
N8    4   -0.289923    0.708733    0.374126    11.00000    0.08351    0.09236 =
         0.08642    0.02797    0.00960   -0.03862
AFIX   0
C66   1   -0.226803    1.169045    0.201230    11.00000    0.06391    0.15110 =
         0.10345    0.03354    0.03389    0.04665
AFIX  43
H66   2   -0.281733    1.196954    0.213311    11.00000   -1.20000
AFIX   0
C41   1    0.546081    0.960124    0.296683    11.00000    0.04234    0.11147 =
         0.08646   -0.01869    0.01275   -0.01218
AFIX  43
H41   2    0.542036    1.000486    0.311450    11.00000   -1.20000
AFIX   0
C54   1    1.000988    1.700024    0.542760    11.00000    0.11750    0.05919 =
         0.12649   -0.04907    0.05248   -0.01066
C2    1    0.965911    0.471834   -0.002387    11.00000    0.17719    0.06279 =
         0.13994   -0.03083   -0.08661    0.04443
AFIX  43
H2    2    0.992505    0.472624    0.024449    11.00000   -1.20000
AFIX   0
C32   1    0.066587    0.905681    0.277152    11.00000    0.05657    0.12034 =
         0.07092    0.03438   -0.01114   -0.02126
AFIX  43
H32   2    0.054076    0.932073    0.253959    11.00000   -1.20000
AFIX   0
C4    1    0.855098    0.519281   -0.059844    11.00000    0.04041    0.05862 =
         0.07077    0.00356   -0.00443   -0.00215
AFIX  43
H4    2    0.809290    0.552405   -0.071969    11.00000   -1.20000
AFIX   0
C65   1   -0.120863    1.146517    0.226248    11.00000    0.07146    0.12071 =
         0.08186   -0.02144    0.01101   -0.00907
AFIX  43
H65   2   -0.117098    1.155442    0.254164    11.00000   -1.20000
AFIX   0
C29   1   -0.002615    0.817446    0.326084    11.00000    0.05420    0.09670 =
         0.05694   -0.00007   -0.01959   -0.01208
C36   1    0.460099    0.908151    0.299370    11.00000    0.03445    0.06278 =
         0.08140    0.01505    0.00698    0.00328
C33   1   -0.013921    0.863209    0.293090    11.00000    0.05269    0.07603 =
         0.09285    0.02243   -0.01068   -0.02478
AFIX  43
H33   2   -0.085807    0.864466    0.280636    11.00000   -1.20000
AFIX  66
C51   1    0.975735    1.641788    0.513916    11.00000    0.08158    0.07177 =
         0.12474    0.00631    0.00152   -0.02093
C50   1    0.912103    1.588095    0.529818    11.00000    0.13967    0.07948 =
         0.16203   -0.04302    0.06592   -0.06536
AFIX  43
H50   2    0.878549    1.591913    0.555550    11.00000   -1.20000
AFIX  65
C49   1    0.898622    1.528693    0.507262    11.00000    0.12842    0.05758 =
         0.12387   -0.03320    0.07580   -0.03668
AFIX  43
H49   2    0.856048    1.492769    0.517901    11.00000   -1.20000
AFIX  65
C48   1    0.948772    1.522986    0.468803    11.00000    0.06244    0.06730 =
         0.06917    0.00494    0.00343   -0.00573
C53   1    1.012404    1.576679    0.452901    11.00000    0.18565    0.05159 =
         0.08905   -0.00751    0.00641   -0.06007
AFIX  43
H53   2    1.045957    1.572860    0.427169    11.00000   -1.20000
AFIX  65
C52   1    1.025886    1.636080    0.475456    11.00000    0.12302    0.06366 =
         0.08075    0.01581    0.01872   -0.02335
AFIX  43
H52   2    1.068460    1.672005    0.464817    11.00000   -1.20000
AFIX   0
C70   1   -0.351762    1.167172    0.141718    11.00000    0.05096    0.04734 =
         0.11166   -0.01494    0.02176   -0.01041
C1    1    0.969450    0.414522   -0.026417    11.00000    0.20328    0.05478 =
         0.12586   -0.03489   -0.08199    0.01857
AFIX  43
H1    2    1.013557    0.378198   -0.017148    11.00000   -1.20000
AFIX  66
C15   1    0.599045    0.847532    0.111774    11.00000    0.10557    0.03577 =
         0.12378   -0.00244    0.03582   -0.01051
AFIX  43
H15   2    0.552353    0.821104    0.128539    11.00000   -1.20000
AFIX  65
C16   1    0.597644    0.917965    0.115375    11.00000    0.04775    0.04954 =
         0.04840    0.00862   -0.02071    0.00387
C17   1    0.667430    0.957465    0.090319    11.00000    0.07683    0.03280 =
         0.09747   -0.00030    0.01258    0.00713
AFIX  43
H17   2    0.666493    1.004589    0.092728    11.00000   -1.20000
AFIX  65
C18   1    0.738616    0.926531    0.061661    11.00000    0.08108    0.04072 =
         0.07080   -0.00250    0.03306   -0.00020
AFIX  43
H18   2    0.785307    0.952960    0.044896    11.00000   -1.20000
AFIX  65
C13   1    0.740018    0.856098    0.058059    11.00000    0.06541    0.03856 =
         0.04380    0.00060    0.00752    0.00950
C14   1    0.670232    0.816598    0.083116    11.00000    0.09529    0.04080 =
         0.07956   -0.00490    0.01906    0.01494
AFIX  43
H14   2    0.671170    0.769473    0.080706    11.00000   -1.20000
AFIX   0
C34   1    0.302459    0.872326    0.350021    11.00000    0.04406    0.08361 =
         0.05805    0.01472    0.00636    0.01652
AFIX  23
H34A  2    0.294031    0.887271    0.378150    11.00000   -1.20000
H34B  2    0.348684    0.831269    0.349512    11.00000   -1.20000
AFIX   0
C12   1    0.831541    0.820288    0.026576    11.00000    0.08395    0.04800 =
         0.06395    0.00816   -0.01987    0.00060
AFIX  13
H12   2    0.867719    0.856397    0.010402    11.00000   -1.20000
AFIX   0
C30   1    0.103935    0.813417    0.345810    11.00000    0.05889    0.09783 =
         0.06091   -0.00018   -0.01852    0.00714
AFIX  43
H30   2    0.119110    0.782927    0.366886    11.00000   -1.20000
AFIX   0
C38   1    0.563294    0.838620    0.251865    11.00000    0.05483    0.07476 =
         0.17166   -0.00772    0.05577   -0.00547
AFIX  43
H38   2    0.563587    0.800080    0.235367    11.00000   -1.20000
AFIX   0
C19   1    0.518486    0.951045    0.146651    11.00000    0.06072    0.04815 =
         0.05857    0.01825   -0.00791   -0.00582
C20   1    0.421273    0.919490    0.159710    11.00000    0.05555    0.06304 =
         0.08787   -0.03549    0.01884   -0.02303
AFIX  43
H20   2    0.400782    0.877652    0.148619    11.00000   -1.20000
AFIX   0
C21   1    0.350550    0.949748    0.190146    11.00000    0.06337    0.11284 =
         0.05850    0.00487    0.01536   -0.03738
AFIX  43
H21   2    0.285748    0.926918    0.199610    11.00000   -1.20000
AFIX   0
CD1   3    0.974047    1.341904    0.401765    11.00000    0.05024    0.05025 =
         0.05543    0.00316    0.00073    0.00055
CD3   3    1.035713    1.806426    0.595224    11.00000    0.05819    0.03882 =
         0.08697    0.00082    0.00530    0.00551
CD2   3    0.264414    1.046649    0.259835    11.00000    0.04953    0.05747 =
         0.06170    0.00055    0.00385    0.00148
N5    4    0.903837    0.855657    0.153380    11.00000    0.06108    0.07331 =
         0.04312   -0.00374   -0.00027    0.00748
N3    4    0.919007    0.787882    0.049803    11.00000    0.04303    0.03674 =
         0.07043   -0.01728   -0.01199    0.01144
N6    4    0.263008    0.948423    0.294594    11.00000    0.05858    0.07401 =
         0.07664    0.00572   -0.03389    0.01619
N2    4    0.857331    0.710296    0.006185    11.00000    0.05769    0.04329 =
         0.05913   -0.01634   -0.00737    0.00823
N7    4    0.187065    0.860294    0.330659    11.00000    0.03623    0.08056 =
         0.05978    0.00545   -0.01578    0.00396
N4    4    0.376118    1.008790    0.204647    11.00000    0.07175    0.04371 =
         0.06465   -0.00977    0.00519   -0.00883
N1    4    0.914082    0.406761   -0.062353    11.00000    0.08513    0.05124 =
         0.10152   -0.01977   -0.01614   -0.01012
O11   5   -0.355775    1.151301    0.105217    11.00000    0.07557    0.09922 =
         0.08786   -0.01166   -0.01856    0.03738
O6    5   -0.428032    1.195821    0.158953    11.00000    0.05059    0.07251 =
         0.15583    0.02122    0.01622    0.02540
O3    5    0.970034    1.459405    0.409620    11.00000    0.11973    0.08472 =
         0.06635    0.00543   -0.00294   -0.01733
O9    5    0.092873    1.117031    0.259747    11.00000    0.14294    0.16216 =
         0.10939   -0.02668   -0.01440    0.05590
O7    5    0.349192    1.095317    0.317933    11.00000    0.08267    0.16605 =
         0.08010    0.01068   -0.02801   -0.05274
O8    5    0.391108    1.137277    0.262557    11.00000    0.08176    0.08488 =
         0.08588   -0.00835    0.00706   -0.02690
O10   5    0.122682    1.048059    0.214318    11.00000    0.07908    0.15865 =
         0.17325   -0.02623   -0.05346    0.04937
O4    5    0.904995    1.409127    0.460306    11.00000    0.07602    0.06377 =
         0.10209   -0.01001    0.02401   -0.00835
O2    5    0.986098    1.699122    0.578359    11.00000    0.39312    0.07607 =
         0.18257   -0.06049    0.19253   -0.11693
O1    5    1.054227    1.748516    0.526980    11.00000    0.22495    0.06403 =
         0.10246    0.00305   -0.00351   -0.03680
C55   1    0.783891    1.265090    0.369496    11.00000    0.03552    0.03711 =
         0.03632   -0.00022   -0.00016    0.00043
O5    5    0.796259    1.281368    0.404075    11.00000    0.07821    0.12889 =
         0.11572   -0.00481    0.00317   -0.03638
O12   5    0.872654    1.276835    0.351758    11.00000    0.10189    0.17497 =
         0.10465   -0.03959   -0.00391   -0.03031
HKLF 4

REM  P212121 in P2(1)2(1)2(1)
REM R1 =  0.0750 for    8307 Fo > 4sig(Fo)  and  0.1340 for all   14829 data
REM    790 parameters refined using    215 restraints

END

WGHT      0.1264      0.0000

REM Highest difference peak  1.500,  deepest hole -0.731,  1-sigma level  0.125
Q1    1   0.4543  1.1488  0.2983  11.00000  0.05    1.02
Q2    1   0.2746  1.0770  0.2279  11.00000  0.05    0.72
Q3    1   1.0303  1.8103  0.5654  11.00000  0.05    0.63
Q4    1   0.3236  1.0742  0.2667  11.00000  0.05    0.63
Q5    1   0.9679  1.3222  0.4349  11.00000  0.05    0.61
Q6    1  -0.4223  1.1865  0.0968  11.00000  0.05    0.60
Q7    1   0.8366  1.3280  0.3469  11.00000  0.05    0.59
Q8    1   0.7764  1.3222  0.3982  11.00000  0.05    0.59
Q9    1   0.2640  1.0475  0.2923  11.00000  0.05    0.54
Q10   1   0.9061  1.3566  0.5385  11.00000  0.05    0.51
Q11   1   0.9257  1.3274  0.3968  11.00000  0.05    0.50
Q12   1   0.9657  1.6427  0.4820  11.00000  0.05    0.49
Q13   1   1.0046  1.8205  0.6318  11.00000  0.05    0.48
Q14   1   0.9561  1.3530  0.4339  11.00000  0.05    0.47
Q15   1   0.9166  1.3566  0.4412  11.00000  0.05    0.47
Q16   1   1.0412  1.7799  0.6055  11.00000  0.05    0.46
Q17   1   1.0342  1.7859  0.6246  11.00000  0.05    0.46
Q18   1   0.2754  1.0268  0.2263  11.00000  0.05    0.46
Q19   1   0.9753  1.3234  0.3724  11.00000  0.05    0.46
Q20   1  -0.2565  0.7330  0.3206  11.00000  0.05    0.45
;
_shelx_res_checksum              88250
_shelx_hkl_file
;
   1   0   0   -0.57    0.06
   2   0   0  489.80   20.52
   3   0   0    0.07    0.23
   4   0   0  304.61   12.85
   5   0   0   -0.48    0.30
   6   0   0    8.91    0.76
   7   0   0    0.46    0.43
   8   0   0   12.23    0.99
   9   0   0   -0.57    0.50
  10   0   0   13.87    1.23
  11   0   0    1.24    0.71
  12   0   0   -0.40    0.64
   1   1   0  267.54   11.22
   2   1   0   30.81    1.42
   2  -1   0   33.06    1.43
   3  -1   0  129.69    5.44
   3   1   0  125.05    5.43
   4   1   0   76.77    3.42
   4  -1   0   79.45    3.42
   5  -1   0  160.71    6.96
   5   1   0  163.53    6.96
   6  -1   0  213.98    9.18
   6   1   0  214.98    9.18
   7  -1   0    0.48    0.41
   7   1   0   -0.38    0.41
   8  -1   0   37.05    1.93
   8   1   0   36.86    1.93
   9  -1   0   16.70    1.22
   9   1   0   18.63    1.23
  10   1   0   46.71    2.48
  10  -1   0   48.92    2.50
  11  -1   0    0.06    0.65
  11   1   0   -0.77    0.63
   1   2   0  233.39    9.84
   2   2   0   94.67    4.06
   3   2   0   20.90    1.06
   4   2   0    6.87    0.61
   4  -2   0    7.80    0.56
   5  -2   0   50.14    2.31
   5   2   0   49.80    2.32
   6   2   0   54.99    2.53
   6  -2   0   52.52    2.52
   7  -2   0    1.78    0.49
   7   2   0    1.11    0.49
   8   2   0   18.58    1.21
   8  -2   0   17.50    1.21
   9  -2   0    4.19    0.72
   9   2   0    3.21    0.69
  10   2   0   13.27    1.19
  11   2   0    0.40    0.68
   1   3   0  119.27    5.12
   2   3   0  100.76    4.35
   3   3   0  121.59    5.25
   4   3   0    1.10    0.38
   5   3   0   41.52    1.99
   6   3   0    1.19    0.44
   7   3   0  236.06   10.14
   8   3   0    5.80    0.76
   9   3   0    8.07    0.91
  10   3   0    0.00    0.67
  11   3   0   33.39    1.95
   1   4   0 1000.00   41.87
   2   4   0  290.46   12.29
   3   4   0   67.95    3.05
   4   4   0    0.48    0.40
   5   4   0    2.87    0.52
   6   4   0   16.39    1.09
   7   4   0    8.48    0.87
   8   4   0    2.44    0.64
   9   4   0    8.77    0.94
  10   4   0   -0.06    0.64
  11   4   0   -1.29    0.66
   0   5   0   -0.50    0.21
   1   5   0    0.11    0.31
   2   5   0   62.94    2.86
   3   5   0    3.13    0.51
   4   5   0  105.49    4.66
   5   5   0   32.29    1.70
   6   5   0    0.95    0.51
   7   5   0   28.48    1.64
   8   5   0   18.28    1.28
   9   5   0   46.75    2.44
  10   5   0   -0.03    0.65
  11   5   0    7.90    1.02
   0   6   0   60.00    2.74
   1   6   0  127.82    5.57
   2   6   0  403.03   17.05
   3   6   0    0.51    0.42
   4   6   0   71.37    3.28
   5   6   0   78.01    3.60
   6   6   0   59.78    2.88
   7   6   0   35.11    1.93
   8   6   0    8.85    0.96
   9   6   0    6.96    0.98
  10   6   0    1.24    0.73
  11   6   0   13.69    1.25
   0   7   0    0.04    0.22
   1   7   0   51.77    2.45
   2   7   0   11.57    0.87
   3   7   0   45.85    2.25
   4   7   0   52.02    2.53
   5   7   0    9.66    0.95
   6   7   0  132.49    5.93
   7   7   0    4.15    0.79
   8   7   0    7.33    0.97
   9   7   0    4.48    0.88
  10   7   0   30.17    1.84
  11   7   0    7.92    1.06
   1   8   0   56.31    2.69
   2   8   0   12.62    0.98
   3   8   0  108.23    4.88
   4   8   0  102.24    4.64
   5   8   0   18.24    1.26
   6   8   0    2.17    0.74
   7   8   0    4.50    0.86
   8   8   0    6.67    0.98
   9   8   0   -1.04    0.67
  10   8   0    9.89    1.17
  11   8   0    3.33    0.89
   0   9   0    0.62    0.43
   1   9   0    7.97    0.84
   2   9   0   -0.28    0.50
   3   9   0    5.99    0.83
   4   9   0    4.90    0.77
   5   9   0   63.19    3.11
   6   9   0    0.99    0.71
   7   9   0    2.14    0.83
   8   9   0    7.65    1.07
   9   9   0   30.23    1.90
  10   9   0    0.16    0.73
  11   9   0    0.65    0.81
   0  10   0   82.78    3.86
  -1  10   0   27.09    1.57
   1  10   0   25.61    1.56
   2  10   0   84.54    3.96
   3  10   0   21.58    1.43
   4  10   0   46.84    2.46
   5  10   0    3.56    0.77
   6  10   0    3.36    0.88
   7  10   0   15.53    1.43
   8  10   0   30.93    1.98
   9  10   0    2.64    0.88
  10  10   0   -0.09    0.82
  11  10   0   -0.15    0.84
   0  11   0    0.39    0.52
  -1  11   0   52.13    2.66
   1  11   0   52.37    2.67
   2  11   0    3.79    0.78
   3  11   0   97.76    4.56
   4  11   0   15.00    1.26
   5  11   0    1.08    0.72
   6  11   0   -0.64    0.69
   7  11   0   10.68    1.28
   8  11   0    4.46    1.04
   9  11   0    0.52    0.81
  10  11   0   -0.85    0.79
  11  11   0    2.02    0.96
   0  12   0   11.11    1.09
  -1  12   0    3.55    0.74
   1  12   0    3.71    0.74
   2  12   0   47.42    2.55
   3  12   0    9.00    1.07
   4  12   0    7.57    1.08
   5  12   0    1.50    0.80
   6  12   0   14.36    1.40
   7  12   0    2.77    0.98
   8  12   0    3.68    1.03
   9  12   0    3.88    1.01
  10  12   0    2.51    1.01
  11  12   0    2.21    0.97
   0  13   0   -0.71    0.55
   1  13   0   22.04    1.58
  -1  13   0   22.00    1.53
   2  13   0    0.81    0.70
  -2  13   0    2.26    0.73
   3  13   0    6.04    1.00
   4  13   0    6.73    1.02
   5  13   0   18.23    1.52
   6  13   0    2.08    0.99
   7  13   0   12.96    1.43
   8  13   0    0.48    0.90
   9  13   0    0.86    0.93
  10  13   0    0.96    0.96
  11  13   0    0.35    0.91
   0  14   0    0.04    0.22
  -1  14   0    0.13    0.21
   1  14   0   -0.93    0.68
  -2  14   0   -0.57    0.65
   2  14   0   -1.31    0.68
   3  14   0    0.03    0.73
   4  14   0    5.40    1.02
   5  14   0    3.56    1.00
   6  14   0   -0.16    0.81
   7  14   0   17.04    1.55
   8  14   0    0.32    0.92
   9  14   0    1.50    0.99
  10  14   0    1.64    0.97
  11  14   0    2.55    1.05
   0  15   0    0.77    0.34
   1  15   0    3.18    0.93
   2  15   0    9.03    1.24
  -2  15   0   10.08    1.23
  -3  15   0   -0.28    0.76
   3  15   0    0.69    0.84
   4  15   0    0.02    0.82
   5  15   0    4.83    1.09
   6  15   0    1.14    0.89
   7  15   0    2.08    1.02
   8  15   0   -0.88    0.85
   9  15   0   -0.11    0.97
  10  15   0    0.08    0.95
  11  15   0    0.74    0.99
   0  16   0    4.90    0.90
   1  16   0    3.05    0.96
  -1  16   0    4.63    1.01
  -2  16   0    4.32    1.05
   2  16   0    4.83    1.08
  -3  16   0    2.26    0.93
   3  16   0    2.68    0.98
   4  16   0    0.70    0.91
   5  16   0    3.83    1.07
   6  16   0    1.48    1.01
   7  16   0   -0.61    0.88
   8  16   0   -0.88    0.87
   9  16   0    1.31    1.03
  10  16   0    1.92    1.07
  11  16   0   -1.84    0.92
   0  17   0    2.58    0.95
  -1  17   0    1.18    0.89
   1  17   0    3.75    1.04
   2  17   0    1.21    1.00
  -2  17   0    2.24    1.00
   3  17   0   13.30    1.52
  -3  17   0   12.40    1.47
   4  17   0    4.61    1.11
  -4  17   0    4.99    1.12
   5  17   0    0.45    0.97
   6  17   0    0.41    0.95
   7  17   0   14.04    1.60
   8  17   0    0.57    1.03
   9  17   0    1.63    1.11
  10  17   0    0.46    1.07
  11  17   0    2.03    1.20
   0  18   0    6.22    1.17
  -1  18   0    3.78    1.08
   1  18   0    4.95    1.14
  -2  18   0   14.84    1.62
   2  18   0   15.87    1.68
  -3  18   0   -0.31    0.84
   3  18   0    1.69    1.01
   4  18   0    1.44    1.00
  -4  18   0    0.10    0.88
  -5  18   0    2.26    1.00
   5  18   0    2.08    1.02
   6  18   0    0.06    0.97
   7  18   0    1.96    1.04
   8  18   0    3.10    1.16
   9  18   0    1.53    1.16
  10  18   0    0.40    1.08
   0  19   0   -0.27    0.90
  -1  19   0    3.86    1.09
   1  19   0    4.04    1.13
  -2  19   0    6.85    1.25
   2  19   0    6.18    1.25
   3  19   0    7.14    1.32
  -3  19   0    6.66    1.29
  -4  19   0    4.16    1.11
   4  19   0    3.28    1.10
   5  19   0    2.77    1.09
  -5  19   0    0.91    0.99
   6  19   0    5.20    1.25
  -6  19   0    7.37    1.33
  -7  19   0   -0.15    0.88
   7  19   0   -0.36    1.04
   8  19   0    0.75    1.05
   9  19   0    4.54    1.25
  10  19   0    0.58    1.15
   0  20   0   28.88    2.17
   1  20   0    0.60    0.95
  -1  20   0    2.11    1.01
   2  20   0    2.45    1.04
  -2  20   0    0.78    0.96
  -3  20   0    2.80    1.08
   3  20   0    0.77    1.01
   4  20   0    7.23    1.36
  -4  20   0    8.75    1.42
   5  20   0   -0.13    1.04
  -5  20   0    1.02    0.94
  -6  20   0    0.27    0.93
   6  20   0   -0.65    0.92
   7  20   0   -0.43    1.02
  -7  20   0    0.17    0.98
   8  20   0    0.86    1.14
  -8  20   0    1.35    1.00
   9  20   0    1.25    1.13
  -9  20   0    2.12    1.12
   0  21   0   -0.65    0.91
   1  21   0    6.33    1.31
  -1  21   0    6.12    1.24
  -2  21   0    0.40    0.98
   2  21   0    0.70    1.01
  -3  21   0    0.45    0.97
   3  21   0    1.01    1.08
  -4  21   0    2.66    1.13
   4  21   0    2.80    1.17
   5  21   0    5.96    1.36
  -5  21   0    5.03    1.26
  -6  21   0    2.23    1.08
   6  21   0    1.25    1.15
  -7  21   0   -1.43    0.86
   7  21   0    0.50    1.08
   8  21   0   -0.37    1.08
  -8  21   0    0.24    1.12
   0  22   0    0.29    1.00
  -1  22   0    3.84    1.24
   1  22   0    6.95    1.35
   2  22   0    7.06    1.40
  -2  22   0    7.79    1.45
   3  22   0    1.65    1.14
  -3  22   0    2.10    1.08
  -4  22   0    0.16    0.99
   4  22   0   -0.22    1.02
   5  22   0    0.53    1.10
  -5  22   0    0.32    1.07
   6  22   0    3.78    1.27
  -6  22   0    5.44    1.31
   7  22   0    0.74    1.24
  -7  22   0    0.62    1.11
   0  23   0   -0.29    1.02
  -1  23   0    1.76    1.16
   1  23   0    0.71    1.07
   2  23   0    2.02    1.15
  -2  23   0    1.24    1.08
  -3  23   0    5.34    1.39
   3  23   0    5.06    1.34
  -4  23   0    0.73    1.08
   4  23   0    0.50    1.13
  -5  23   0    0.97    1.11
   5  23   0    1.56    1.20
   6  23   0    2.99    1.32
  -6  23   0   -0.03    1.07
   0  24   0    0.13    1.10
  -1  24   0    2.77    1.25
   1  24   0    4.09    1.41
  -2  24   0   -0.30    1.06
   2  24   0    1.34    1.25
  -3  24   0    6.68    1.45
   3  24   0    6.58    1.49
  -4  24   0    0.83    1.09
   4  24   0    1.26    1.26
   5  24   0    1.77    1.24
  -5  24   0    1.08    1.11
   0  25   0   -1.32    1.03
   1  25   0    1.00    1.18
  -1  25   0    0.88    1.22
   2  25   0   -0.30    1.12
  -2  25   0   -0.71    1.05
  -3  25   0    0.48    1.17
   3  25   0    0.34    1.18
   1   0  -1   31.06    1.35
   1   0   1   29.55    1.31
   2   0  -1   40.03    1.76
   2   0   1   39.61    1.72
   3   0   1   19.03    0.94
   3   0  -1   19.86    0.98
   4   0  -1    0.91    0.33
   4   0   1    0.88    0.30
   5   0  -1    3.33    0.47
   5   0   1    3.01    0.43
   6   0   1    5.37    0.60
   6   0  -1    5.95    0.64
   7   0  -1   11.07    0.90
   7   0   1    9.44    0.84
   8   0   1   -0.02    0.50
   8   0  -1   -0.10    0.53
   9   0   1    0.70    0.55
   9   0  -1   -0.37    0.56
  10   0   1    4.98    0.80
  10   0  -1    4.65    0.87
  11   0   1   18.04    1.38
  11   0  -1   18.53    1.38
  12   0  -1    0.72    0.75
   0   1  -1   -0.32    0.01
   1   1  -1   20.64    0.90
   1   1   1   18.51    0.87
   1  -1  -1   20.18    0.89
   2  -1   1   34.02    1.55
   2   1  -1   34.41    1.58
   2   1   1   34.57    1.55
   2  -1  -1   37.59    1.58
   3  -1   1   19.56    1.00
   3   1  -1   22.43    1.06
   3  -1  -1   21.08    1.04
   3   1   1   19.33    1.01
   4   1  -1   41.06    1.89
   4  -1   1   41.91    1.86
   4   1   1   40.27    1.86
   4  -1  -1   39.37    1.89
   5   1  -1   18.45    1.02
   5  -1   1   16.72    0.93
   5  -1  -1   16.12    0.97
   5   1   1   15.53    0.94
   6  -1   1    6.08    0.63
   6   1  -1    4.43    0.61
   6   1   1    6.15    0.64
   6  -1  -1    6.62    0.67
   7   1  -1   12.76    0.96
   7  -1   1   11.65    0.91
   7   1   1   11.46    0.92
   7  -1  -1   14.09    0.99
   8  -1   1   22.07    1.33
   8   1  -1   21.98    1.35
   8  -1  -1   22.95    1.38
   8   1   1   21.30    1.31
   9  -1   1   -0.30    0.49
   9   1  -1    0.72    0.59
   9  -1  -1    0.36    0.58
   9   1   1    0.19    0.52
  10  -1   1   12.99    1.13
  10   1  -1   12.67    1.22
  10   1   1   11.98    1.11
  10  -1  -1   16.75    1.29
  11   1  -1    0.71    0.68
  11  -1  -1    0.07    0.66
  11   1   1   -0.93    0.68
  12   1  -1    7.63    1.04
  12  -1  -1    7.67    1.05
   0   2  -1   -0.06    0.02
   1   2  -1    2.83    0.26
   1   2   1    3.04    0.25
   2   2  -1   10.48    0.62
   2   2   1   11.68    0.62
   3   2  -1   89.76    4.05
   3  -2  -1   99.30    4.06
   3   2   1   91.06    4.03
   4   2  -1   19.88    1.04
   4  -2  -1   19.37    1.00
   4   2   1   16.78    0.99
   5   2  -1   13.31    0.86
   5  -2   1   12.24    0.82
   5   2   1   11.32    0.80
   5  -2  -1   13.41    0.85
   6   2  -1   48.93    2.26
   6  -2   1   43.87    2.22
   6   2   1   46.06    2.21
   6  -2  -1   47.70    2.25
   7  -2   1    1.21    0.45
   7   2  -1    0.94    0.53
   7   2   1    2.37    0.52
   7  -2  -1    0.78    0.51
   8  -2   1    2.24    0.59
   8   2  -1    3.52    0.69
   8   2   1    4.34    0.66
   8  -2  -1    3.70    0.68
   9   2  -1   24.36    1.51
   9  -2  -1   23.76    1.46
   9   2   1   22.61    1.43
  10   2  -1    2.51    0.79
  10   2   1    3.30    0.75
  10  -2  -1    3.22    0.79
  11   2  -1    3.53    0.86
  11   2   1    3.12    0.84
  12   2  -1   -0.18    0.69
   0   3  -1   -0.01    0.03
   1   3  -1  181.34    7.52
   1   3   1  172.95    7.50
   2   3  -1   43.22    1.98
   2   3   1   44.03    1.97
   3   3  -1   47.98    2.30
   3   3   1   52.35    2.28
   4   3  -1   47.32    2.19
   4   3   1   46.43    2.15
   5   3  -1   12.86    0.86
   5   3   1   10.93    0.81
   6   3  -1    1.06    0.47
   6  -3  -1   -0.09    0.43
   6   3   1    0.90    0.44
   7   3  -1   63.16    3.01
   7  -3  -1   65.76    3.01
   7   3   1   62.40    2.96
   8   3  -1    2.18    0.61
   8   3   1    2.49    0.60
   9   3  -1    5.61    0.82
   9   3   1    4.43    0.73
  10   3  -1    1.92    0.73
  10   3   1    2.60    0.73
  11   3  -1    2.40    0.80
  11   3   1    2.71    0.79
  12   3  -1    0.49    0.72
   0   4  -1    0.03    0.05
   1   4  -1   54.19    2.46
   1   4   1   55.46    2.46
   2   4  -1   82.50    3.46
   2   4   1   73.70    3.43
   3   4  -1   21.75    1.17
   3   4   1   22.00    1.16
   4   4  -1   64.70    2.91
   4   4   1   62.16    2.87
   5   4  -1   40.41    2.02
   5   4   1   41.79    1.99
   6   4  -1   20.39    1.24
   6   4   1   20.57    1.20
   7   4  -1    2.65    0.61
   7   4   1    3.80    0.62
   8   4  -1   26.91    1.56
   8   4   1   23.81    1.48
   9   4  -1    0.74    0.63
   9   4   1    1.36    0.62
  10   4  -1    5.54    0.92
  10   4   1    5.38    0.87
  11   4  -1    1.36    0.76
  11   4   1    1.06    0.70
  12   4  -1    4.12    0.88
   0   5  -1   -0.12    0.05
   1   5  -1  236.79   10.05
   1   5   1  235.44   10.04
   2   5  -1  117.93    5.20
   2   5   1  120.47    5.19
   3   5  -1   64.22    2.88
   3   5   1   61.54    2.87
   4   5  -1   11.44    0.89
   4   5   1   12.10    0.86
   5   5  -1   33.82    1.79
   5   5   1   35.72    1.78
   6   5  -1    7.26    0.80
   6   5   1    7.63    0.77
   7   5  -1    4.44    0.75
   7   5   1    5.25    0.74
   8   5  -1    2.52    0.69
   8   5   1    3.22    0.68
   9   5  -1   29.50    1.83
   9   5   1   31.66    1.79
  10   5  -1    1.88    0.77
  10   5   1    1.66    0.71
  11   5  -1    4.83    0.93
  11   5   1    3.39    0.81
  12   5  -1    0.40    0.76
   0   6  -1    0.02    0.06
   1   6  -1   55.47    2.61
   1   6   1   57.15    2.61
   2   6  -1   23.04    1.27
   2   6   1   21.91    1.25
   3   6  -1   31.88    1.69
   3   6   1   34.33    1.70
   4   6  -1  154.83    6.57
   4   6   1  145.33    6.52
   5   6  -1   27.88    1.56
   5   6   1   26.29    1.52
   6   6  -1   22.80    1.41
   6   6   1   24.12    1.43
   7   6  -1   29.42    1.72
   7   6   1   29.47    1.71
   8   6  -1   12.11    1.14
   8   6   1   10.16    1.01
   9   6  -1   16.09    1.36
   9   6   1   16.84    1.32
  10   6  -1    3.10    0.81
  10   6   1    2.44    0.78
  11   6  -1    3.07    0.86
  11   6   1    3.00    0.80
  12   6  -1    0.12    0.73
   0   7  -1    0.12    0.09
   1   7  -1  131.84    5.89
   1   7   1  137.39    5.90
   2   7  -1    0.71    0.43
   2   7   1    0.01    0.40
   3   7  -1  143.20    6.16
   3   7   1  136.46    6.13
   4   7  -1    0.43    0.51
   4   7   1    0.51    0.49
   5   7  -1   40.85    2.12
   5   7   1   41.06    2.09
   6   7  -1   39.08    2.13
   6   7   1   40.03    2.10
   7   7  -1    0.63    0.67
   7   7   1    0.89    0.63
   8   7  -1   10.47    1.09
   8   7   1    7.66    0.96
   9   7  -1    4.77    0.94
   9   7   1    6.27    0.96
  10   7  -1    8.73    1.09
  10   7   1    9.53    1.07
  11   7  -1    1.94    0.80
  11   7   1    2.11    0.78
  12   7  -1    0.24    0.76
   0   8   1    0.57    0.47
   1   8  -1   67.25    3.15
   1   8   1   67.78    3.15
   2   8  -1  155.48    6.82
   2   8   1  155.41    6.81
   3   8  -1   18.23    1.24
   3   8   1   20.50    1.26
   4   8  -1   12.92    1.06
   4   8   1   14.46    1.06
   5   8  -1   45.92    2.34
   5   8   1   43.02    2.28
   6   8  -1   40.88    2.15
   6   8   1   38.28    2.12
   7   8  -1   22.44    1.56
   7   8   1   27.07    1.63
   8   8  -1   14.78    1.34
   8   8   1   17.13    1.32
   9   8  -1   12.70    1.25
   9   8   1   10.90    1.21
  10   8  -1    4.56    0.89
  10   8   1    2.90    0.86
  11   8  -1    6.85    1.02
  11   8   1    6.88    1.03
  12   8  -1    1.68    0.87
   0   9   1   90.49    4.13
   1   9  -1   38.00    2.03
  -1   9  -1   39.76    2.03
   1   9   1   38.82    2.03
   2   9  -1   77.72    3.63
   2   9   1   77.08    3.61
   3   9  -1   44.27    2.37
   3   9   1   48.72    2.37
   4   9  -1   66.90    3.35
   4   9   1   73.40    3.36
   5   9  -1    7.24    0.91
   5   9   1    7.05    0.89
   6   9  -1    2.59    0.77
   6   9   1    1.75    0.76
   7   9  -1   38.95    2.24
   7   9   1   39.02    2.20
   8   9  -1   23.67    1.67
   8   9   1   22.93    1.61
   9   9  -1    2.08    0.87
   9   9   1    3.61    0.91
  10   9  -1    2.42    0.89
  10   9   1    3.48    0.88
  11   9  -1    3.09    0.90
  11   9   1    2.68    0.90
   1  10  -1   22.43    1.39
   1  10   1   23.40    1.45
  -1  10  -1   22.95    1.43
   2  10  -1   37.39    2.00
   2  10   1   34.45    1.96
   3  10  -1   55.53    2.83
   3  10   1   57.43    2.82
   4  10  -1   44.59    2.37
   4  10   1   44.59    2.35
   5  10  -1   -0.06    0.69
   5  10   1   -0.08    0.64
   6  10  -1   38.30    2.22
   6  10   1   40.14    2.24
   7  10  -1    7.27    1.08
   7  10   1    7.18    1.08
   8  10  -1   21.55    1.66
   8  10   1   22.48    1.65
   9  10  -1    2.18    0.85
   9  10   1    1.44    0.82
  10  10  -1   10.98    1.33
  10  10   1   11.41    1.27
  11  10  -1    0.19    0.78
  11  10   1    1.29    0.90
   0  11   1  121.71    5.53
   1  11  -1   35.32    2.00
  -1  11  -1   36.95    2.00
   1  11   1   34.67    1.98
   2  11  -1   67.81    3.28
   2  11   1   64.94    3.24
   3  11  -1   19.46    1.43
   3  11   1   20.20    1.42
   4  11  -1   47.77    2.59
   4  11   1   49.57    2.59
   5  11  -1    7.95    1.05
   5  11   1    9.41    1.08
   6  11  -1    5.57    1.01
   6  11   1    6.28    1.03
   7  11  -1   14.61    1.45
   7  11   1   13.71    1.36
   8  11  -1   13.84    1.43
   8  11   1   11.18    1.31
   9  11  -1   11.07    1.34
   9  11   1   12.09    1.30
  10  11  -1   -0.61    0.79
  10  11   1   -0.28    0.82
  11  11  -1    0.93    0.88
  11  11   1    1.64    0.86
   0  12   1   23.65    1.54
   1  12  -1   20.84    1.43
  -1  12  -1   18.52    1.37
   1  12   1   19.42    1.40
   2  12  -1   66.68    3.37
  -2  12  -1   69.78    3.35
   2  12   1   65.90    3.34
   3  12  -1   26.60    1.72
   3  12   1   25.73    1.68
   4  12  -1   13.42    1.31
   4  12   1   12.83    1.27
   5  12  -1   31.70    1.99
   5  12   1   33.80    2.02
   6  12  -1    8.65    1.23
   6  12   1   10.77    1.22
   7  12  -1   17.94    1.62
   7  12   1   19.68    1.62
   8  12  -1    8.57    1.23
   8  12   1    8.24    1.20
   9  12  -1   10.47    1.30
   9  12   1    9.63    1.28
  10  12  -1    3.32    1.03
  10  12   1    4.60    1.06
  11  12  -1    4.31    1.08
  11  12   1    4.64    1.05
   0  13  -1    0.11    0.27
   0  13   1    0.91    0.65
   1  13  -1   89.10    4.26
  -1  13  -1   88.58    4.25
   1  13   1   88.12    4.25
   2  13  -1    1.99    0.79
   2  13   1    2.33    0.78
  -2  13  -1    3.07    0.78
   3  13  -1   37.06    2.22
   3  13   1   37.97    2.19
   4  13  -1    4.85    0.97
   4  13   1    4.16    0.93
   5  13  -1   27.31    1.89
   5  13   1   29.68    1.91
   6  13  -1   38.12    2.35
   6  13   1   40.65    2.40
   7  13  -1    0.95    0.94
   7  13   1    2.39    0.94
   8  13  -1    4.85    1.11
   8  13   1    5.23    1.10
   9  13  -1    3.75    1.06
   9  13   1    3.88    1.04
  10  13  -1    5.89    1.19
  10  13   1    7.47    1.25
  11  13  -1    1.56    0.96
  11  13   1    1.57    1.00
   0  14  -1    0.16    0.18
   0  14   1    0.68    0.30
   1  14  -1    5.28    0.91
  -1  14  -1    2.33    0.57
   1  14   1    4.67    0.88
  -2  14   1    4.70    0.94
   2  14  -1    5.15    1.00
   2  14   1    4.53    0.95
  -2  14  -1    5.34    0.94
   3  14  -1   13.41    1.37
  -3  14  -1   13.39    1.33
   3  14   1   13.34    1.34
   4  14  -1   25.17    1.78
   4  14   1   24.81    1.84
   5  14  -1   22.73    1.72
   5  14   1   22.42    1.73
   6  14  -1    5.16    1.12
   6  14   1    5.03    1.05
   7  14  -1   20.11    1.65
   7  14   1   17.07    1.68
   8  14  -1    0.84    0.96
   8  14   1    0.00    0.90
   9  14  -1   10.07    1.40
   9  14   1   10.10    1.37
  10  14  -1   -0.91    0.87
  10  14   1    0.93    0.93
  11  14  -1    3.25    1.10
  11  14   1    2.88    1.12
   0  15   1   -0.04    0.25
   0  15  -1    0.61    0.28
   1  15  -1   17.99    1.45
   2  15  -1   18.41    1.56
  -2  15   1   16.70    1.49
   2  15   1   18.35    1.54
  -2  15  -1   19.59    1.53
   3  15  -1   13.24    1.44
  -3  15  -1   14.04    1.40
   3  15   1   13.86    1.42
   4  15  -1    1.66    0.92
   4  15   1    5.15    1.04
   5  15  -1   24.00    1.87
   5  15   1   22.82    1.79
   6  15  -1    2.99    1.02
   6  15   1    3.95    1.06
   7  15  -1    0.73    0.94
   7  15   1    0.41    0.95
   8  15  -1    5.03    1.17
   8  15   1    5.54    1.15
   9  15  -1   11.53    1.48
   9  15   1    9.62    1.39
  10  15  -1    1.17    1.00
  10  15   1    0.39    0.93
  11  15  -1    2.76    1.11
  11  15   1    0.85    1.02
   0  16  -1    0.39    0.53
   0  16   1    2.09    0.86
   1  16  -1   14.45    1.47
  -1  16   1   10.38    1.27
  -1  16  -1   16.44    1.56
   1  16   1   15.21    1.50
   2  16  -1   25.94    1.90
  -2  16   1   24.89    1.87
   2  16   1   25.72    1.89
  -2  16  -1   25.84    1.86
   3  16  -1   10.40    1.34
  -3  16   1   10.43    1.31
   3  16   1   10.53    1.36
  -3  16  -1   10.84    1.31
   4  16  -1   17.81    1.57
  -4  16  -1   15.63    1.56
   4  16   1   13.55    1.54
   5  16  -1   10.66    1.40
   5  16   1    9.46    1.37
   6  16  -1   12.98    1.50
   6  16   1   12.86    1.46
   7  16  -1    1.33    0.99
   7  16   1    0.94    0.92
   8  16  -1   10.98    1.50
   8  16   1    9.29    1.34
   9  16  -1    0.82    1.03
   9  16   1   -1.47    0.93
  10  16  -1    3.24    1.18
  10  16   1    3.34    1.14
  11  16  -1    0.23    1.03
  11  16   1   -1.00    0.94
   0  17  -1   53.56    2.95
   0  17   1   51.57    2.97
  -1  17   1    3.58    1.00
   1  17  -1    4.38    1.06
   1  17   1    5.37    1.13
  -1  17  -1    3.80    0.95
   2  17  -1   55.00    2.99
  -2  17   1   49.44    2.91
  -2  17  -1   51.31    2.94
   2  17   1   48.02    2.92
   3  17  -1   15.94    1.65
  -3  17   1   16.13    1.63
   3  17   1   14.52    1.55
  -3  17  -1   15.01    1.58
   4  17  -1   17.52    1.72
   4  17   1   16.07    1.69
  -4  17  -1   17.24    1.57
   5  17  -1   -0.46    0.89
  -5  17  -1    0.46    0.92
   5  17   1   -1.18    0.94
   6  17  -1    1.38    1.01
   6  17   1    2.69    1.07
   7  17  -1   10.25    1.46
   7  17   1   11.10    1.43
   8  17  -1    0.35    0.95
   8  17   1   -0.23    1.01
   9  17  -1    0.94    1.07
   9  17   1   -0.50    0.97
  10  17  -1   -0.62    1.00
  10  17   1   -0.90    1.00
  11  17  -1    0.42    1.16
   0  18  -1    1.82    0.87
   0  18   1   -0.42    0.87
   1  18  -1    7.85    1.30
  -1  18   1    5.92    1.18
  -1  18  -1    8.21    1.24
   1  18   1    6.89    1.26
   2  18  -1   23.77    1.92
  -2  18   1   22.09    1.86
  -2  18  -1   24.40    1.91
   2  18   1   26.43    1.99
  -3  18   1   11.71    1.44
   3  18  -1    8.89    1.37
   3  18   1    8.33    1.33
  -3  18  -1    9.33    1.33
  -4  18   1    4.72    1.16
   4  18  -1    4.29    1.16
   4  18   1    3.28    1.13
  -4  18  -1    3.39    1.08
   5  18  -1   -0.02    0.97
   5  18   1    3.28    1.16
  -5  18  -1    2.00    0.97
   6  18  -1   12.56    1.58
  -6  18  -1   13.05    1.52
   6  18   1    9.98    1.46
   7  18  -1    0.58    1.01
   7  18   1    1.62    1.05
   8  18  -1    9.82    1.50
   8  18   1    4.39    1.28
   9  18  -1    2.01    1.19
   9  18   1    2.50    1.17
  10  18  -1    1.80    1.18
  10  18   1    1.46    1.12
   0  19  -1    9.48    1.37
   0  19   1    8.61    1.35
   1  19  -1   13.98    1.60
  -1  19   1   12.90    1.53
   1  19   1   12.28    1.56
  -1  19  -1   10.46    1.45
  -2  19   1    9.84    1.40
   2  19  -1    5.23    1.22
   2  19   1    8.20    1.36
  -2  19  -1    5.08    1.18
   3  19  -1    8.30    1.39
  -3  19   1    9.58    1.39
  -3  19  -1    9.16    1.39
   3  19   1    8.02    1.40
  -4  19   1    8.35    1.34
   4  19  -1    7.46    1.34
   4  19   1    8.46    1.37
  -4  19  -1    8.72    1.37
  -5  19   1    5.66    1.21
   5  19  -1    5.07    1.23
   5  19   1    4.43    1.20
  -5  19  -1    5.85    1.19
   6  19  -1    1.12    1.01
  -6  19   1    2.50    1.01
  -6  19  -1    1.77    0.98
   6  19   1    2.02    1.07
   7  19  -1   -0.17    1.05
   7  19   1    1.27    1.07
  -7  19  -1   -0.96    0.85
   8  19  -1    2.51    1.22
  -8  19  -1    4.47    1.13
   8  19   1    2.82    1.18
   9  19  -1    2.51    1.22
   9  19   1    2.95    1.24
  -9  19  -1    3.65    1.11
  10  19  -1   -0.39    1.11
  10  19   1   -2.54    0.99
   0  20  -1    4.45    1.16
   0  20   1    3.18    1.11
  -1  20   1    3.04    1.04
   1  20  -1    4.41    1.16
   1  20   1    2.22    1.07
  -1  20  -1    1.41    0.99
  -2  20   1    1.46    1.04
   2  20  -1    1.73    1.11
  -2  20  -1    2.94    1.08
   2  20   1    2.93    1.11
  -3  20   1    0.70    0.97
   3  20  -1    1.88    1.06
   3  20   1    0.46    0.98
  -3  20  -1    1.73    1.00
  -4  20   1    3.41    1.10
   4  20  -1    1.10    1.04
   4  20   1    4.18    1.20
  -4  20  -1    3.63    1.12
   5  20  -1    2.72    1.19
  -5  20   1    0.88    0.96
  -5  20  -1    2.07    1.03
   5  20   1    2.34    1.11
  -6  20   1    0.43    0.93
   6  20  -1   -1.45    0.93
   6  20   1    0.05    0.99
  -6  20  -1    0.71    0.94
  -7  20   1    6.36    1.29
   7  20  -1    6.28    1.39
  -7  20  -1    6.50    1.35
   7  20   1    6.49    1.40
   8  20  -1    0.20    1.05
  -8  20  -1    0.63    1.03
   8  20   1    0.12    1.06
   9  20  -1    1.87    1.28
  -9  20  -1    3.80    1.22
   9  20   1    3.86    1.30
   0  21   1    0.65    0.95
   0  21  -1    0.13    0.95
   1  21  -1    6.47    1.35
  -1  21   1    4.69    1.24
   1  21   1    7.72    1.40
  -1  21  -1    7.58    1.35
  -2  21   1   -0.09    0.91
   2  21  -1    2.64    1.11
   2  21   1   -0.57    0.97
  -2  21  -1    0.21    0.98
  -3  21   1    3.85    1.18
   3  21  -1    3.79    1.20
   3  21   1    2.99    1.16
  -3  21  -1    4.12    1.16
   4  21  -1    0.66    1.07
  -4  21   1    0.00    0.95
   4  21   1    1.34    1.05
  -4  21  -1    0.40    1.00
  -5  21   1    1.42    1.07
   5  21  -1    2.07    1.14
  -5  21  -1    0.88    1.00
   5  21   1    3.26    1.20
  -6  21   1    1.62    1.07
   6  21  -1    1.66    1.19
   6  21   1    1.90    1.16
  -6  21  -1    2.20    1.09
  -7  21   1    0.49    1.10
   7  21  -1   -0.14    1.09
   7  21   1    0.06    1.10
  -7  21  -1    1.11    1.02
   8  21  -1    1.40    1.21
  -8  21   1    1.18    1.03
   8  21   1    0.53    1.21
  -8  21  -1   -0.69    0.92
   0  22   1    2.57    1.10
   0  22  -1   -0.48    0.98
  -1  22   1    1.40    1.02
   1  22  -1    1.85    1.09
  -1  22  -1    0.14    0.96
   1  22   1    0.74    1.09
   2  22  -1    1.89    1.11
  -2  22   1    0.60    1.01
   2  22   1   -0.52    0.97
  -2  22  -1    2.54    1.18
   3  22  -1    0.41    1.04
  -3  22   1   -0.83    0.92
   3  22   1    0.77    1.06
  -3  22  -1   -0.40    0.94
  -4  22   1    2.23    1.11
   4  22  -1    1.21    1.13
   4  22   1    2.71    1.16
  -4  22  -1    1.75    1.10
   5  22  -1    2.86    1.25
  -5  22   1    3.69    1.23
  -5  22  -1    2.01    1.12
   5  22   1    4.06    1.28
   6  22  -1    1.07    1.12
  -6  22   1    0.46    1.07
   6  22   1    0.08    1.06
  -6  22  -1    0.95    1.06
   7  22  -1    0.29    1.12
  -7  22   1    1.44    1.11
  -7  22  -1    0.43    1.06
   7  22   1   -0.11    1.17
   0  23   1    0.05    1.05
   0  23  -1    1.53    1.13
   1  23  -1    0.10    1.02
  -1  23   1    1.10    1.08
   1  23   1   -0.02    1.10
  -1  23  -1    2.23    1.11
  -2  23   1    1.47    1.09
   2  23  -1    1.71    1.21
   2  23   1    2.03    1.21
  -2  23  -1    1.00    1.06
   3  23  -1   -0.36    1.08
  -3  23   1    1.27    1.13
  -3  23  -1    2.02    1.14
   3  23   1    0.32    1.12
  -4  23   1    3.06    1.21
   4  23  -1    1.82    1.22
   4  23   1    1.76    1.16
  -4  23  -1    0.85    1.08
   5  23  -1    0.41    1.19
  -5  23   1   -0.77    0.99
   5  23   1    1.73    1.24
  -5  23  -1    1.45    1.14
  -6  23   1    0.40    1.08
   6  23  -1    0.66    1.13
   6  23   1   -0.02    1.10
  -6  23  -1    0.68    1.18
   0  24  -1   -1.68    0.97
   0  24   1    0.32    1.09
  -1  24   1    1.04    1.14
   1  24  -1   -1.14    0.97
   1  24   1   -0.34    1.06
  -1  24  -1    0.81    1.11
   2  24  -1    1.48    1.19
  -2  24   1    1.04    1.09
  -2  24  -1    1.36    1.13
   2  24   1   -0.85    1.15
  -3  24   1    1.29    1.12
   3  24  -1   -0.85    1.10
   3  24   1    0.26    1.15
  -3  24  -1    0.01    1.04
  -4  24   1   -0.11    1.12
   4  24  -1    2.63    1.34
   4  24   1    4.47    1.33
  -4  24  -1    0.49    1.14
  -5  24   1    2.02    1.25
   5  24  -1    0.33    1.23
   5  24   1   -0.07    1.15
  -5  24  -1    0.44    1.13
   0  25  -1   -0.66    1.17
   0  25   1    0.75    1.16
   1  25  -1    0.35    1.15
  -1  25   1    0.03    1.10
  -1  25  -1    1.05    1.16
   1  25   1   -0.61    1.09
   2  25  -1    1.84    1.26
  -2  25   1    1.46    1.24
  -2  25  -1    1.79    1.24
   2  25   1    2.11    1.25
  -3  25   1    1.72    1.25
   3  25  -1    1.45    1.26
   3  25   1   -0.52    1.23
  -3  25  -1    0.36    1.17
   1   0  -2    7.50    0.40
   2   0  -2  516.48   21.42
   2   0   2  505.73   21.37
   3   0  -2   57.03    2.54
   3   0   2   56.65    2.47
   4   0  -2    1.33    0.34
   4   0   2    0.96    0.27
   5   0   2  138.36    5.87
   5   0  -2  135.28    5.93
   6   0  -2   72.80    3.35
   6   0   2   73.65    3.27
   7   0   2  121.21    5.31
   7   0  -2  121.50    5.38
   8   0  -2   14.18    1.08
   8   0   2   14.31    1.01
   9   0  -2   30.44    1.73
   9   0   2   29.38    1.66
  10   0  -2    1.75    0.73
  10   0   2    1.89    0.68
  11   0  -2   39.06    2.19
  11   0   2   35.39    2.04
  12   0  -2    0.42    0.78
   0   1  -2  132.78    5.63
   1   1  -2  476.70   19.65
   1   1   2  457.14   19.62
   1  -1  -2  473.05   19.64
   2   1  -2  146.65    6.45
   2   1   2  150.11    6.40
   2  -1  -2  159.00    6.46
   3  -1   2  571.49   24.44
   3   1  -2  571.56   24.50
   3   1   2  577.54   24.44
   3  -1  -2  615.49   24.51
   4  -1   2   48.27    2.12
   4   1  -2   49.59    2.20
   4  -1  -2   46.12    2.18
   4   1   2   46.30    2.12
   5  -1   2   73.80    3.24
   5   1  -2   69.58    3.29
   5  -1  -2   76.11    3.31
   5   1   2   74.16    3.23
   6  -1   2   17.88    1.03
   6   1  -2   19.32    1.13
   6   1   2   17.10    1.01
   6  -1  -2   16.14    1.10
   7   1  -2   49.49    2.47
   7  -1   2   52.93    2.41
   7   1   2   48.49    2.39
   7  -1  -2   51.83    2.48
   8  -1   2   12.60    0.94
   8   1  -2   11.54    1.02
   8  -1  -2   13.75    1.05
   8   1   2   12.60    0.94
   9  -1   2    1.99    0.59
   9   1  -2    3.34    0.72
   9  -1  -2    1.97    0.69
   9   1   2    2.81    0.62
  10   1  -2    3.27    0.84
  10   1   2    3.66    0.75
  10  -1  -2    2.72    0.80
  11   1  -2   14.61    1.34
  11   1   2   12.36    1.15
  11  -1  -2   13.29    1.30
  12   1  -2    7.04    1.05
  12  -1  -2    6.19    1.01
   0   2  -2  218.16    9.18
   1   2  -2   63.99    2.78
   1   2   2   64.26    2.75
   2   2  -2   44.18    2.03
   2  -2  -2   46.71    2.02
   2   2   2   44.22    1.98
   3   2  -2   14.77    0.80
   3   2   2   12.71    0.73
   3  -2  -2   10.63    0.75
   4   2  -2  166.19    7.01
   4  -2  -2  161.96    7.00
   4   2   2  161.20    6.94
   5   2  -2   72.13    3.38
   5   2   2   75.23    3.32
   5  -2  -2   77.54    3.38
   6   2  -2  150.53    6.63
   6   2   2  151.43    6.56
   6  -2  -2  154.59    6.63
   7   2  -2   32.19    1.83
   7  -2  -2   36.19    1.83
   7   2   2   34.27    1.73
   8   2  -2   57.49    2.76
   8   2   2   54.07    2.64
   8  -2  -2   56.01    2.74
   9   2  -2   14.51    1.22
   9   2   2   19.01    1.18
   9  -2  -2   17.51    1.26
  10   2  -2   40.49    2.21
  10  -2  -2   41.43    2.21
  10   2   2   38.76    2.11
  11   2  -2   13.08    1.30
  11  -2  -2   14.83    1.38
  11   2   2   13.74    1.19
  12   2  -2    3.60    0.90
   0   3  -2  368.14   15.48
   1   3  -2  184.53    7.72
   1   3   2  178.89    7.69
   2   3   2    6.83    0.50
   3   3  -2   37.92    1.80
   3   3   2   37.61    1.75
   4   3  -2   96.91    4.42
   4   3   2  103.35    4.38
   4  -3  -2  101.51    4.41
   5   3  -2   64.64    2.98
   5   3   2   66.54    2.94
   5  -3  -2   63.91    2.97
   6   3  -2   11.38    0.89
   6  -3  -2   10.65    0.83
   6   3   2    8.95    0.77
   7   3  -2    6.64    0.77
   7   3   2    5.70    0.69
   7  -3  -2    5.93    0.75
   8   3  -2   -0.36    0.54
   8   3   2   -0.22    0.46
   8  -3  -2   -0.09    0.53
   9   3  -2   28.20    1.72
   9   3   2   29.07    1.63
  10   3  -2   11.88    1.20
  10   3   2   11.79    1.09
  11   3  -2    0.60    0.75
  11   3   2    0.98    0.70
  12   3  -2    4.71    0.95
   0   4  -2   47.85    2.16
   1   4  -2  483.55   20.88
   1   4   2  509.05   20.87
   2   4  -2   43.55    2.10
   2   4   2   47.52    2.10
   3   4  -2    0.52    0.38
   3   4   2    0.44    0.33
   4   4  -2   54.31    2.45
   4   4   2   49.91    2.38
   5   4  -2   41.46    2.01
   5   4   2   39.80    1.94
   6   4  -2  113.07    5.00
   6   4   2  110.66    4.93
   7   4  -2   26.51    1.50
   7   4   2   24.14    1.41
   8   4  -2   35.42    1.89
   8   4   2   33.35    1.80
   9   4  -2   11.64    1.12
   9   4   2   10.97    0.99
  10   4  -2   25.91    1.69
  10   4   2   24.88    1.58
  11   4  -2    4.56    0.92
  11   4   2    4.67    0.83
  12   4  -2    4.86    0.95
   1   5  -2   69.61    3.00
   1   5   2   62.74    2.95
   2   5   2    3.47    0.48
   3   5  -2   44.76    2.07
   3   5   2   40.33    2.01
   4   5  -2   43.62    2.20
   4   5   2   47.04    2.16
   5   5  -2   33.99    1.72
   5   5   2   31.20    1.68
   6   5  -2   49.54    2.37
   6   5   2   44.75    2.26
   7   5  -2   31.56    1.68
   7   5   2   25.71    1.57
   8   5  -2    8.79    0.98
   8   5   2    9.52    0.92
   9   5  -2    2.63    0.78
   9   5   2    0.24    0.63
  10   5  -2   21.40    1.51
  10   5   2   21.93    1.43
  11   5  -2   -0.16    0.73
  11   5   2    0.07    0.67
  12   5  -2    6.37    1.05
   0   6  -2    0.07    0.10
   1   6  -2   31.10    1.62
  -1   6  -2   33.44    1.60
   1   6   2   30.92    1.59
   2   6  -2   21.07    1.25
   2   6   2   23.12    1.23
   3   6  -2   42.44    2.04
   3   6   2   40.31    2.00
   4   6  -2    9.15    0.82
   4   6   2    7.70    0.76
   5   6  -2   49.14    2.50
   5   6   2   53.31    2.48
   6   6  -2   31.18    1.75
   6   6   2   30.67    1.69
   7   6  -2   62.77    3.05
   7   6   2   61.15    2.97
   8   6  -2    4.83    0.85
   8   6   2    5.16    0.79
   9   6  -2   44.75    2.45
   9   6   2   46.29    2.39
  10   6  -2    3.75    0.88
  10   6   2    5.57    0.86
  11   6  -2    7.14    1.03
  11   6   2    8.50    1.01
  12   6  -2    0.67    0.78
   0   7  -2    0.08    0.09
   1   7  -2  219.28    9.37
   1   7   2  216.22    9.35
   2   7  -2    1.02    0.46
   2   7   2    1.21    0.44
   3   7  -2  104.38    4.55
   3   7   2   97.28    4.49
   4   7  -2   14.32    1.02
   4   7   2   11.03    0.98
   5   7  -2   44.27    2.22
   5   7   2   40.09    2.13
   6   7  -2    0.83    0.62
   6   7   2    1.24    0.61
   7   7  -2    2.37    0.77
   7   7   2    3.05    0.73
   8   7  -2   33.54    1.93
   8   7   2   30.10    1.81
   9   7  -2   17.97    1.41
   9   7   2   16.42    1.33
  10   7  -2    1.50    0.78
  10   7   2    0.45    0.69
  11   7  -2    4.80    0.93
  11   7   2    2.27    0.82
  12   7  -2    2.16    0.86
   0   8  -2    0.12    0.11
   1   8  -2    3.07    0.58
  -1   8  -2    2.89    0.54
   1   8   2    3.78    0.58
   2   8  -2   61.96    3.05
   2   8   2   66.98    3.04
   3   8  -2   31.78    1.72
   3   8   2   29.46    1.64
   4   8  -2   22.89    1.38
   4   8   2   20.22    1.35
   5   8  -2   32.12    1.82
   5   8   2   32.17    1.78
   6   8  -2   20.57    1.45
   6   8   2   22.78    1.45
   7   8  -2   28.36    1.81
   7   8   2   32.85    1.83
   8   8  -2   22.38    1.63
   8   8   2   23.10    1.59
   9   8  -2   11.03    1.22
   9   8   2   10.32    1.15
  10   8  -2    4.00    0.91
  10   8   2    5.11    0.91
  11   8  -2    3.19    0.84
  11   8   2    2.03    0.80
  12   8  -2    1.04    0.86
   1   9  -2   84.18    3.87
   1   9   2   84.33    3.85
  -1   9  -2   81.61    3.85
   2   9  -2   55.66    2.69
   2   9   2   53.00    2.65
   3   9  -2   37.41    2.08
   3   9   2   40.91    2.07
   4   9  -2    4.32    0.74
   4   9   2    3.67    0.71
   5   9  -2    6.66    0.92
   5   9   2    7.68    0.91
   6   9  -2   17.09    1.34
   6   9   2   17.11    1.33
   7   9  -2   14.67    1.36
   7   9   2   14.05    1.32
   8   9  -2    2.32    0.84
   8   9   2    4.36    0.92
   9   9  -2    3.11    0.91
   9   9   2    4.50    0.93
  10   9  -2    3.59    0.94
  10   9   2    5.10    0.92
  11   9  -2    3.95    0.96
  11   9   2    6.10    1.02
  12   9  -2    1.09    0.91
   0  10   2   87.92    4.08
   1  10  -2   19.68    1.35
  -1  10  -2   20.16    1.29
   1  10   2   20.70    1.36
   2  10  -2   25.77    1.60
  -2  10  -2   27.01    1.58
   2  10   2   25.96    1.57
   3  10  -2    4.43    0.81
   3  10   2    4.65    0.81
   4  10  -2   49.37    2.59
   4  10   2   51.16    2.58
   5  10  -2    3.20    0.80
   5  10   2    3.88    0.81
   6  10  -2   20.55    1.50
   6  10   2   20.07    1.50
   7  10  -2    4.18    0.98
   7  10   2    3.75    0.91
   8  10  -2   13.47    1.40
   8  10   2   13.39    1.34
   9  10  -2   -0.20    0.78
   9  10   2   -1.04    0.71
  10  10  -2    3.53    0.98
  10  10   2    4.07    0.96
  11  10  -2    0.60    0.89
  11  10   2    0.53    0.83
  12  10  -2    0.19    0.87
   1  11  -2   44.21    2.38
   1  11   2   45.85    2.39
  -1  11  -2   46.37    2.38
   2  11  -2   11.97    1.10
   2  11   2   11.20    1.11
  -2  11  -2   12.95    1.09
   3  11  -2   23.08    1.57
   3  11   2   23.58    1.54
   4  11  -2    0.13    0.67
   4  11   2    0.24    0.66
   5  11  -2   40.19    2.19
   5  11   2   35.01    2.11
   6  11  -2    3.82    0.98
   6  11   2    3.25    0.91
   7  11  -2   21.23    1.64
   7  11   2   21.13    1.61
   8  11  -2    5.07    1.08
   8  11   2    5.45    1.03
   9  11  -2    2.13    0.92
   9  11   2    3.61    0.99
  10  11  -2    1.07    0.90
  10  11   2    1.24    0.86
  11  11  -2    0.40    0.87
  11  11   2    1.46    0.90
  12  11  -2   -0.14    0.85
   1  12  -2    2.91    0.75
  -1  12  -2    2.20    0.71
   1  12   2    0.91    0.66
   2  12  -2   24.63    1.69
  -2  12  -2   26.40    1.67
   2  12   2   27.13    1.69
   3  12  -2    0.62    0.72
   3  12   2   -0.15    0.69
   4  12  -2   28.98    1.90
   4  12   2   27.74    1.84
   5  12  -2    2.90    0.89
   5  12   2    2.96    0.86
   6  12  -2   12.01    1.31
   6  12   2   10.25    1.24
   7  12  -2    5.05    1.07
   7  12   2    4.81    1.02
   8  12  -2   10.23    1.33
   8  12   2    8.80    1.20
   9  12  -2   -0.29    0.79
   9  12   2   -1.38    0.75
  10  12  -2    0.86    0.90
  10  12   2    1.12    0.88
  11  12  -2    0.71    0.92
  12  12  -2    0.69    0.98
   0  13  -2    0.19    0.14
   0  13   2   -0.11    0.62
   1  13  -2    5.99    0.95
  -1  13  -2    6.06    0.97
   1  13   2    8.05    1.04
   2  13  -2    4.77    0.92
   2  13   2    4.63    0.89
  -2  13  -2    5.01    0.90
   3  13  -2   20.34    1.54
   3  13   2   18.71    1.48
  -3  13  -2   19.00    1.45
   4  13  -2    3.15    0.93
   4  13   2    3.17    0.88
   5  13  -2    1.83    0.84
   5  13   2    1.07    0.87
   6  13  -2    3.10    1.03
   6  13   2    3.57    0.94
   7  13  -2    4.17    1.01
   7  13   2    5.03    1.04
   8  13  -2    6.18    1.17
   8  13   2    6.80    1.14
   9  13  -2   -0.17    0.88
   9  13   2   -0.02    0.87
  10  13  -2    3.62    1.04
  10  13   2    2.17    1.00
  11  13  -2   -0.45    0.99
   0  14   2    2.05    0.59
   1  14  -2    0.21    0.29
   1  14   2    1.56    0.78
  -1  14  -2    1.81    0.78
   2  14  -2   12.52    1.31
  -2  14  -2   11.13    1.24
   2  14   2   10.54    1.23
   3  14  -2    7.73    1.13
   3  14   2    8.16    1.12
  -3  14  -2    7.43    1.05
   4  14  -2   10.81    1.29
   4  14   2    9.29    1.24
   5  14  -2    6.46    1.13
   5  14   2    4.82    1.04
   6  14  -2    1.25    0.92
   6  14   2    0.14    0.89
   7  14  -2    2.21    0.98
   7  14   2    1.36    0.96
   8  14  -2    4.42    1.10
   8  14   2    3.71    1.05
   9  14  -2    2.34    1.03
   9  14   2    2.01    1.04
  10  14  -2    1.12    1.02
  10  14   2    0.87    0.96
  11  14  -2    1.77    1.00
   0  15   2   -0.39    0.40
   0  15  -2    0.35    0.23
  -1  15   2    0.12    0.20
   1  15  -2    0.08    0.34
   1  15   2    1.58    0.82
  -1  15  -2   -0.10    0.71
   2  15  -2    0.91    0.84
  -2  15   2    0.78    0.75
  -2  15  -2    1.11    0.83
   2  15   2    2.08    0.86
   3  15  -2    8.58    1.23
  -3  15  -2    8.12    1.16
   3  15   2    7.39    1.16
   4  15  -2    1.51    0.93
  -4  15  -2    0.55    0.85
   4  15   2    0.13    0.87
   5  15  -2    2.62    0.99
   5  15   2    2.04    1.02
   6  15  -2    4.26    1.14
   6  15   2    2.36    0.95
   7  15  -2    2.10    1.03
   7  15   2    2.35    1.00
   8  15  -2    2.23    1.07
   8  15   2    0.60    0.95
   9  15  -2    3.18    1.09
   9  15   2    2.09    1.03
  10  15  -2    1.46    1.06
  10  15   2    2.10    1.06
  11  15  -2   -0.07    0.98
   0  16   2    5.88    1.09
  -1  16   2   -0.05    0.64
   1  16  -2    2.01    0.93
  -1  16  -2    3.18    0.96
   1  16   2    1.83    0.92
   2  16  -2    0.28    0.83
  -2  16   2    1.86    0.82
  -2  16  -2    1.44    0.89
   2  16   2    0.96    0.88
   3  16  -2    1.05    0.92
   3  16   2    1.37    0.89
  -3  16  -2    0.32    0.87
   4  16  -2    4.03    1.09
   4  16   2    1.70    0.96
  -4  16  -2    5.35    1.06
   5  16  -2    1.20    0.97
  -5  16  -2    2.36    0.92
   5  16   2    2.50    1.01
   6  16  -2    0.02    0.91
   6  16   2    0.82    0.90
   7  16  -2    2.19    1.10
   7  16   2    2.78    1.00
   8  16  -2    0.43    1.04
   8  16   2    0.67    0.98
   9  16  -2    2.57    1.12
   9  16   2    0.99    0.99
  10  16  -2   -0.99    0.96
  10  16   2   -0.09    0.96
  11  16  -2    2.13    1.10
   0  17  -2   13.43    1.46
   0  17   2   11.77    1.45
   1  17  -2    3.75    1.03
  -1  17   2    4.11    1.01
   1  17   2    1.72    0.98
  -1  17  -2    1.84    0.92
  -2  17   2    9.16    1.29
   2  17  -2    9.76    1.36
  -2  17  -2   10.46    1.36
   2  17   2    7.92    1.29
  -3  17   2    0.82    0.90
   3  17  -2   -0.16    0.92
  -3  17  -2    0.32    0.85
   3  17   2    0.26    0.85
   4  17  -2    2.46    1.03
  -4  17  -2    1.46    0.93
   4  17   2    2.68    1.03
   5  17  -2    1.81    1.01
   5  17   2    1.26    0.98
  -5  17  -2    0.66    0.88
   6  17  -2    3.96    1.12
   6  17   2    4.58    1.18
  -6  17  -2    4.49    1.10
   7  17  -2    0.37    1.02
   7  17   2    1.65    0.97
   8  17  -2    1.57    1.04
   8  17   2   -0.37    0.96
   9  17  -2    2.50    1.16
   9  17   2    2.74    1.12
  10  17  -2    2.13    1.13
  10  17   2   -0.87    1.04
  11  17  -2    1.68    1.12
   0  18   2    9.19    1.35
   0  18  -2    8.30    1.23
   1  18  -2    3.72    1.09
  -1  18   2    0.32    0.88
   1  18   2    1.76    1.00
  -1  18  -2    2.32    1.00
   2  18  -2    1.23    0.97
  -2  18   2    0.79    0.87
   2  18   2    0.49    0.93
  -2  18  -2    1.52    0.95
  -3  18   2    4.00    1.07
   3  18  -2    4.27    1.16
   3  18   2    4.46    1.12
  -3  18  -2    4.25    1.09
   4  18  -2    6.64    1.29
  -4  18   2    6.23    1.23
  -4  18  -2    6.56    1.20
   4  18   2    4.59    1.17
   5  18  -2    2.13    1.10
  -5  18  -2    3.36    1.04
   5  18   2    0.39    0.94
   6  18  -2    3.37    1.09
   6  18   2    1.74    1.02
  -6  18  -2    2.76    1.00
   7  18  -2    2.94    1.15
   7  18   2    2.66    1.11
  -7  18  -2    1.83    0.95
   8  18  -2    3.10    1.22
  -8  18  -2    4.17    1.09
   8  18   2    1.23    1.13
   9  18  -2   -0.51    1.10
   9  18   2   -0.14    1.04
  10  18  -2    1.65    1.12
  10  18   2    2.30    1.17
   0  19   2    0.57    0.94
   0  19  -2    1.28    0.97
   1  19  -2    8.76    1.38
  -1  19   2    9.36    1.40
  -1  19  -2    7.26    1.28
   1  19   2    9.39    1.38
   2  19  -2    1.90    1.00
  -2  19   2    0.55    0.93
  -2  19  -2    2.84    1.03
   2  19   2    3.23    1.12
   3  19  -2    8.08    1.41
  -3  19   2   10.50    1.46
   3  19   2    9.42    1.42
  -3  19  -2   13.34    1.57
   4  19  -2   -0.62    0.98
  -4  19   2    0.84    0.94
   4  19   2    2.26    1.13
  -4  19  -2    1.30    0.99
   5  19  -2    2.27    1.16
  -5  19   2    2.10    1.06
  -5  19  -2    1.71    0.98
   5  19   2    2.17    1.13
   6  19  -2    1.48    1.05
   6  19   2    3.91    1.13
  -6  19  -2    2.92    1.05
   7  19  -2    1.13    1.04
  -7  19  -2    2.13    0.99
   7  19   2   -0.23    0.95
   8  19  -2    0.36    1.11
   8  19   2    0.05    1.07
  -8  19  -2    0.40    0.95
   9  19  -2    0.69    1.08
   9  19   2    0.65    1.08
  -9  19  -2   -1.29    0.92
  10  19  -2    0.33    1.11
  10  19   2   -0.43    1.06
 -10  19  -2    0.17    1.00
   0  20  -2    1.56    1.00
   0  20   2    1.70    1.02
  -1  20   2    1.39    0.95
   1  20  -2    1.09    0.99
   1  20   2    0.61    1.03
  -1  20  -2   -0.65    0.87
  -2  20   2    5.47    1.22
   2  20  -2    4.99    1.23
  -2  20  -2    5.62    1.28
   2  20   2    5.23    1.25
  -3  20   2    1.79    1.02
   3  20  -2    1.77    1.11
  -3  20  -2    1.67    0.98
   3  20   2    2.18    1.10
   4  20  -2   -0.80    0.94
  -4  20   2    0.75    0.95
   4  20   2    1.16    1.09
  -4  20  -2    0.95    1.00
   5  20  -2    1.01    1.07
  -5  20   2    2.10    1.03
  -5  20  -2    1.22    1.02
   5  20   2    0.83    1.04
   6  20  -2    2.01    1.10
  -6  20   2    1.51    1.01
   6  20   2    2.54    1.09
  -6  20  -2    1.68    1.03
   7  20  -2    3.49    1.23
   7  20   2    3.44    1.22
  -7  20  -2    2.14    1.06
   8  20  -2    0.43    1.14
   8  20   2   -1.48    1.05
  -8  20  -2    1.04    1.02
   9  20  -2    1.25    1.21
  -9  20  -2    3.66    1.20
   9  20   2    3.20    1.27
   0  21   2    2.61    1.12
   0  21  -2    1.84    1.05
   1  21  -2    7.56    1.36
  -1  21   2    9.41    1.43
   1  21   2    8.60    1.46
  -1  21  -2   10.19    1.48
   2  21  -2    1.42    1.09
  -2  21   2    1.09    1.01
   2  21   2    2.45    1.10
  -2  21  -2    2.52    1.07
  -3  21   2    9.05    1.43
   3  21  -2    9.02    1.48
   3  21   2    7.76    1.40
  -3  21  -2    7.65    1.39
  -4  21   2   -0.18    0.90
   4  21  -2   -0.83    0.96
  -4  21  -2    0.80    1.01
   4  21   2    1.37    1.06
   5  21  -2    2.24    1.12
  -5  21   2    0.38    0.97
   5  21   2    2.80    1.18
  -5  21  -2    1.72    1.09
   6  21  -2    0.68    1.06
  -6  21   2    1.35    1.05
   6  21   2    0.85    1.15
  -6  21  -2    0.57    0.97
  -7  21   2    0.23    1.00
   7  21  -2    1.83    1.24
   7  21   2   -0.36    1.07
  -7  21  -2    1.98    1.16
  -8  21   2   -0.08    1.07
   8  21  -2   -1.09    1.15
  -8  21  -2   -0.10    0.98
   8  21   2    1.77    1.13
   0  22   2    6.05    1.32
   0  22  -2    6.52    1.34
  -1  22   2    0.84    1.01
   1  22  -2   -0.16    0.95
   1  22   2    0.87    1.07
  -1  22  -2    1.59    1.06
   2  22  -2   -0.45    1.09
  -2  22   2   -0.16    0.93
  -2  22  -2    0.97    1.04
   2  22   2   -0.59    1.05
  -3  22   2    1.62    1.08
   3  22  -2    0.86    1.10
   3  22   2    0.56    1.10
  -3  22  -2   -0.15    0.98
   4  22  -2    5.05    1.35
  -4  22   2    5.73    1.35
   4  22   2    3.74    1.26
  -4  22  -2    6.57    1.33
   5  22  -2    1.74    1.15
  -5  22   2    0.73    1.05
  -5  22  -2    0.63    1.09
   5  22   2    0.10    1.08
  -6  22   2    2.07    1.14
   6  22  -2    1.15    1.20
   6  22   2    3.14    1.24
  -6  22  -2    2.95    1.17
   7  22  -2    3.17    1.36
  -7  22   2    1.25    1.09
  -7  22  -2    0.23    1.07
   7  22   2   -0.25    1.09
   0  23   2    6.39    1.37
   0  23  -2    6.59    1.41
  -1  23   2    4.01    1.25
   1  23  -2    3.09    1.25
   1  23   2    3.15    1.25
  -1  23  -2    2.33    1.20
   2  23  -2    5.91    1.40
  -2  23   2    2.63    1.18
   2  23   2    3.39    1.21
  -2  23  -2    5.06    1.31
   3  23  -2    1.07    1.09
  -3  23   2    0.35    1.07
  -3  23  -2    0.26    1.00
   3  23   2    1.34    1.16
  -4  23   2    2.13    1.21
   4  23  -2    4.24    1.38
  -4  23  -2    2.76    1.20
   4  23   2    4.63    1.32
   5  23  -2    2.43    1.30
  -5  23   2    1.88    1.19
  -5  23  -2    3.06    1.26
   5  23   2    3.30    1.32
   6  23  -2   -1.14    1.03
  -6  23   2    1.57    1.11
  -6  23  -2    1.05    1.13
   6  23   2   -0.45    1.14
   0  24   2    1.31    1.16
   0  24  -2    2.88    1.27
   1  24  -2    0.56    1.10
  -1  24   2   -1.14    0.96
   1  24   2    2.84    1.28
  -1  24  -2    0.21    1.11
  -2  24   2    0.42    1.11
   2  24  -2    0.82    1.13
  -2  24  -2    1.01    1.19
   2  24   2    2.00    1.24
   3  24  -2    0.79    1.19
  -3  24   2    0.67    1.09
   3  24   2   -0.77    1.12
  -3  24  -2    1.18    1.13
   4  24  -2    3.00    1.37
  -4  24   2    3.29    1.26
   4  24   2    2.65    1.27
  -4  24  -2    2.97    1.34
  -5  24   2    1.69    1.18
   5  24  -2   -0.66    1.18
   5  24   2   -1.61    1.03
  -5  24  -2    0.21    1.16
   0  25   2    3.75    1.36
   0  25  -2    3.82    1.34
   1  25  -2    2.38    1.28
  -1  25   2    1.46    1.26
   1  25   2    2.28    1.28
  -1  25  -2    3.17    1.32
   2  25  -2    3.90    1.40
  -2  25   2    3.19    1.35
  -2  25  -2    2.80    1.36
   2  25   2    2.35    1.37
   3  25  -2    1.68    1.28
   3  25   2    0.65    1.22
   0   0  -3   -0.26    0.07
   1   0  -3    4.54    0.28
   2   0   3   12.35    0.59
   2   0  -3   14.39    0.72
   3   0  -3   12.44    0.74
   3   0   3   12.11    0.61
   4   0   3    0.63    0.22
   4   0  -3    0.52    0.33
   5   0  -3   35.45    1.77
   5   0   3   36.38    1.67
   6   0  -3    0.69    0.50
   6   0   3   -1.03    0.37
   7   0  -3    6.57    0.77
   7   0   3    6.23    0.65
   8   0  -3    0.24    0.55
   8   0   3   -0.68    0.43
   9   0   3   27.92    1.60
   9   0  -3   30.46    1.73
  10   0   3   -0.54    0.53
  10   0  -3   -1.96    0.59
  11   0  -3    2.58    0.85
  12   0  -3    1.90    0.83
   0   1  -3   33.91    1.55
   0  -1  -3   37.39    1.55
   1   1  -3   10.10    0.62
  -1   1  -3   12.99    0.59
   2   1  -3   52.01    2.21
   2   1   3   47.39    2.12
   2  -1  -3   50.25    2.20
   3   1  -3   28.71    1.46
   3   1   3   29.28    1.35
   3  -1  -3   33.12    1.48
   4   1  -3   14.16    0.88
   4  -1  -3   13.90    0.87
   4   1   3   14.29    0.75
   5  -1   3    5.79    0.52
   5   1  -3    6.85    0.66
   5  -1  -3    7.35    0.65
   5   1   3    6.49    0.53
   6  -1   3   36.19    1.79
   6   1  -3   37.15    1.91
   6   1   3   38.31    1.80
   6  -1  -3   39.19    1.93
   7   1  -3    4.44    0.70
   7  -1   3    2.97    0.54
   7  -1  -3    4.08    0.65
   7   1   3    3.74    0.55
   8   1  -3    7.62    0.89
   8  -1   3    8.71    0.78
   8  -1  -3    8.00    0.89
   8   1   3    7.88    0.77
   9   1  -3    3.86    0.77
   9   1   3    1.45    0.60
   9  -1  -3    3.26    0.74
  10   1  -3   18.63    1.48
  10  -1  -3   22.50    1.49
  10   1   3   20.37    1.33
  11   1  -3    1.66    0.87
  11  -1  -3    1.61    0.86
  12   1  -3    0.20    0.78
  12  -1  -3   -0.51    0.69
   0   2  -3  191.07    8.06
   1   2  -3   24.45    1.19
  -1   2  -3   27.20    1.18
   2   2  -3   55.13    2.40
   2  -2  -3   53.39    2.38
   2   2   3   52.05    2.31
   3   2  -3   57.32    2.63
   3  -2  -3   61.60    2.63
   3   2   3   56.64    2.54
   4   2  -3   15.05    1.00
   4   2   3   19.08    0.94
   4  -2  -3   19.22    1.02
   5   2  -3   30.63    1.60
   5  -2  -3   31.19    1.58
   5   2   3   30.81    1.48
   6   2  -3   27.51    1.47
   6   2   3   25.53    1.33
   6  -2  -3   24.17    1.41
   7   2  -3    2.84    0.64
   7   2   3    3.54    0.54
   7  -2  -3    4.20    0.67
   8   2  -3   11.30    1.04
   8  -2  -3   11.81    1.03
   8   2   3   11.43    0.92
   9   2  -3    5.21    0.88
   9   2   3    4.47    0.69
   9  -2  -3    4.90    0.82
  10   2  -3    4.31    0.89
  10   2   3    3.09    0.70
  10  -2  -3    4.24    0.85
  11   2  -3   12.15    1.28
  11  -2  -3   15.38    1.39
  12   2  -3    0.80    0.80
   0   3  -3   11.59    0.65
   1   3  -3   97.63    4.32
  -1   3  -3  102.56    4.31
   2   3  -3    6.23    0.54
   2   3   3    4.73    0.44
   3   3  -3   25.25    1.31
   3  -3  -3   25.58    1.26
   3   3   3   23.27    1.19
   4   3  -3    3.82    0.53
   4  -3  -3    3.28    0.47
   4   3   3    4.54    0.47
   5   3  -3   64.16    2.92
   5  -3  -3   62.89    2.91
   5   3   3   60.97    2.81
   6   3  -3   24.31    1.36
   6   3   3   23.25    1.26
   6  -3  -3   23.45    1.35
   7   3  -3    2.38    0.62
   7  -3  -3    2.85    0.58
   7   3   3    2.80    0.52
   8   3  -3    7.25    0.89
   8   3   3    7.82    0.75
   8  -3  -3    8.41    0.87
   9   3  -3   14.47    1.18
   9  -3  -3   12.94    1.16
   9   3   3   13.52    1.04
  10   3  -3    1.41    0.79
  10   3   3    0.69    0.60
  11   3  -3    0.42    0.72
  12   3  -3    5.76    0.99
   0   4  -3  102.74    4.47
   1   4  -3    7.93    0.60
  -1   4  -3    7.80    0.58
   2   4  -3   23.36    1.30
   2   4   3   25.88    1.24
   3   4  -3   74.74    3.32
   3   4   3   72.51    3.25
   4   4  -3   71.15    3.17
   4   4   3   67.78    3.10
   5   4  -3   10.57    0.92
   5   4   3   10.35    0.80
   6   4  -3   40.61    2.10
   6   4   3   42.14    2.01
   7   4  -3   33.18    1.80
   7   4   3   31.23    1.66
   8   4  -3    9.33    0.98
   8   4   3    8.91    0.84
   9   4  -3    1.80    0.71
   9   4   3    1.14    0.59
  10   4  -3   11.72    1.17
  10   4   3   10.76    1.03
  11   4  -3    0.17    0.75
  12   4  -3    0.02    0.76
   0   5  -3   12.82    0.81
   1   5  -3   97.39    4.28
  -1   5  -3   96.85    4.25
   2   5  -3   55.78    2.55
   2   5   3   53.67    2.49
   3   5  -3  120.40    5.35
   3   5   3  123.40    5.30
   4   5  -3   50.53    2.42
   4   5   3   49.86    2.35
   5   5  -3   11.81    0.93
   5   5   3   11.16    0.84
   6   5  -3   12.81    1.01
   6   5   3   13.12    0.95
   7   5  -3   47.74    2.45
   7   5   3   47.46    2.35
   8   5  -3    9.47    1.01
   8   5   3    9.80    0.89
   9   5  -3    1.77    0.71
   9   5   3    1.60    0.63
  10   5  -3    1.82    0.82
  10   5   3    2.31    0.70
  11   5  -3    9.27    1.14
  12   5  -3    1.96    0.84
   0   6  -3   11.73    0.76
   1   6  -3   34.58    1.72
  -1   6  -3   33.94    1.70
   2   6  -3  205.63    8.67
   2   6   3  196.70    8.61
   3   6  -3   65.89    3.07
   3   6   3   66.65    3.03
   4   6  -3    7.38    0.79
   4   6   3    8.05    0.74
   5   6  -3    1.28    0.56
   5   6   3    1.08    0.52
   6   6  -3   24.08    1.50
   6   6   3   24.16    1.42
   7   6  -3    4.91    0.84
   7   6   3    4.44    0.72
   8   6  -3   16.42    1.30
   8   6   3   14.04    1.13
   9   6  -3    7.09    0.99
   9   6   3    5.48    0.85
  10   6  -3    0.29    0.78
  10   6   3    0.78    0.63
  11   6  -3    2.05    0.86
  12   6  -3    6.87    1.11
   0   7  -3    0.13    0.15
   1   7  -3   22.15    1.26
   2   7  -3   32.28    1.69
   2   7   3   31.45    1.65
   3   7  -3   42.56    2.08
   3   7   3   38.56    2.00
   4   7  -3  155.22    6.88
   4   7   3  157.02    6.82
   5   7  -3   34.17    1.91
   5   7   3   36.31    1.86
   6   7  -3   16.43    1.26
   6   7   3   15.29    1.13
   7   7  -3   13.27    1.15
   7   7   3   13.57    1.13
   8   7  -3   45.28    2.45
   8   7   3   45.31    2.36
   9   7  -3    5.38    0.98
   9   7   3    5.74    0.91
  10   7  -3    5.04    0.95
  10   7   3    5.83    0.89
  11   7  -3    0.78    0.82
  12   7  -3    6.60    1.12
   0   8  -3    0.65    0.22
   1   8  -3   68.52    3.29
  -1   8  -3   72.23    3.29
   1   8   3   71.42    3.28
   2   8  -3   17.66    1.15
   2   8   3   14.64    1.05
  -2   8  -3   15.93    1.08
   3   8  -3   15.46    1.12
   3   8   3   14.28    1.09
   4   8  -3   99.55    4.60
   4   8   3  101.62    4.55
   5   8  -3    3.62    0.72
   5   8   3    3.75    0.69
   6   8  -3    3.91    0.83
   6   8   3    3.05    0.72
   7   8  -3    5.62    0.90
   7   8   3    5.17    0.84
   8   8  -3    8.46    1.10
   8   8   3   10.92    1.12
   9   8  -3    8.18    1.13
   9   8   3    9.16    1.06
  10   8  -3    2.74    0.89
  10   8   3    2.61    0.78
  11   8  -3   -0.69    0.71
  12   8  -3   -0.75    0.80
   0   9  -3    9.45    0.87
   1   9  -3   71.75    3.39
  -1   9  -3   71.95    3.36
   1   9   3   71.01    3.36
   2   9  -3   48.85    2.47
   2   9   3   49.92    2.42
  -2   9  -3   46.72    2.41
   3   9  -3   22.22    1.41
   3   9   3   19.62    1.33
   4   9  -3    6.01    0.85
   4   9   3    6.27    0.80
   5   9  -3   79.97    3.90
   5   9   3   83.97    3.86
   6   9  -3   29.45    1.82
   6   9   3   26.92    1.69
   7   9  -3   16.63    1.43
   7   9   3   20.93    1.43
   8   9  -3    2.93    0.93
   8   9   3    2.11    0.79
   9   9  -3   25.61    1.80
   9   9   3   26.19    1.70
  10   9  -3   11.58    1.36
  10   9   3   13.50    1.27
  11   9  -3    1.56    0.88
  12   9  -3   -0.60    0.84
   0  10  -3    9.57    0.85
   1  10  -3  225.00    9.72
  -1  10  -3  223.41    9.71
   1  10   3  220.69    9.69
   2  10  -3   10.92    0.97
  -2  10  -3   11.73    0.99
   2  10   3   11.84    1.00
   3  10  -3  121.66    5.41
   3  10   3  114.87    5.34
   4  10  -3    1.06    0.66
   4  10   3    2.28    0.68
   5  10  -3   55.31    2.92
   5  10   3   59.30    2.91
   6  10  -3    6.28    1.04
   6  10   3    5.52    0.93
   7  10  -3    5.76    1.07
   7  10   3    5.23    1.00
   8  10  -3    1.98    0.91
   8  10   3   -0.87    0.80
   9  10  -3    1.25    0.87
   9  10   3    0.41    0.75
  10  10  -3    1.87    0.92
  10  10   3    4.37    0.90
  11  10  -3    7.74    1.18
  12  10  -3   -0.91    0.84
   0  11   3   31.73    1.78
   0  11  -3   30.87    1.79
   1  11  -3    0.75    0.53
   1  11   3    0.91    0.58
  -1  11  -3    1.49    0.63
   2  11  -3   45.77    2.41
   2  11   3   44.54    2.36
  -2  11  -3   45.14    2.38
   3  11  -3   19.00    1.40
  -3  11  -3   18.59    1.31
   3  11   3   18.37    1.34
   4  11  -3    5.84    0.93
   4  11   3    6.70    0.92
   5  11  -3   40.88    2.28
   5  11   3   35.89    2.14
   6  11  -3   42.24    2.46
   6  11   3   45.35    2.43
   7  11  -3   47.98    2.70
   7  11   3   48.49    2.65
   8  11  -3    0.54    0.89
   8  11   3    2.54    0.83
   9  11  -3   13.27    1.44
   9  11   3   14.51    1.40
  10  11  -3    4.17    1.08
  10  11   3    4.47    0.94
  11  11  -3    5.35    1.11
  12  11  -3    0.10    0.97
   0  12   3  110.17    4.97
   0  12  -3  103.63    4.94
   1  12  -3   27.89    1.71
  -1  12  -3   27.94    1.69
   1  12   3   28.36    1.74
   2  12  -3   27.35    1.73
  -2  12  -3   26.18    1.68
   2  12   3   26.42    1.68
   3  12  -3   43.47    2.44
   3  12   3   43.50    2.41
  -3  12  -3   46.75    2.42
   4  12  -3   42.77    2.37
   4  12   3   39.65    2.29
   5  12  -3    8.20    1.14
   5  12   3    6.83    1.01
   6  12  -3    0.35    0.87
   6  12   3    2.49    0.87
   7  12  -3   16.84    1.53
   7  12   3   16.44    1.49
   8  12  -3    7.72    1.25
   8  12   3    9.40    1.20
   9  12  -3    1.36    0.93
   9  12   3    2.69    0.98
  10  12  -3    2.09    0.99
  10  12   3    1.51    0.88
  11  12  -3    0.57    0.90
  12  12  -3   -0.37    0.90
   0  13   3   -1.10    0.59
   0  13  -3   -0.29    0.53
   1  13  -3   11.52    1.17
  -1  13  -3   10.20    1.15
   1  13   3   11.32    1.17
   2  13  -3   23.67    1.71
   2  13   3   27.99    1.73
  -2  13  -3   25.99    1.70
   3  13  -3   10.72    1.21
  -3  13  -3    9.97    1.14
   3  13   3    9.64    1.15
   4  13  -3   38.96    2.28
   4  13   3   36.85    2.23
  -4  13  -3   37.88    2.19
   5  13  -3    3.12    0.94
   5  13   3    2.35    0.90
   6  13  -3   13.06    1.43
   6  13   3   12.24    1.35
   7  13  -3    5.02    1.08
   7  13   3    5.40    1.07
   8  13  -3   26.89    1.94
   8  13   3   26.42    1.88
   9  13  -3    0.68    0.95
   9  13   3    1.57    0.94
  10  13  -3    5.62    1.18
  10  13   3    4.40    1.09
  11  13  -3    0.21    0.96
  12  13  -3    5.25    1.22
  -1  14  -3    6.27    0.98
   1  14   3    3.89    0.90
   2  14  -3   90.46    4.26
   2  14   3   82.30    4.18
  -2  14  -3   85.67    4.21
   3  14  -3    1.23    0.84
  -3  14  -3   -0.29    0.70
   3  14   3    1.38    0.80
   4  14  -3    4.42    1.01
   4  14   3    4.43    1.00
  -4  14  -3    4.79    0.95
   5  14  -3    5.25    1.07
   5  14   3    6.17    1.11
   6  14  -3   11.12    1.38
   6  14   3   11.87    1.36
   7  14  -3    2.41    1.05
   7  14   3    3.45    1.02
   8  14  -3    2.37    1.01
   8  14   3    2.13    0.94
   9  14  -3    3.48    1.13
   9  14   3    3.73    1.06
  10  14  -3   -0.60    0.91
  10  14   3    0.65    0.95
  11  14  -3    0.06    0.99
  12  14  -3    4.74    1.24
   0  15  -3    0.36    0.25
   0  15   3   -0.35    0.73
   1  15   3   14.82    1.44
   2  15  -3   21.32    1.64
  -2  15  -3   18.82    1.56
   2  15   3   19.18    1.56
   3  15  -3   45.95    2.62
   3  15   3   42.99    2.54
  -3  15  -3   42.52    2.52
   4  15  -3    8.43    1.29
  -4  15  -3    9.11    1.20
   4  15   3    8.46    1.23
   5  15  -3    2.17    0.97
  -5  15  -3    2.50    0.91
   5  15   3    1.21    0.88
   6  15  -3   26.35    1.98
   6  15   3   27.79    1.98
   7  15  -3   24.81    1.91
   7  15   3   23.87    1.86
   8  15  -3    8.80    1.40
   8  15   3   10.34    1.34
   9  15  -3    0.19    1.02
   9  15   3    1.56    1.00
  10  15  -3    4.58    1.19
  10  15   3    7.93    1.30
  11  15  -3    2.83    1.14
  12  15  -3   -0.39    0.99
   0  16   3   22.72    1.72
   0  16  -3   19.78    1.62
  -1  16   3   34.32    2.39
   1  16  -3   46.07    2.57
   1  16   3   44.17    2.55
  -1  16  -3   46.98    2.59
  -2  16   3    2.20    0.88
   2  16  -3    1.44    0.88
   2  16   3    1.16    0.87
  -2  16  -3    2.27    0.90
   3  16  -3   43.12    2.61
  -3  16  -3   42.90    2.54
   3  16   3   42.21    2.55
   4  16  -3   23.83    1.95
  -4  16  -3   21.95    1.76
   4  16   3   25.64    1.84
   5  16  -3   18.56    1.65
  -5  16  -3   16.47    1.52
   5  16   3   16.16    1.63
   6  16  -3   -0.72    0.93
  -6  16  -3    0.08    0.78
   6  16   3    0.53    0.94
   7  16  -3    1.32    1.07
   7  16   3    0.84    0.88
   8  16  -3    1.18    1.07
   8  16   3    2.41    1.05
   9  16  -3    1.11    1.10
   9  16   3    1.05    0.99
  10  16  -3    1.54    1.11
  10  16   3    0.90    1.08
  11  16  -3    0.09    1.05
   0  17   3    1.40    0.90
   0  17  -3   -1.02    0.78
  -1  17   3    9.44    1.30
   1  17  -3    9.13    1.28
  -1  17  -3   10.60    1.36
   1  17   3   10.61    1.38
  -2  17   3   -0.19    0.81
   2  17  -3    0.09    0.85
   2  17   3   -0.70    0.84
  -2  17  -3    0.69    0.86
   3  17  -3    0.53    0.89
   3  17   3    1.00    0.93
  -3  17  -3    1.82    0.93
   4  17  -3    2.62    1.06
  -4  17  -3    0.71    0.86
   4  17   3    1.49    0.98
   5  17  -3   41.27    2.56
   5  17   3   39.83    2.54
  -5  17  -3   38.42    2.47
   6  17  -3    0.42    1.02
   6  17   3    0.84    0.92
  -6  17  -3    2.66    0.94
   7  17  -3    5.51    1.26
   7  17   3    4.42    1.10
  -7  17  -3    5.89    1.10
   8  17  -3   -0.25    1.04
   8  17   3    1.73    1.04
  -8  17  -3   -0.03    0.81
   9  17  -3   15.06    1.74
   9  17   3   12.35    1.57
  10  17  -3   -0.26    1.08
  10  17   3    1.46    1.11
  11  17  -3    0.42    1.11
   0  18   3   23.54    1.90
   0  18  -3   24.30    1.89
  -1  18   3   31.34    2.17
   1  18  -3   32.41    2.19
  -1  18  -3   32.80    2.20
   1  18   3   28.27    2.08
   2  18  -3    2.59    1.04
  -2  18   3    1.93    0.94
  -2  18  -3    2.31    1.01
   2  18   3    2.39    1.01
   3  18  -3    8.33    1.36
  -3  18   3   10.00    1.37
  -3  18  -3    8.50    1.32
   3  18   3   10.12    1.40
   4  18  -3   13.39    1.62
  -4  18  -3   12.46    1.52
   4  18   3   15.26    1.63
   5  18  -3    7.11    1.28
   5  18   3    5.93    1.20
  -5  18  -3    5.81    1.17
   6  18  -3    2.33    1.08
   6  18   3    2.16    1.03
  -6  18  -3    1.36    0.95
   7  18  -3    0.14    0.98
  -7  18  -3   -0.61    0.87
   7  18   3   -1.25    0.91
   8  18  -3    1.16    1.13
   8  18   3    0.39    0.97
  -8  18  -3    1.72    1.04
   9  18  -3   -0.18    1.09
   9  18   3   -0.02    0.99
  -9  18  -3    0.11    0.93
  10  18  -3    2.03    1.20
 -10  18  -3    1.43    1.05
  10  18   3    0.64    1.16
   0  19   3    2.12    1.00
   0  19  -3    0.91    0.91
   1  19  -3    1.14    1.00
  -1  19   3    0.33    0.89
   1  19   3    1.48    1.00
  -1  19  -3    1.35    0.93
   2  19  -3    1.08    1.02
  -2  19   3   -0.39    0.82
   2  19   3    0.47    0.94
  -2  19  -3   -0.19    0.90
  -3  19   3    5.42    1.15
   3  19  -3    7.35    1.31
   3  19   3    7.84    1.31
  -3  19  -3    7.36    1.26
   4  19  -3    2.82    1.14
  -4  19   3    3.44    1.10
  -4  19  -3    2.38    1.03
   4  19   3    2.47    1.07
   5  19  -3   -0.30    0.97
   5  19   3   -0.90    0.96
  -5  19  -3   -0.29    0.83
   6  19  -3    9.67    1.49
   6  19   3    5.69    1.25
  -6  19  -3    6.80    1.23
   7  19  -3    5.24    1.30
   7  19   3    5.93    1.25
  -7  19  -3    7.61    1.28
   8  19  -3    4.10    1.27
   8  19   3    3.76    1.26
  -8  19  -3    4.15    1.14
   9  19  -3    0.98    1.20
  -9  19  -3    1.24    0.99
   9  19   3   -1.01    0.98
  10  19  -3    3.33    1.32
 -10  19  -3    3.83    1.21
  10  19   3    2.25    1.19
   0  20   3    4.59    1.17
   0  20  -3    3.05    1.11
  -1  20   3    1.34    0.95
   1  20  -3    3.17    1.07
   1  20   3    0.14    0.96
  -1  20  -3    0.14    0.97
  -2  20   3   20.77    1.81
   2  20  -3   18.57    1.92
   2  20   3   21.75    1.88
  -2  20  -3   16.54    1.84
  -3  20   3    3.23    1.09
   3  20  -3    2.84    1.10
   3  20   3    2.57    1.07
  -3  20  -3    1.72    1.03
  -4  20   3    4.56    1.19
   4  20  -3    4.48    1.27
  -4  20  -3    3.01    1.13
   4  20   3    3.44    1.19
   5  20  -3   -0.07    1.01
  -5  20   3    0.62    0.94
   5  20   3    0.50    0.97
  -5  20  -3    0.84    0.94
   6  20  -3    1.91    1.12
  -6  20  -3    4.05    1.19
   6  20   3    0.90    1.11
   7  20  -3    1.66    1.13
  -7  20  -3    0.79    1.02
   7  20   3    1.54    1.06
   8  20  -3    0.66    1.19
  -8  20  -3   -0.79    0.96
   8  20   3    0.39    1.10
   9  20  -3   -1.01    1.13
  -9  20  -3    0.25    0.96
   9  20   3    0.54    1.13
   0  21   3   -0.59    0.94
   0  21  -3    0.45    0.96
   1  21  -3    0.43    0.99
  -1  21   3    1.60    1.06
  -1  21  -3    0.57    0.95
   1  21   3    2.30    1.09
  -2  21   3    0.38    0.90
   2  21  -3   -0.46    1.05
   2  21   3   -0.37    0.95
  -2  21  -3   -1.19    0.89
   3  21  -3    2.15    1.11
  -3  21   3    2.99    1.11
   3  21   3    0.79    1.02
  -3  21  -3    1.62    1.08
  -4  21   3    3.80    1.21
   4  21  -3    5.69    1.35
  -4  21  -3    5.50    1.25
   4  21   3    3.78    1.25
  -5  21   3    0.27    0.97
   5  21  -3    0.35    1.06
  -5  21  -3    0.73    1.00
   5  21   3    1.48    1.08
   6  21  -3    3.07    1.18
  -6  21   3    1.16    1.02
  -6  21  -3    2.43    1.16
   6  21   3    2.82    1.15
  -7  21   3    1.29    1.06
   7  21  -3    1.42    1.23
  -7  21  -3    2.40    1.10
   7  21   3    2.20    1.10
   8  21  -3    2.19    1.25
   8  21   3    1.25    1.19
  -8  21  -3    4.61    1.27
   0  22   3    1.15    1.08
   0  22  -3    2.09    1.13
   1  22  -3    3.45    1.14
  -1  22   3    0.00    0.98
   1  22   3    0.44    1.03
  -1  22  -3    0.66    1.03
  -2  22   3    1.93    1.10
   2  22  -3    3.88    1.20
  -2  22  -3    4.22    1.20
   2  22   3    3.00    1.16
   3  22  -3    0.58    1.06
  -3  22   3    3.14    1.14
  -3  22  -3    2.49    1.11
   3  22   3    2.15    1.18
  -4  22   3    1.07    1.02
   4  22  -3    1.60    1.11
  -4  22  -3    1.84    1.13
   4  22   3    1.62    1.14
  -5  22   3   -0.57    0.91
   5  22  -3   -0.71    1.03
   5  22   3    1.96    1.13
  -5  22  -3    0.97    1.03
   6  22  -3   -1.70    1.10
  -6  22   3    0.66    1.02
  -6  22  -3    0.86    1.14
   6  22   3   -0.04    1.12
   7  22  -3    0.52    1.25
  -7  22   3   -0.15    1.08
  -7  22  -3    4.66    1.31
   7  22   3    1.44    1.18
   0  23  -3   -0.17    1.00
   0  23   3    1.36    1.09
   1  23  -3    0.16    1.00
  -1  23   3   -0.99    0.98
   1  23   3    0.57    1.05
  -1  23  -3   -0.21    0.97
  -2  23   3    2.81    1.19
   2  23  -3    2.27    1.20
  -2  23  -3    1.88    1.17
   2  23   3    2.67    1.17
   3  23  -3    0.94    1.16
  -3  23   3    2.61    1.17
  -3  23  -3    1.89    1.11
   3  23   3    0.70    1.08
   4  23  -3   -1.72    1.02
  -4  23   3   -0.51    1.04
  -4  23  -3    0.05    1.05
   4  23   3    0.34    1.16
  -5  23   3    0.88    1.10
   5  23  -3   -0.16    1.17
   5  23   3    1.52    1.17
  -5  23  -3   -0.47    1.00
   6  23  -3    0.58    1.19
  -6  23   3    1.07    1.11
  -6  23  -3    0.48    1.11
   6  23   3    0.48    1.19
   0  24   3    3.52    1.30
   0  24  -3   -0.60    1.05
  -1  24   3    1.78    1.17
   1  24  -3   -0.55    1.10
   1  24   3    2.21    1.21
  -1  24  -3    5.33    1.36
   2  24  -3   -0.48    1.10
  -2  24   3    0.12    1.05
  -2  24  -3   -1.65    0.98
   2  24   3    0.30    1.16
  -3  24   3    2.04    1.19
   3  24  -3    0.96    1.21
  -3  24  -3    1.68    1.22
   3  24   3    0.59    1.17
   4  24  -3    0.29    1.23
  -4  24   3   -0.30    1.06
   4  24   3    1.22    1.20
  -4  24  -3    1.03    1.10
  -5  24   3    0.45    1.14
   5  24  -3   -0.04    1.11
   5  24   3    0.83    1.28
  -5  24  -3    0.58    1.13
   0  25  -3    0.82    1.19
   0  25   3    2.51    1.24
   1  25  -3    0.88    1.24
  -1  25   3    1.89    1.23
   1  25   3    3.79    1.32
  -1  25  -3    0.28    1.15
  -2  25   3   -0.52    1.07
   2  25  -3   -1.27    1.08
  -2  25  -3   -0.88    1.13
   2  25   3   -0.91    1.15
   3  25  -3    0.79    1.28
   0   0  -4   60.55    2.59
   2   0  -4  165.71    7.05
   3   0   4   52.31    2.25
   3   0  -4   52.92    2.39
   4   0   4    0.04    0.19
   4   0  -4   -0.16    0.33
   5   0  -4  214.72    9.11
   5   0   4  209.88    8.97
   6   0   4  155.91    6.85
   6   0  -4  165.46    7.01
   7   0  -4   42.26    2.12
   7   0   4   40.78    1.97
   8   0   4   13.91    0.99
   8   0  -4   16.09    1.17
   9   0   4   39.43    1.96
   9   0  -4   37.77    2.13
  10   0  -4    4.61    0.90
  11   0  -4    2.86    0.84
  12   0  -4   11.59    1.25
  13   0  -4    1.22    0.83
   0  -1  -4  195.92    8.51
   0   1  -4  209.01    8.52
   2   1  -4   75.70    3.23
   2   1   4   69.37    3.11
   2  -1  -4   76.27    3.22
   3   1  -4  216.90    9.67
   3   1   4  228.87    9.55
   3  -1  -4  237.21    9.68
   4   1  -4   38.35    1.81
   4   1   4   36.94    1.66
   4  -1  -4   36.72    1.80
   5   1  -4   49.41    2.43
   5  -1  -4   54.18    2.46
   5   1   4   51.68    2.30
   6   1  -4   98.86    4.36
   6  -1  -4   97.75    4.34
   6   1   4   93.48    4.19
   7   1  -4   86.15    3.87
   7  -1  -4   84.03    3.85
   7   1   4   81.22    3.70
   8   1  -4   37.60    2.09
   8  -1  -4   41.13    2.10
   8   1   4   38.68    1.91
   9   1  -4   -1.21    0.58
   9   1   4   -0.95    0.47
   9  -1  -4   -0.52    0.61
  10   1  -4   14.90    1.26
  10   1   4   12.61    1.08
  10  -1  -4   14.61    1.26
  11   1  -4    8.69    1.13
  11  -1  -4   11.55    1.21
  12   1  -4    4.25    0.95
  12  -1  -4    3.39    0.86
  13   1  -4    0.55    0.82
  13  -1  -4    0.93    0.83
   0   2  -4  701.10   29.35
   2   2  -4  174.67    7.41
   2   2   4  173.42    7.32
   2  -2  -4  172.77    7.39
   3   2  -4  140.16    5.83
   3   2   4  130.32    5.70
   3  -2  -4  133.50    5.80
   4   2  -4  136.52    6.02
   4   2   4  138.12    5.90
   4  -2  -4  141.91    6.02
   5   2  -4   16.75    1.03
   5  -2  -4   15.07    1.04
   5   2   4   16.25    0.88
   6   2  -4   34.22    1.87
   6   2   4   36.11    1.71
   6  -2  -4   36.95    1.84
   7   2  -4   34.79    1.93
   7  -2  -4   37.71    1.96
   7   2   4   38.02    1.80
   8   2  -4   11.10    1.02
   8  -2  -4    9.67    0.96
   8   2   4    9.55    0.82
   9   2  -4   11.60    1.14
   9   2   4   11.76    0.93
   9  -2  -4   12.60    1.15
  10   2  -4    2.37    0.80
  10  -2  -4    2.74    0.85
  10   2   4    2.47    0.65
  11   2  -4    6.85    1.06
  11  -2  -4    6.99    1.02
  12   2  -4    2.70    0.84
  12  -2  -4    2.71    0.84
  13   2  -4    3.78    1.00
   0   3  -4  214.04    9.06
   2   3  -4  195.64    8.12
   2   3   4  184.64    8.03
   3   3  -4   39.27    1.81
   3  -3  -4   34.60    1.75
   3   3   4   37.34    1.70
   4   3  -4   45.26    2.03
   4   3   4   40.56    1.90
   4  -3  -4   39.39    2.00
   5   3  -4  241.75   10.42
   5   3   4  242.51   10.30
   5  -3  -4  244.83   10.41
   6   3  -4   44.15    2.27
   6   3   4   45.47    2.13
   6  -3  -4   48.10    2.28
   7   3  -4   28.00    1.58
   7  -3  -4   26.23    1.53
   7   3   4   25.87    1.39
   8   3  -4    4.73    0.77
   8  -3  -4    3.42    0.70
   8   3   4    3.64    0.56
   9   3  -4   32.73    1.91
   9   3   4   33.20    1.74
   9  -3  -4   31.42    1.85
  10   3  -4   13.19    1.30
  10   3   4   12.22    1.05
  10  -3  -4   14.68    1.26
  11   3  -4    6.35    1.05
  12   3  -4    5.11    1.00
  13   3  -4    2.80    0.94
   0   4  -4   13.66    0.82
  -1   4  -4  584.91   24.55
   2   4  -4   43.19    2.04
   2   4   4   42.19    1.95
   3   4  -4   71.92    3.38
   3   4   4   77.50    3.30
   4   4  -4   86.32    3.86
   4   4   4   85.18    3.76
   5   4  -4   97.08    4.37
   5   4   4   97.01    4.26
   6   4  -4   34.53    1.84
   6  -4  -4   32.15    1.81
   6   4   4   34.70    1.70
   7   4  -4    6.71    0.84
   7  -4  -4    5.19    0.77
   7   4   4    6.88    0.68
   8   4  -4   38.85    2.07
   8   4   4   36.05    1.88
   9   4  -4    3.48    0.79
   9   4   4    3.67    0.65
  10   4  -4    6.74    1.00
  10   4   4    8.04    0.87
  11   4  -4   10.32    1.20
  12   4  -4    1.90    0.89
  13   4  -4    1.84    0.86
   0   5  -4    2.27    0.42
  -1   5  -4   99.81    4.38
   2   5  -4   38.60    1.92
   2   5   4   39.79    1.89
  -2   5  -4   41.50    1.90
   3   5  -4   66.31    3.07
   3   5   4   66.64    2.99
   4   5  -4   29.10    1.60
   4   5   4   30.25    1.52
   5   5  -4   94.05    4.26
   5   5   4   93.35    4.16
   6   5  -4   48.20    2.40
   6   5   4   47.46    2.29
   7   5  -4   26.23    1.62
   7   5   4   25.87    1.47
   8   5  -4    4.63    0.80
   8   5   4    4.58    0.68
   9   5  -4    1.59    0.72
   9   5   4    0.62    0.56
  10   5  -4   14.21    1.31
  10   5   4   15.98    1.15
  11   5  -4    5.01    0.99
  12   5  -4    1.60    0.86
   0   6  -4  152.07    6.59
   2   6  -4  121.29    5.28
   2   6   4  120.14    5.23
  -2   6  -4  117.81    5.23
   3   6  -4    2.03    0.53
   3   6   4    3.38    0.50
   4   6  -4   64.74    2.95
   4   6   4   58.91    2.84
   5   6  -4   62.45    3.06
   5   6   4   65.27    2.97
   6   6  -4   13.22    1.09
   6   6   4   13.81    1.00
   7   6  -4   17.15    1.31
   7   6   4   16.24    1.15
   8   6  -4   10.92    1.15
   8   6   4   10.69    0.99
   9   6  -4   11.21    1.20
   9   6   4   11.89    1.02
  10   6  -4    8.97    1.12
  10   6   4    8.87    0.95
  11   6  -4    2.59    0.86
  12   6  -4    1.43    0.88
   0   7  -4    0.15    0.17
  -1   7  -4    3.05    0.41
   2   7  -4   27.20    1.50
   2   7   4   26.27    1.44
   3   7  -4   96.19    4.35
   3   7   4   95.50    4.29
   4   7  -4   50.47    2.52
   4   7   4   50.40    2.44
   5   7  -4   41.02    2.18
   5   7   4   41.95    2.10
   6   7  -4   11.06    1.06
   6   7   4   10.74    0.92
   7   7  -4    3.13    0.77
   7   7   4    3.31    0.71
   8   7  -4   39.37    2.27
   8   7   4   39.97    2.14
   9   7  -4    4.59    0.97
   9   7   4    7.58    0.94
  10   7  -4    1.61    0.80
  10   7   4    1.81    0.69
  11   7  -4    1.70    0.85
  12   7  -4   10.84    1.30
   0   8  -4   34.38    1.79
  -1   8  -4   38.13    1.95
   2   8  -4  237.74   10.30
  -2   8  -4  234.58   10.26
   2   8   4  243.41   10.27
   3   8  -4   33.05    1.88
   3   8   4   36.86    1.84
   4   8  -4    2.65    0.64
   4   8   4    1.30    0.57
   5   8  -4   18.85    1.37
   5   8   4   18.03    1.24
   6   8  -4   23.20    1.56
   6   8   4   22.89    1.45
   7   8  -4   18.69    1.39
   7   8   4   16.78    1.27
   8   8  -4    3.53    0.90
   8   8   4    3.44    0.78
   9   8  -4    9.45    1.18
   9   8   4    8.61    1.03
  10   8  -4    2.52    0.87
  10   8   4    1.80    0.72
  11   8  -4    1.17    0.85
  12   8  -4    1.24    0.90
   0   9  -4   88.31    4.07
   1   9   4   80.85    3.84
  -1   9  -4   86.30    3.88
   2   9  -4   29.85    1.71
   2   9   4   27.57    1.65
  -2   9  -4   29.76    1.64
   3   9  -4  176.67    7.72
   3   9   4  173.36    7.66
   4   9  -4   30.21    1.82
   4   9   4   33.28    1.80
   5   9  -4    3.29    0.79
   5   9   4    4.37    0.77
   6   9  -4   11.45    1.17
   6   9   4   10.52    1.06
   7   9  -4   23.30    1.63
   7   9   4   22.65    1.53
   8   9  -4    2.75    0.93
   8   9   4    3.91    0.88
   9   9  -4    1.35    0.88
   9   9   4    0.88    0.74
  10   9  -4    3.28    0.96
  10   9   4    3.26    0.84
  11   9  -4    2.62    0.97
  12   9  -4    0.37    0.82
   0  10  -4   31.69    1.78
  -1  10  -4    3.92    0.70
   1  10   4    3.78    0.69
   2  10  -4   50.09    2.51
  -2  10  -4   48.54    2.44
   2  10   4   45.38    2.42
   3  10  -4   32.87    1.89
   3  10   4   33.08    1.84
  -3  10  -4   30.12    1.78
   4  10  -4   27.32    1.66
   4  10   4   24.15    1.58
   5  10  -4    8.86    1.08
   5  10   4    9.26    1.03
   6  10  -4   25.55    1.71
   6  10   4   23.36    1.59
   7  10  -4    9.43    1.18
   7  10   4    8.02    1.07
   8  10  -4    3.57    0.95
   8  10   4    2.59    0.85
   9  10  -4   -0.93    0.80
   9  10   4    0.46    0.72
  10  10  -4    8.22    1.20
  10  10   4    6.30    1.03
  11  10  -4    0.30    0.86
  12  10  -4   -0.58    0.87
   0  11  -4    2.57    0.70
  -1  11  -4   26.59    1.59
   1  11   4   24.36    1.56
   2  11  -4   24.92    1.60
  -2  11  -4   22.91    1.51
   2  11   4   24.01    1.53
   3  11  -4    4.21    0.84
   3  11   4    3.22    0.77
  -3  11  -4    3.38    0.73
   4  11  -4    1.33    0.72
   4  11   4   -0.45    0.63
   5  11  -4   19.78    1.57
   5  11   4   19.87    1.48
   6  11  -4    6.53    1.08
   6  11   4    6.10    0.98
   7  11  -4    5.65    1.11
   7  11   4    7.93    1.09
   8  11  -4    0.92    0.90
   8  11   4    1.56    0.85
   9  11  -4    9.18    1.22
   9  11   4    8.97    1.15
  10  11  -4    0.66    0.90
  10  11   4    1.75    0.86
  11  11  -4   -0.24    0.87
  12  11  -4    0.62    0.90
   0  12  -4   52.68    2.74
   1  12  -4    1.75    0.60
   1  12   4    5.56    0.85
  -1  12  -4    4.18    0.79
   2  12  -4   10.92    1.14
   2  12   4   10.87    1.12
  -2  12  -4   12.05    1.10
   3  12  -4   14.94    1.29
   3  12   4   11.42    1.18
  -3  12  -4   11.74    1.18
   4  12  -4   14.66    1.35
   4  12   4   15.47    1.33
  -4  12  -4   15.03    1.24
   5  12  -4    0.56    0.86
   5  12   4   -0.72    0.71
   6  12  -4    6.83    1.16
   6  12   4    6.26    0.99
   7  12  -4    5.47    1.15
   7  12   4    5.79    1.05
   8  12  -4   10.69    1.40
   8  12   4   12.04    1.31
   9  12  -4    0.27    0.86
   9  12   4    1.61    0.89
  10  12  -4    1.00    0.95
  10  12   4    0.82    0.85
  11  12  -4   -0.07    0.90
  12  12  -4   -0.39    0.95
   0  13  -4    1.12    0.64
   0  13   4   -0.65    0.61
  -1  13  -4    8.82    1.10
   1  13   4    8.85    1.05
   2  13  -4    2.04    0.80
   2  13   4    0.81    0.69
  -2  13  -4    1.19    0.73
   3  13  -4   32.05    1.97
  -3  13  -4   28.61    1.86
   3  13   4   30.66    1.89
   4  13  -4   -0.33    0.73
  -4  13  -4   -0.23    0.65
   4  13   4    1.00    0.79
   5  13  -4    4.32    1.01
   5  13   4    4.43    0.98
   6  13  -4    5.98    1.15
   6  13   4    6.60    1.08
   7  13  -4    3.77    1.04
   7  13   4    2.98    0.95
   8  13  -4    4.61    1.08
   8  13   4    3.89    1.03
   9  13  -4    0.51    0.94
   9  13   4   -0.26    0.82
  10  13  -4    0.33    0.94
  10  13   4    1.62    0.93
  11  13  -4    0.08    0.96
  12  13  -4   -0.44    1.04
   0  14   4    6.01    0.95
  -1  14  -4    2.05    0.82
   1  14   4    2.83    0.85
   2  14  -4    7.40    1.04
  -2  14  -4    9.02    1.13
   2  14   4    7.39    1.07
   3  14  -4    2.33    0.91
   3  14   4    3.08    0.91
  -3  14  -4    1.50    0.80
   4  14  -4    2.21    0.92
  -4  14  -4    3.03    0.84
   4  14   4    1.87    0.88
   5  14  -4   12.68    1.39
  -5  14  -4    8.77    1.18
   5  14   4   10.68    1.30
   6  14  -4    7.86    1.24
   6  14   4    9.42    1.25
   7  14  -4    2.81    1.08
   7  14   4    2.74    0.97
   8  14  -4    1.45    0.97
   8  14   4    1.61    0.92
   9  14  -4    2.19    1.01
   9  14   4    3.81    1.08
  10  14  -4    0.30    0.96
  10  14   4    1.57    0.98
  11  14  -4    0.04    0.98
  12  14  -4    0.70    1.02
   0  15  -4    0.05    0.21
   0  15   4    0.86    0.77
   1  15   4    4.43    0.96
  -1  15  -4    3.57    0.95
   2  15  -4   -0.06    0.73
   2  15   4    1.28    0.83
  -2  15  -4    0.93    0.81
   3  15  -4    0.17    0.86
   3  15   4    1.08    0.86
  -3  15  -4    0.42    0.82
   4  15  -4    2.50    1.00
   4  15   4    1.66    0.89
  -4  15  -4    0.04    0.80
   5  15  -4    3.90    1.05
  -5  15  -4    4.94    1.02
   5  15   4    3.20    0.96
   6  15  -4    5.86    1.21
  -6  15  -4    4.68    1.01
   6  15   4    3.38    1.02
   7  15  -4    1.00    0.94
   7  15   4    0.37    0.90
   8  15  -4   -0.40    1.00
   8  15   4    0.71    0.90
   9  15  -4    1.46    1.09
   9  15   4    0.27    0.92
  10  15  -4    2.22    1.15
  10  15   4    3.20    1.12
  11  15  -4    0.82    1.04
  12  15  -4   -1.50    0.98
   0  16   4    1.69    0.87
   0  16  -4    1.46    0.89
  -1  16   4   -0.83    0.76
   1  16  -4    1.08    0.76
  -1  16  -4    1.04    0.85
   1  16   4   -0.54    0.81
   2  16  -4    1.59    0.90
  -2  16  -4    1.02    0.86
   2  16   4    2.38    0.93
   3  16  -4    0.11    0.86
   3  16   4    0.88    0.88
  -3  16  -4    0.18    0.81
   4  16  -4    3.36    1.07
   4  16   4    2.83    0.97
  -4  16  -4    3.03    0.99
   5  16  -4    5.96    1.21
   5  16   4    4.54    1.08
  -5  16  -4    4.84    1.06
   6  16  -4    3.62    1.11
  -6  16  -4    4.03    1.01
   6  16   4    6.83    1.22
   7  16  -4    1.56    1.07
   7  16   4    1.57    0.88
  -7  16  -4    0.97    0.82
   8  16  -4    2.33    1.08
  -8  16  -4    3.44    0.97
   8  16   4    3.07    1.06
   9  16  -4    0.00    0.99
   9  16   4    0.56    0.99
  10  16  -4   -0.46    1.02
  10  16   4    0.58    1.04
  11  16  -4    2.75    1.18
   0  17   4    8.08    1.18
   0  17  -4    7.18    1.22
  -1  17   4    0.88    0.89
   1  17  -4    1.06    0.78
  -1  17  -4    0.57    0.86
   1  17   4    0.86    0.89
  -2  17   4    5.98    1.10
   2  17  -4    4.41    1.11
  -2  17  -4    4.69    1.13
   2  17   4    6.42    1.14
   3  17  -4    3.69    1.06
  -3  17  -4    4.70    1.08
   3  17   4    2.86    1.04
   4  17  -4    0.51    0.96
  -4  17  -4    0.42    0.84
   4  17   4    0.96    0.92
   5  17  -4    0.10    0.94
  -5  17  -4    0.76    0.86
   5  17   4    2.16    0.98
   6  17  -4    1.13    1.03
  -6  17  -4    2.12    0.94
   6  17   4    2.40    0.99
   7  17  -4    2.69    1.09
   7  17   4    0.65    0.91
  -7  17  -4    2.25    0.97
   8  17  -4    1.28    1.12
  -8  17  -4    1.17    0.90
   8  17   4    0.43    0.96
   9  17  -4    2.83    1.17
   9  17   4    0.64    1.06
  -9  17  -4    2.76    1.03
  10  17  -4    0.28    1.12
  10  17   4   -0.01    1.06
 -10  17  -4    0.16    0.89
  11  17  -4    0.92    1.10
 -11  17  -4    0.47    0.93
   0  18   4    2.25    0.99
   0  18  -4    3.93    1.04
  -1  18   4    3.57    1.03
   1  18  -4    3.24    1.01
  -1  18  -4    3.64    1.05
   1  18   4    3.50    1.08
  -2  18   4    3.05    0.98
   2  18  -4    5.18    1.20
   2  18   4    2.72    1.03
  -2  18  -4    4.16    1.08
   3  18  -4    8.40    1.33
   3  18   4    7.80    1.31
  -3  18  -4    6.56    1.21
   4  18  -4    0.26    0.97
   4  18   4    0.12    0.92
  -4  18  -4    0.17    0.94
   5  18  -4    0.16    0.93
   5  18   4    0.01    0.90
  -5  18  -4    0.61    0.92
   6  18  -4    2.87    1.13
   6  18   4    0.85    0.98
  -6  18  -4    3.02    0.99
   7  18  -4    3.10    1.18
  -7  18  -4    5.72    1.20
   7  18   4    2.63    1.10
   8  18  -4    1.22    1.09
  -8  18  -4    2.11    0.99
   8  18   4    0.27    1.00
   9  18  -4   -0.09    1.09
   9  18   4    0.62    1.01
  -9  18  -4   -0.06    0.91
  10  18  -4    1.60    1.22
 -10  18  -4    1.73    0.98
   0  19  -4   -0.20    0.90
   0  19   4   -1.91    0.80
   1  19  -4    8.60    1.39
  -1  19   4    9.90    1.40
  -1  19  -4   11.20    1.47
   1  19   4    9.81    1.42
  -2  19   4    1.02    0.94
   2  19  -4    0.85    0.99
  -2  19  -4    0.92    0.94
   2  19   4   -0.41    0.93
   3  19  -4    4.30    1.18
  -3  19   4    4.17    1.13
  -3  19  -4    7.21    1.24
   3  19   4    4.36    1.17
   4  19  -4    4.66    1.24
  -4  19  -4    3.16    1.06
   4  19   4    4.13    1.12
   5  19  -4    1.54    1.06
  -5  19  -4    0.50    0.98
   5  19   4   -1.11    0.97
   6  19  -4    1.46    1.14
  -6  19  -4    0.69    0.97
   6  19   4    0.34    0.99
   7  19  -4    0.62    1.07
  -7  19  -4    1.15    0.97
   7  19   4    1.53    1.06
   8  19  -4    3.70    1.29
   8  19   4    3.63    1.20
  -8  19  -4    6.00    1.21
   9  19  -4    0.40    1.08
  -9  19  -4    0.03    0.89
   9  19   4   -0.53    1.00
   0  20  -4    1.18    1.02
   0  20   4    1.12    0.99
   1  20  -4    2.94    1.07
  -1  20   4    1.06    0.97
   1  20   4    1.41    1.01
  -1  20  -4    0.58    0.99
  -2  20   4   13.71    1.64
   2  20  -4   14.52    1.73
  -2  20  -4   16.30    1.74
   2  20   4   15.81    1.73
  -3  20   4    2.95    1.05
   3  20  -4    0.17    1.00
  -3  20  -4    1.34    1.01
   3  20   4   -1.75    0.90
   4  20  -4    0.65    1.02
  -4  20   4    1.43    0.99
  -4  20  -4    1.30    0.97
   4  20   4    1.17    1.01
   5  20  -4    5.68    1.29
   5  20   4    5.12    1.20
  -5  20  -4    3.62    1.14
   6  20  -4    3.36    1.20
  -6  20  -4    2.08    1.09
   6  20   4    3.28    1.21
   7  20  -4    0.82    1.20
   7  20   4    2.16    1.08
  -7  20  -4    0.45    0.98
   8  20  -4   -0.58    1.07
   8  20   4    1.93    1.17
  -8  20  -4   -0.30    0.94
   9  20  -4    2.02    1.23
   9  20   4   -1.40    1.04
  -9  20  -4    2.10    1.15
   0  21   4    4.61    1.21
   0  21  -4    5.34    1.20
   1  21  -4    4.82    1.22
  -1  21   4    3.44    1.13
   1  21   4    4.55    1.25
  -1  21  -4    3.78    1.21
  -2  21   4   -0.83    0.84
   2  21  -4   -0.01    1.02
   2  21   4    0.67    1.01
  -2  21  -4    0.37    0.99
   3  21  -4    6.87    1.37
  -3  21   4    4.95    1.24
  -3  21  -4    5.37    1.29
   3  21   4    5.17    1.24
  -4  21   4    4.57    1.20
   4  21  -4    1.75    1.11
  -4  21  -4    0.80    0.97
   4  21   4    0.41    1.03
   5  21  -4    3.46    1.25
  -5  21   4    3.18    1.18
  -5  21  -4    1.60    1.03
   5  21   4    4.48    1.25
   6  21  -4    0.84    1.12
  -6  21   4    3.40    1.17
   6  21   4    0.01    1.04
  -6  21  -4    2.36    1.15
   7  21  -4    1.14    1.16
   7  21   4    1.97    1.16
  -7  21  -4    1.71    1.04
   8  21  -4    1.45    1.27
   8  21   4    2.42    1.15
  -8  21  -4    2.13    1.13
   0  22   4    6.21    1.32
   0  22  -4    4.11    1.19
  -1  22   4    2.77    1.13
   1  22  -4    0.32    1.04
   1  22   4    0.75    1.16
  -1  22  -4    1.81    1.14
   2  22  -4    1.43    1.09
  -2  22   4   -1.36    0.87
  -2  22  -4    1.76    1.07
   2  22   4    0.80    1.04
   3  22  -4    2.32    1.18
  -3  22   4    1.60    1.07
   3  22   4    1.14    1.12
  -3  22  -4    2.04    1.11
  -4  22   4    4.37    1.25
   4  22  -4    6.44    1.41
  -4  22  -4    5.46    1.31
   4  22   4    5.80    1.33
  -5  22   4   -0.80    0.97
   5  22  -4    0.24    1.12
   5  22   4    0.96    1.09
  -5  22  -4    1.23    1.06
   6  22  -4    0.78    1.22
  -6  22   4    2.53    1.16
   6  22   4    3.08    1.20
  -6  22  -4    2.02    1.11
   7  22  -4   -0.20    1.14
  -7  22   4   -0.01    1.03
  -7  22  -4    2.43    1.17
   7  22   4    0.32    1.14
   0  23   4    2.12    1.20
   0  23  -4    2.28    1.17
   1  23  -4    2.50    1.17
  -1  23   4    2.18    1.10
  -1  23  -4    2.62    1.20
   1  23   4    0.43    1.09
  -2  23   4    2.85    1.22
   2  23  -4    3.78    1.34
   2  23   4    3.90    1.31
  -2  23  -4    2.86    1.21
   3  23  -4   -0.23    1.09
  -3  23   4    0.28    1.07
  -3  23  -4    0.20    1.09
   3  23   4   -1.23    0.94
   4  23  -4    0.11    1.21
  -4  23   4    1.88    1.18
   4  23   4    1.90    1.23
  -4  23  -4    1.43    1.10
   5  23  -4    3.67    1.35
  -5  23   4    4.50    1.35
   5  23   4    2.91    1.32
  -5  23  -4    4.13    1.27
  -6  23   4    0.12    1.05
   6  23  -4    0.53    1.16
   6  23   4    0.94    1.24
  -6  23  -4   -0.50    1.02
   0  24  -4    2.94    1.21
   0  24   4    0.94    1.16
  -1  24   4    5.44    1.41
   1  24  -4    3.98    1.35
  -1  24  -4    4.41    1.31
   1  24   4    3.25    1.34
   2  24  -4    1.82    1.24
  -2  24   4   -1.02    1.00
  -2  24  -4    0.17    1.08
   2  24   4    1.12    1.22
   3  24  -4    3.27    1.35
  -3  24   4    1.31    1.14
   3  24   4    2.19    1.23
  -3  24  -4    2.73    1.28
   4  24  -4    2.72    1.34
  -4  24   4    1.34    1.18
   4  24   4    0.11    1.13
  -4  24  -4    0.79    1.25
   5  24  -4    2.25    1.27
   5  24   4    1.92    1.25
   0  25   4    1.00    1.19
   0  25  -4   -0.62    1.07
  -1  25   4   -0.25    1.12
   1  25  -4    1.14    1.27
  -1  25  -4    1.07    1.17
   1  25   4    0.51    1.18
   2  25  -4   -0.74    1.18
  -2  25   4    3.15    1.32
  -2  25  -4    0.57    1.20
   2  25   4    0.83    1.20
   0   0  -5   -0.24    0.13
   1   0  -5   11.64    0.69
  -1   0  -5   14.82    0.64
   2   0  -5   95.73    4.15
   3   0  -5   71.38    3.19
   4   0  -5   26.72    1.38
   5   0   5    2.74    0.35
   6   0   5    1.47    0.33
   7   0  -5    2.84    0.67
   7   0   5    3.92    0.46
   8   0   5    1.16    0.42
   8   0  -5    1.17    0.58
   9   0  -5   17.86    1.35
  10   0  -5    0.68    0.73
  11   0  -5   10.24    1.23
  12   0  -5    1.82    0.82
  13   0  -5    0.78    0.87
   0   1  -5   -0.14    0.14
   0  -1  -5   -0.49    0.12
  -1   1  -5  212.90    8.44
   1  -1  -5  188.08    8.48
   2   1  -5   31.45    1.46
   2  -1  -5   30.07    1.44
  -2   1  -5   29.11    1.32
   3   1  -5   81.69    3.70
   3  -1  -5   85.73    3.70
   4   1  -5   40.58    1.90
   4   1   5   37.98    1.68
   4  -1  -5   37.54    1.86
   5   1  -5   29.47    1.52
   5  -1  -5   29.12    1.52
   5   1   5   26.32    1.30
   6   1  -5   15.19    1.05
   6  -1  -5   16.24    1.06
   6   1   5   14.58    0.85
   7   1  -5    7.30    0.84
   7   1   5    8.80    0.64
   7  -1  -5    7.24    0.83
   8   1  -5    7.79    0.93
   8   1   5    8.85    0.74
   8  -1  -5    8.45    0.93
   9   1  -5   -0.38    0.63
   9  -1  -5    0.04    0.65
   9   1   5   -0.45    0.43
  10   1  -5   11.98    1.22
  10   1   5   11.20    0.96
  10  -1  -5   12.72    1.22
  11   1  -5    5.02    1.00
  11  -1  -5    3.82    0.94
  12   1  -5    0.79    0.76
  12  -1  -5   -0.29    0.72
  13   1  -5   -0.90    0.71
  13  -1  -5    1.37    0.88
   0   2  -5   13.50    0.71
   1  -2  -5    6.01    0.46
  -1   2  -5    8.45    0.47
   2   2  -5   25.85    1.35
   2  -2  -5   29.76    1.36
  -2   2  -5   27.13    1.26
   2   2   5   27.73    1.25
   3   2  -5   97.99    4.19
   3  -2  -5   96.03    4.17
   3   2   5   91.50    4.04
   4   2  -5   59.33    2.84
   4   2   5   61.57    2.68
   4  -2  -5   65.00    2.85
   5   2  -5   12.84    0.93
   5  -2  -5   13.91    0.92
   5   2   5   11.43    0.72
   6   2  -5   15.73    1.10
   6  -2  -5   14.01    1.03
   6   2   5   14.89    0.85
   7   2  -5   19.21    1.26
   7   2   5   18.56    1.05
   7  -2  -5   19.52    1.28
   8   2  -5   13.97    1.19
   8   2   5   14.87    0.95
   8  -2  -5   16.54    1.22
   9   2  -5   10.49    1.09
   9  -2  -5    8.40    1.02
   9   2   5    9.33    0.82
  10   2  -5    1.57    0.78
  10  -2  -5    2.05    0.81
  10   2   5    3.07    0.62
  11   2  -5    6.55    1.05
  11  -2  -5    6.70    1.05
  12   2  -5    0.30    0.80
  12  -2  -5   -0.35    0.71
  13   2  -5    3.41    0.95
   0   3  -5  229.50    9.72
  -1   3  -5  170.32    7.24
   2   3  -5  173.51    7.42
   2  -3  -5  166.88    7.39
  -2   3  -5  178.57    7.35
   2   3   5  172.66    7.32
   3   3  -5  127.94    5.65
   3  -3  -5  127.47    5.63
   3   3   5  133.57    5.53
   4   3  -5   58.46    2.65
   4  -3  -5   55.75    2.62
   4   3   5   55.55    2.50
   5   3  -5   31.97    1.68
   5  -3  -5   33.61    1.69
   5   3   5   29.35    1.50
   6   3  -5   13.80    1.03
   6   3   5   13.60    0.83
   6  -3  -5   13.80    1.01
   7   3  -5   16.50    1.18
   7   3   5   16.83    1.01
   7  -3  -5   17.03    1.22
   8   3  -5   10.37    1.06
   8  -3  -5    9.32    1.01
   8   3   5   10.03    0.80
   9   3  -5   11.87    1.14
   9   3   5   10.64    0.90
   9  -3  -5   11.02    1.12
  10   3  -5    5.89    0.96
  10   3   5    6.14    0.75
  10  -3  -5    6.06    0.94
  11   3  -5    2.02    0.88
  11  -3  -5    3.55    0.91
  12   3  -5    5.92    1.03
  13   3  -5    1.44    0.89
   0   4  -5  125.02    5.40
  -1   4  -5    3.36    0.44
   2   4  -5   49.58    2.27
  -2   4  -5   47.12    2.18
   2   4   5   47.22    2.17
   3   4  -5   35.28    1.77
   3   4   5   34.86    1.66
   4   4  -5   72.29    3.39
   4   4   5   74.42    3.27
   4  -4  -5   75.22    3.37
   5   4  -5    6.98    0.74
   5  -4  -5    4.81    0.65
   5   4   5    5.94    0.58
   6   4  -5   20.92    1.27
   6   4   5   18.75    1.08
   6  -4  -5   17.96    1.20
   7   4  -5    8.64    0.93
   7   4   5    7.67    0.70
   7  -4  -5    7.89    0.89
   8   4  -5   16.49    1.27
   8  -4  -5   16.48    1.23
   8   4   5   15.69    1.06
   9   4  -5    7.13    0.97
   9   4   5    6.49    0.72
  10   4  -5    5.14    0.93
  10   4   5    5.72    0.75
  11   4  -5   -0.76    0.70
  12   4  -5    3.63    0.97
  13   4  -5    1.22    0.88
   0   5  -5    7.22    0.63
   2   5  -5   67.82    3.22
   2   5   5   71.26    3.15
  -2   5  -5   73.11    3.18
   3   5  -5   55.04    2.66
   3   5   5   58.64    2.60
   4   5  -5   80.53    3.74
   4   5   5   82.65    3.63
   5   5  -5   45.03    2.24
   5   5   5   44.10    2.12
   6   5  -5    5.34    0.75
   6   5   5    5.19    0.62
   7   5  -5   18.10    1.32
   7   5   5   16.81    1.11
   8   5  -5    4.44    0.85
   8   5   5    4.87    0.67
   9   5  -5    8.32    1.06
   9   5   5    8.65    0.85
  10   5  -5    1.16    0.78
  10   5   5    1.22    0.59
  11   5  -5    1.23    0.79
  12   5  -5    0.64    0.79
  13   5  -5   -0.63    0.84
   0   6  -5   15.24    0.98
   2   6  -5   82.22    3.64
   2   6   5   77.23    3.57
  -2   6  -5   80.59    3.59
   3   6  -5    4.25    0.62
   3   6   5    3.66    0.51
   4   6  -5   61.87    2.85
   4   6   5   56.11    2.72
   5   6  -5   20.51    1.31
   5   6   5   19.17    1.17
   6   6  -5    9.81    0.98
   6   6   5   10.25    0.86
   7   6  -5   30.72    1.84
   7   6   5   30.24    1.66
   8   6  -5   31.89    1.87
   8   6   5   27.65    1.63
   9   6  -5   18.93    1.49
   9   6   5   19.80    1.28
  10   6  -5   13.37    1.35
  10   6   5   14.63    1.14
  11   6  -5    1.62    0.83
  12   6  -5    1.53    0.87
  13   6  -5   -2.05    0.72
   0   7  -5    0.23    0.19
   1   7  -5   -0.05    0.07
   2   7  -5   20.20    1.18
   2   7   5   17.80    1.09
   3   7  -5   68.25    3.30
   3   7   5   72.10    3.23
   4   7  -5    1.70    0.61
   4   7   5    1.38    0.51
   5   7  -5   40.98    2.21
   5   7   5   43.03    2.11
   6   7  -5    8.67    0.98
   6   7   5    9.47    0.88
   7   7  -5   12.54    1.21
   7   7   5   12.03    1.07
   8   7  -5    8.97    1.10
   8   7   5    8.40    0.92
   9   7  -5    7.69    1.09
   9   7   5    6.24    0.87
  10   7  -5    5.22    1.00
  10   7   5    5.92    0.82
  11   7  -5    3.30    0.94
  12   7  -5    1.62    0.87
  13   7  -5    1.80    0.96
   0   8  -5   18.10    1.17
  -1   8  -5    4.00    0.62
   2   8  -5   47.88    2.44
  -2   8  -5   50.24    2.43
   2   8   5   49.38    2.41
   3   8  -5   74.73    3.48
   3   8   5   73.66    3.41
  -3   8  -5   72.18    3.40
   4   8  -5   18.97    1.34
   4   8   5   19.78    1.25
   5   8  -5   31.38    1.84
   5   8   5   31.79    1.74
   6   8  -5   19.80    1.51
   6   8   5   20.19    1.32
   7   8  -5   34.35    2.09
   7   8   5   37.74    1.97
   8   8  -5    6.97    1.02
   8   8   5    6.02    0.88
   9   8  -5   17.38    1.47
   9   8   5   15.22    1.25
  10   8  -5    4.17    0.99
  10   8   5    5.32    0.86
  11   8  -5   10.49    1.29
  12   8  -5   -0.18    0.82
  13   8  -5    1.69    0.92
   0   9  -5  198.97    8.68
   2   9  -5  153.43    6.89
   2   9   5  155.69    6.84
  -2   9  -5  157.16    6.86
   3   9  -5  119.30    5.57
  -3   9  -5  130.93    5.57
   3   9   5  121.73    5.53
   4   9  -5   58.05    2.89
   4   9   5   57.00    2.81
   5   9  -5    7.02    0.97
   5   9   5    6.88    0.88
   6   9  -5   18.74    1.43
   6   9   5   18.62    1.31
   7   9  -5   14.39    1.39
   7   9   5   15.65    1.27
   8   9  -5    1.38    0.82
   8   9   5    1.36    0.78
   9   9  -5    2.38    0.92
   9   9   5    1.42    0.73
  10   9  -5    1.42    0.88
  10   9   5    2.58    0.82
  11   9  -5   -0.88    0.78
  12   9  -5    5.01    1.09
  13   9  -5    1.16    0.99
   0  10  -5   -0.32    0.44
   1  10   5    2.35    0.61
  -1  10  -5    1.48    0.59
   2  10  -5   27.16    1.62
  -2  10  -5   26.81    1.58
   2  10   5   24.71    1.54
   3  10  -5   13.71    1.19
  -3  10  -5   12.78    1.07
   3  10   5   14.73    1.09
   4  10  -5   48.38    2.55
   4  10   5   49.52    2.48
  -4  10  -5   46.23    2.44
   5  10  -5   -0.61    0.71
   5  10   5   -0.12    0.62
   6  10  -5   36.03    2.13
   6  10   5   34.82    1.99
   7  10  -5   22.52    1.65
   7  10   5   20.56    1.51
   8  10  -5   47.07    2.64
   8  10   5   43.83    2.47
   9  10  -5    3.83    1.03
   9  10   5    3.83    0.87
  10  10  -5   11.52    1.39
  10  10   5   11.11    1.20
  11  10  -5    0.82    0.89
  12  10  -5    3.67    1.06
   0  11  -5  129.16    5.86
  -1  11  -5   21.53    1.40
   1  11   5   18.23    1.34
   2  11  -5   64.88    3.22
  -2  11  -5   65.46    3.18
   2  11   5   63.15    3.15
   3  11  -5   17.81    1.37
   3  11   5   17.18    1.29
  -3  11  -5   15.10    1.21
   4  11  -5   54.87    2.89
   4  11   5   56.32    2.84
  -4  11  -5   56.27    2.82
   5  11  -5    4.35    0.94
   5  11   5    4.95    0.89
   6  11  -5    7.72    1.14
   6  11   5    7.75    1.03
   7  11  -5    0.19    0.91
   7  11   5    1.31    0.86
   8  11  -5    5.76    1.09
   8  11   5    6.51    1.02
   9  11  -5    2.49    0.98
   9  11   5    1.12    0.83
  10  11  -5    0.19    0.93
  10  11   5    3.06    0.92
  11  11  -5    1.54    0.96
  12  11  -5    2.34    0.99
   0  12  -5   10.95    1.14
   1  12  -5    0.14    0.12
   1  12   5   -0.24    0.59
  -1  12  -5    0.33    0.62
   2  12  -5   17.31    1.32
  -2  12  -5   16.38    1.30
   2  12   5   17.02    1.31
   3  12  -5   10.32    1.19
  -3  12  -5   10.03    1.09
   3  12   5    8.88    1.03
   4  12  -5   11.18    1.22
   4  12   5    8.15    1.05
  -4  12  -5   11.25    1.13
   5  12  -5   29.37    1.97
   5  12   5   30.65    1.86
  -5  12  -5   26.80    1.75
   6  12  -5   12.27    1.38
   6  12   5   12.69    1.30
   7  12  -5   30.54    2.04
   7  12   5   28.67    1.90
   8  12  -5    1.33    0.93
   8  12   5    1.91    0.91
   9  12  -5    9.87    1.36
   9  12   5    9.75    1.20
  10  12  -5    7.17    1.27
  10  12   5    9.18    1.20
  11  12  -5    7.68    1.29
  12  12  -5    1.08    1.01
   0  13  -5   30.51    1.92
  -1  13  -5   70.43    3.60
   1  13   5   75.03    3.60
   2  13  -5    2.25    0.69
  -2  13  -5    2.27    0.77
   2  13   5    2.63    0.81
   3  13  -5   35.20    2.12
   3  13   5   34.12    2.07
  -3  13  -5   37.10    2.11
   4  13  -5    2.96    0.89
   4  13   5    2.88    0.82
  -4  13  -5    2.17    0.77
   5  13  -5   21.23    1.67
   5  13   5   20.54    1.61
  -5  13  -5   21.33    1.58
   6  13  -5    3.62    1.03
   6  13   5    2.65    0.92
   7  13  -5    8.86    1.32
   7  13   5    7.31    1.11
   8  13  -5    3.16    1.10
   8  13   5    2.28    0.90
   9  13  -5    0.37    0.99
   9  13   5    1.06    0.86
  10  13  -5    1.05    1.02
  10  13   5    1.70    0.94
  11  13  -5    3.85    1.14
  12  13  -5    0.60    1.02
   0  14   5   15.76    1.32
   0  14  -5   12.02    1.24
   1  14   5   10.28    1.17
  -1  14  -5    8.16    1.12
   2  14   5    8.85    1.14
  -2  14  -5    9.94    1.19
   3  14  -5   20.94    1.65
   3  14   5   19.38    1.53
  -3  14  -5   20.95    1.56
   4  14  -5    8.61    1.20
  -4  14  -5    8.76    1.15
   4  14   5    7.57    1.14
   5  14  -5   30.81    2.10
   5  14   5   30.56    2.00
  -5  14  -5   31.90    2.02
   6  14  -5   -0.53    0.86
  -6  14  -5    1.23    0.79
   6  14   5    0.31    0.85
   7  14  -5   40.10    2.42
   7  14   5   34.40    2.22
   8  14  -5    2.45    1.12
   8  14   5    2.59    0.94
   9  14  -5   16.64    1.74
   9  14   5   18.31    1.69
  10  14  -5    2.28    1.11
  10  14   5    3.13    1.05
  11  14  -5    6.00    1.34
  12  14  -5   -2.98    0.90
   0  15   5   45.96    2.37
   0  15  -5   31.60    2.19
  -1  15  -5   63.80    3.30
   1  15   5   61.03    3.28
   2  15  -5   15.23    1.56
  -2  15  -5   20.92    1.58
   2  15   5   20.69    1.57
   3  15  -5   32.81    2.21
   3  15   5   33.20    2.12
  -3  15  -5   34.98    2.15
   4  15  -5   27.73    1.98
   4  15   5   26.40    1.88
  -4  15  -5   26.82    1.87
   5  15  -5   11.38    1.37
   5  15   5    8.15    1.23
  -5  15  -5    7.47    1.17
   6  15  -5    0.48    0.94
   6  15   5    0.41    0.91
  -6  15  -5    0.22    0.77
   7  15  -5    2.75    1.12
   7  15   5    3.17    0.98
  -7  15  -5    1.31    0.86
   8  15  -5    1.08    1.01
  -8  15  -5    2.80    0.90
   8  15   5    1.83    1.00
   9  15  -5    2.14    1.08
   9  15   5    2.45    1.05
  10  15  -5    1.61    1.09
  11  15  -5    1.11    1.05
  12  15  -5   -0.63    1.09
   0  16  -5    6.66    1.16
   0  16   5    6.34    1.11
   1  16  -5    0.36    0.81
  -1  16   5    0.37    0.80
   1  16   5    0.30    0.82
  -1  16  -5    0.39    0.84
   2  16  -5   14.64    1.53
  -2  16  -5   13.83    1.49
   2  16   5   14.56    1.50
   3  16  -5    3.78    1.06
   3  16   5    3.58    0.99
  -3  16  -5    3.43    0.99
   4  16  -5   31.39    2.14
  -4  16  -5   27.45    1.98
   4  16   5   30.34    2.06
   5  16  -5    1.37    0.98
  -5  16  -5    1.80    0.94
   5  16   5    2.78    1.02
   6  16  -5   25.79    2.02
   6  16   5   26.71    1.98
  -6  16  -5   27.01    1.93
   7  16  -5    1.08    1.08
  -7  16  -5    1.50    0.86
   7  16   5    1.30    0.87
   8  16  -5   13.72    1.67
   8  16   5   16.41    1.62
  -8  16  -5   14.75    1.55
   9  16  -5   -0.11    1.07
   9  16   5    0.58    0.93
  -9  16  -5    0.93    0.86
  10  16  -5    2.09    1.12
 -10  16  -5    4.28    1.06
  11  16  -5    1.79    1.14
 -11  16  -5    1.25    0.89
   0  17  -5   27.66    1.92
   0  17   5   26.95    1.97
   1  17  -5    5.70    1.11
  -1  17   5    4.62    1.07
   1  17   5    4.03    1.07
  -1  17  -5    5.68    1.13
   2  17  -5   36.14    2.34
   2  17   5   30.55    2.23
  -2  17  -5   38.61    2.32
   3  17  -5    5.38    1.15
  -3  17  -5    5.22    1.08
   3  17   5    3.59    1.03
   4  17  -5   12.73    1.54
   4  17   5   12.17    1.46
  -4  17  -5   13.48    1.45
   5  17  -5    1.29    1.00
  -5  17  -5    1.47    0.90
   5  17   5    0.77    0.92
   6  17  -5    3.94    1.17
  -6  17  -5    3.68    1.00
   6  17   5    3.32    1.05
   7  17  -5    3.90    1.17
  -7  17  -5    2.28    0.93
   7  17   5    1.27    0.96
   8  17  -5   -1.11    1.02
  -8  17  -5   -0.68    0.74
   8  17   5   -2.16    0.84
   9  17  -5   -0.83    1.08
  -9  17  -5    0.70    0.88
   9  17   5    0.25    0.95
  10  17  -5    1.25    1.07
 -10  17  -5    0.38    0.91
  11  17  -5   -2.06    1.00
   0  18  -5    0.90    0.92
   0  18   5    0.43    0.90
   1  18  -5    6.13    1.15
  -1  18   5    4.87    1.15
  -1  18  -5    5.83    1.16
   1  18   5    5.47    1.16
   2  18  -5   11.48    1.49
  -2  18   5   10.58    1.41
  -2  18  -5   12.56    1.47
   2  18   5   10.43    1.38
   3  18  -5    2.99    1.09
  -3  18  -5    4.03    1.12
   3  18   5    4.02    1.10
   4  18  -5   11.25    1.49
   4  18   5   12.76    1.46
  -4  18  -5   10.07    1.42
   5  18  -5    2.19    1.07
  -5  18  -5    2.74    1.01
   5  18   5    3.08    1.11
   6  18  -5    8.29    1.40
  -6  18  -5    7.22    1.25
   6  18   5    8.24    1.32
   7  18  -5    5.56    1.34
  -7  18  -5    8.84    1.29
   7  18   5    4.89    1.19
   8  18  -5   11.28    1.57
  -8  18  -5    6.47    1.20
   8  18   5    7.07    1.33
   9  18  -5    0.09    1.08
  -9  18  -5    2.46    1.02
   9  18   5    0.90    0.99
  10  18  -5    0.96    1.12
 -10  18  -5    1.31    1.00
   0  19  -5    6.38    1.22
   0  19   5    3.93    1.13
   1  19  -5   13.53    1.63
  -1  19   5   13.53    1.62
   1  19   5   16.97    1.72
  -1  19  -5   15.79    1.67
   2  19  -5    2.53    1.05
  -2  19   5    2.61    0.93
   2  19   5    3.57    1.09
  -2  19  -5    2.45    1.04
   3  19  -5    8.34    1.41
  -3  19   5    9.75    1.38
   3  19   5    8.35    1.36
  -3  19  -5    8.97    1.36
   4  19  -5    0.19    1.07
  -4  19  -5    1.03    1.00
   4  19   5    1.32    0.98
   5  19  -5    4.68    1.27
  -5  19  -5    4.87    1.14
   5  19   5    2.52    1.09
   6  19  -5   -0.01    1.01
   6  19   5    0.49    0.95
  -6  19  -5   -0.36    0.92
   7  19  -5    1.38    1.10
  -7  19  -5    2.05    1.00
   7  19   5    0.01    0.98
   8  19  -5    0.24    1.08
  -8  19  -5    1.69    1.04
   8  19   5   -0.04    1.02
   9  19  -5    0.18    1.17
   9  19   5    0.58    1.06
  -9  19  -5    1.41    1.02
   0  20  -5    3.91    1.16
   0  20   5    5.39    1.22
  -1  20   5    1.72    0.99
   1  20  -5    1.25    0.99
  -1  20  -5    1.36    1.03
   1  20   5    1.77    1.04
   2  20  -5    1.06    1.00
  -2  20   5   -0.99    0.86
   2  20   5   -0.15    0.93
  -2  20  -5    0.93    0.98
  -3  20   5    2.24    1.02
   3  20  -5    2.97    1.13
  -3  20  -5    3.93    1.13
   3  20   5    1.04    1.04
   4  20  -5   -0.49    1.01
  -4  20   5    0.46    0.94
   4  20   5   -0.28    0.90
  -4  20  -5    2.00    1.03
   5  20  -5    5.24    1.28
  -5  20  -5    6.55    1.30
   5  20   5    6.32    1.30
   6  20  -5    1.95    1.09
   6  20   5    0.94    1.08
  -6  20  -5    1.56    1.06
   7  20  -5    2.49    1.29
   7  20   5    2.31    1.12
  -7  20  -5    4.97    1.19
   8  20  -5   -0.25    1.12
  -8  20  -5    0.83    1.02
   8  20   5   -1.55    0.97
   9  20  -5    0.49    1.25
  -9  20  -5    0.45    1.06
   9  20   5    1.37    1.15
   0  21   5   -0.26    0.94
   0  21  -5    1.88    1.04
  -1  21   5   11.84    1.59
   1  21  -5   10.68    1.57
   1  21   5    9.68    1.53
  -1  21  -5   10.99    1.53
  -2  21   5    0.06    0.91
   2  21  -5    0.74    1.03
   2  21   5    0.31    0.97
  -2  21  -5    0.37    0.97
  -3  21   5    3.44    1.14
   3  21  -5    3.48    1.25
  -3  21  -5    2.70    1.09
   3  21   5    4.01    1.24
   4  21  -5    1.10    1.11
  -4  21   5    0.47    0.98
   4  21   5   -0.45    0.94
  -4  21  -5   -0.63    0.95
  -5  21   5    1.90    1.07
   5  21  -5    1.18    1.08
  -5  21  -5    3.59    1.13
   5  21   5    0.14    1.02
   6  21  -5    0.73    1.10
   6  21   5    0.23    1.11
  -6  21  -5    2.96    1.10
   7  21  -5   -0.18    1.10
  -7  21  -5   -0.46    0.94
   7  21   5    0.23    1.03
   8  21  -5   -1.46    1.18
  -8  21  -5   -0.11    1.02
   8  21   5    1.24    1.13
   0  22  -5   -1.51    0.89
   0  22   5   -0.12    1.00
  -1  22   5    0.67    0.97
   1  22  -5    0.90    1.01
   1  22   5   -0.75    0.93
  -1  22  -5   -0.03    1.00
  -2  22   5    0.09    1.03
   2  22  -5    1.32    1.04
  -2  22  -5   -0.12    1.02
   2  22   5    0.37    1.02
   3  22  -5    1.90    1.20
  -3  22   5    1.29    1.08
  -3  22  -5    3.19    1.14
   3  22   5    3.62    1.24
   4  22  -5    1.71    1.17
  -4  22   5    1.74    1.10
  -4  22  -5    1.09    1.08
   4  22   5    2.51    1.16
   5  22  -5    2.08    1.21
  -5  22   5    3.87    1.19
   5  22   5    2.11    1.22
  -5  22  -5    0.76    1.08
  -6  22   5    0.65    1.02
   6  22  -5    1.35    1.17
  -6  22  -5    0.08    1.04
   6  22   5    2.11    1.18
   7  22  -5    2.72    1.27
   7  22   5    1.12    1.18
  -7  22  -5    2.43    1.13
   0  23  -5    1.47    1.11
   0  23   5    3.12    1.24
  -1  23   5   -1.41    0.89
   1  23  -5    0.53    1.09
  -1  23  -5    0.70    1.07
   1  23   5    0.33    1.05
   2  23  -5    2.60    1.27
  -2  23   5    2.91    1.20
   2  23   5    1.66    1.15
  -2  23  -5    3.32    1.24
  -3  23   5   -0.27    0.95
   3  23  -5    0.14    1.16
   3  23   5    2.27    1.24
  -3  23  -5   -0.27    1.07
   4  23  -5    0.88    1.23
  -4  23   5   -0.18    1.03
   4  23   5    1.54    1.16
  -4  23  -5   -2.51    1.03
   5  23  -5    1.18    1.27
  -5  23   5    1.21    1.18
   5  23   5    1.15    1.20
  -5  23  -5   -0.39    1.05
  -6  23   5    1.43    1.16
   6  23  -5    1.06    1.29
  -6  23  -5    1.63    1.16
   6  23   5    0.04    1.11
   0  24   5   -0.74    1.06
   0  24  -5    0.79    1.08
  -1  24   5    0.44    1.14
   1  24  -5    1.25    1.17
   1  24   5    1.30    1.23
  -1  24  -5    1.39    1.16
  -2  24   5    0.86    1.15
   2  24  -5    0.27    1.12
   2  24   5    1.94    1.20
  -2  24  -5    0.66    1.11
   3  24  -5    0.93    1.22
  -3  24   5   -0.87    1.00
  -3  24  -5    0.08    1.19
   3  24   5   -0.41    1.16
   4  24  -5    2.26    1.37
  -4  24   5    3.05    1.30
   4  24   5    2.61    1.33
  -4  24  -5    1.57    1.20
   0  25  -5   -0.50    1.12
   0  25   5    1.70    1.31
  -1  25   5    2.92    1.34
   1  25  -5    1.23    1.25
  -1  25  -5    2.72    1.28
   1  25   5   -0.70    1.14
   2  25  -5   -0.72    1.15
  -2  25   5    2.03    1.28
  -2  25  -5   -0.13    1.17
   2  25   5    0.22    1.17
   0   0  -6  236.85    9.98
   1   0  -6  220.79    9.38
  -1   0  -6  222.96    9.31
   2   0  -6    4.03    0.43
   3   0  -6   71.53    3.20
   4   0  -6  258.38   11.02
   5   0  -6  198.76    8.58
   6   0  -6    6.16    0.73
   7   0  -6    7.97    0.86
   8   0  -6   13.95    1.12
   9   0  -6    9.98    1.09
  10   0  -6   16.94    1.39
  11   0  -6    1.50    0.81
  12   0  -6    2.34    0.87
  13   0  -6    1.94    0.89
   0   1  -6   32.35    1.53
   0  -1  -6   34.94    1.51
   1   1  -6   91.83    4.02
  -1  -1  -6   97.50    3.94
  -1   1  -6   84.56    3.95
   1  -1  -6   97.51    4.02
   2   1  -6  294.72   12.52
  -2   1  -6  297.01   12.40
   3   1  -6   13.81    0.80
   3  -1  -6    9.41    0.75
  -3   1  -6   10.53    0.54
   4   1  -6   81.43    3.77
   4  -1  -6   87.49    3.79
   5   1  -6  276.97   11.71
   5  -1  -6  273.90   11.70
   5   1   6  270.47   11.50
   6   1  -6   80.86    3.78
   6  -1  -6   81.26    3.78
   6   1   6   84.12    3.56
   7   1  -6    0.99    0.55
   7   1   6    1.00    0.32
   7  -1  -6   -0.07    0.51
   8   1  -6   41.06    2.09
   8   1   6   36.40    1.80
   8  -1  -6   36.39    2.04
   9   1  -6   26.39    1.69
   9   1   6   26.22    1.38
   9  -1  -6   25.46    1.67
  10   1  -6   19.40    1.49
  10  -1  -6   20.59    1.51
  11   1  -6    5.36    1.02
  11  -1  -6    6.26    1.05
  12   1  -6    0.45    0.83
  12  -1  -6    2.10    0.86
  13   1  -6    1.70    0.86
  13  -1  -6    1.31    0.88
   0   2  -6   56.88    2.57
   0  -2  -6   59.56    2.54
   1   2  -6  271.51   11.61
  -1   2  -6  275.74   11.56
   1  -2  -6  276.36   11.59
   2   2  -6  662.86   27.69
  -2   2  -6  655.64   27.59
   3   2  -6  290.12   12.73
  -3   2  -6  299.08   12.61
   3   2   6  308.19   12.59
   3  -2  -6  302.87   12.73
   4   2  -6    1.53    0.45
   4  -2  -6    1.55    0.42
   4   2   6    1.60    0.25
   5   2  -6   54.98    2.63
   5  -2  -6   58.04    2.63
   5   2   6   53.08    2.41
   6   2  -6   51.81    2.58
   6  -2  -6   55.60    2.59
   6   2   6   51.89    2.35
   7   2  -6   10.18    0.95
   7  -2  -6   10.67    1.01
   7   2   6   10.53    0.70
   8   2  -6   15.33    1.22
   8   2   6   13.98    0.91
   8  -2  -6   14.63    1.20
   9   2  -6    0.76    0.69
   9  -2  -6    0.74    0.68
   9   2   6    0.38    0.44
  10   2  -6    0.17    0.75
  10  -2  -6    0.98    0.75
  11   2  -6   15.48    1.40
  11  -2  -6   14.85    1.44
  12   2  -6    7.00    1.15
  12  -2  -6    6.81    1.06
  13   2  -6    1.07    0.88
  13  -2  -6    0.46    0.80
   0   3  -6  513.08   21.56
   1   3  -6   12.24    0.74
  -1   3  -6   11.13    0.71
   2   3  -6  437.82   18.73
  -2   3  -6  450.13   18.65
   3   3  -6  133.33    5.67
   3  -3  -6  126.51    5.63
   3   3   6  131.38    5.53
  -3   3  -6  128.29    5.54
   4   3  -6    2.71    0.51
   4  -3  -6    1.84    0.43
   4   3   6    1.59    0.33
   5   3  -6   55.31    2.60
   5  -3  -6   53.77    2.57
   5   3   6   52.59    2.39
   6   3  -6   22.89    1.41
   6  -3  -6   23.65    1.42
   6   3   6   23.62    1.19
   7   3  -6   81.16    3.77
   7  -3  -6   77.20    3.73
   7   3   6   80.90    3.53
   8   3  -6   20.50    1.41
   8  -3  -6   21.02    1.46
   8   3   6   20.93    1.17
   9   3  -6   12.15    1.20
   9  -3  -6   14.93    1.26
   9   3   6   13.43    0.94
  10   3  -6    4.71    0.94
  10  -3  -6    4.08    0.85
  11   3  -6   14.95    1.49
  11  -3  -6   16.14    1.44
  12   3  -6    4.85    1.05
  13   3  -6    2.73    0.95
   0   4  -6   -0.10    0.34
   1   4  -6    3.18    0.46
  -1   4  -6    3.37    0.44
   2   4  -6   46.77    2.25
  -2   4  -6   47.83    2.17
   3   4  -6  154.93    6.49
  -3   4  -6  145.56    6.37
   3   4   6  146.36    6.36
   4   4  -6   39.46    2.06
   4  -4  -6   43.57    2.04
   4   4   6   40.27    1.90
   5   4  -6   14.51    1.02
   5  -4  -6   11.87    0.93
   5   4   6   12.78    0.81
   6   4  -6   25.78    1.56
   6  -4  -6   30.03    1.60
   6   4   6   26.31    1.38
   7   4  -6   36.50    2.01
   7  -4  -6   35.66    1.96
   7   4   6   36.62    1.77
   8   4  -6    9.46    1.04
   8   4   6    9.24    0.79
   8  -4  -6   10.11    1.05
   9   4  -6   17.53    1.41
   9  -4  -6   19.92    1.38
   9   4   6   16.71    1.11
  10   4  -6    3.68    0.85
  11   4  -6    0.71    0.82
  12   4  -6    2.57    0.94
  13   4  -6   10.02    1.29
   0   5  -6   44.44    2.11
  -1   5  -6  236.78   10.09
   2   5  -6    7.17    0.73
  -2   5  -6    7.92    0.65
   3   5  -6   47.17    2.33
  -3   5  -6   48.30    2.23
   3   5   6   48.32    2.22
   4   5  -6  175.49    7.56
   4   5   6  170.89    7.42
   5   5  -6   48.56    2.37
   5   5   6   46.21    2.21
   6   5  -6    5.88    0.82
   6   5   6    6.67    0.67
   7   5  -6   38.11    2.02
   7   5   6   34.26    1.80
   8   5  -6   40.40    2.27
   8   5   6   40.21    2.00
   9   5  -6   17.12    1.38
   9   5   6   15.44    1.09
  10   5  -6    0.54    0.78
  11   5  -6    0.34    0.78
  12   5  -6   11.96    1.37
  13   5  -6    0.22    0.90
   0   6  -6  136.18    5.95
   2   6  -6  124.27    5.79
  -2   6  -6  139.73    5.77
   3   6  -6    9.61    0.87
   3   6   6    8.52    0.71
  -3   6  -6    9.02    0.74
   4   6  -6    8.45    0.88
   4   6   6    7.98    0.74
   5   6  -6   22.03    1.36
   5   6   6   19.27    1.17
   6   6  -6   17.20    1.30
   6   6   6   20.56    1.18
   7   6  -6   16.98    1.32
   7   6   6   18.13    1.16
   8   6  -6    0.67    0.69
   8   6   6   -0.78    0.52
   9   6  -6    5.08    0.97
   9   6   6    4.70    0.71
  10   6  -6    6.84    1.08
  11   6  -6    9.61    1.24
  12   6  -6    1.73    0.91
  13   6  -6    1.25    0.94
   0   7  -6    0.33    0.23
   1   7  -6   -0.04    0.15
  -1   7  -6    0.10    0.19
   2   7  -6  143.87    6.22
   2   7   6  138.64    6.15
   3   7  -6   22.43    1.41
   3   7   6   26.51    1.38
   4   7  -6   23.41    1.46
   4   7   6   23.12    1.31
   5   7  -6   11.94    1.06
   5   7   6   10.63    0.87
   6   7  -6   71.16    3.50
   6   7   6   73.57    3.38
   7   7  -6    0.40    0.72
   7   7   6   -0.61    0.57
   8   7  -6   15.33    1.34
   8   7   6   12.82    1.10
   9   7  -6    1.47    0.84
   9   7   6    0.71    0.65
  10   7  -6   18.38    1.47
  11   7  -6    2.10    0.93
  12   7  -6   -0.23    0.81
  13   7  -6    0.75    0.87
   0   8  -6  229.11    9.89
   1   8  -6   24.30    1.37
   2   8  -6   12.30    1.00
  -2   8  -6    9.67    0.88
   2   8   6    9.07    0.84
   3   8  -6    7.57    0.82
   3   8   6    5.67    0.72
  -3   8  -6    6.33    0.75
   4   8  -6  121.90    5.40
   4   8   6  117.18    5.28
  -4   8  -6  116.99    5.28
   5   8  -6   33.38    1.87
   5   8   6   29.92    1.71
   6   8  -6    6.96    0.97
   6   8   6    6.41    0.81
   7   8  -6    3.71    0.88
   7   8   6    3.96    0.79
   8   8  -6    2.54    0.91
   8   8   6    1.65    0.68
   9   8  -6   10.94    1.28
   9   8   6   10.51    1.07
  10   8  -6    5.16    1.01
  11   8  -6    3.26    0.98
  12   8  -6    0.23    0.86
  13   8  -6   -0.74    0.88
   0   9  -6   38.77    2.04
   1   9  -6   28.57    1.75
  -1   9  -6   37.55    1.82
   2   9  -6   22.43    1.49
  -2   9  -6   23.89    1.42
   2   9   6   23.58    1.40
   3   9  -6   22.14    1.43
   3   9   6   19.97    1.29
  -3   9  -6   19.89    1.30
   4   9  -6   19.78    1.36
   4   9   6   17.21    1.23
  -4   9  -6   17.19    1.22
   5   9  -6   42.14    2.32
   5   9   6   41.71    2.20
   6   9  -6    3.07    0.85
   6   9   6    3.15    0.71
   7   9  -6    0.21    0.77
   7   9   6   -0.21    0.69
   8   9  -6   10.11    1.27
   8   9   6    9.63    1.09
   9   9  -6   19.99    1.67
   9   9   6   22.04    1.46
  10   9  -6   -0.56    0.84
  11   9  -6    1.26    0.89
  12   9  -6    1.42    0.96
  13   9  -6    3.63    1.13
   0  10  -6   40.71    2.17
   1  10  -6    5.14    0.74
  -1  10  -6    6.27    0.82
   2  10  -6   21.91    1.38
   2  10   6   21.03    1.38
  -2  10  -6   19.65    1.34
   3  10  -6   15.02    1.24
  -3  10  -6   15.30    1.15
   3  10   6   15.28    1.18
   4  10  -6   10.28    1.11
   4  10   6   10.14    1.02
  -4  10  -6   10.48    1.01
   5  10  -6   13.27    1.28
   5  10   6   13.81    1.20
   6  10  -6    9.85    1.22
   6  10   6   10.40    1.05
   7  10  -6    5.04    1.06
   7  10   6    8.06    1.04
   8  10  -6   22.75    1.79
   8  10   6   23.82    1.63
   9  10  -6    0.51    0.92
   9  10   6    1.28    0.76
  10  10  -6   -0.27    0.87
  11  10  -6    0.49    0.89
  12  10  -6    2.14    0.99
  13  10  -6    1.43    1.02
   0  11  -6   12.26    1.15
   1  11  -6   16.12    1.13
   2  11  -6   14.93    1.22
   2  11   6   13.78    1.13
  -2  11  -6   14.21    1.14
   3  11  -6   40.76    2.28
  -3  11  -6   40.69    2.20
   3  11   6   40.58    2.21
   4  11  -6    2.60    0.84
   4  11   6    2.40    0.71
  -4  11  -6    1.95    0.71
   5  11  -6    4.11    0.92
   5  11   6    2.71    0.80
  -5  11  -6    2.41    0.73
   6  11  -6    5.01    1.00
   6  11   6    4.17    0.86
   7  11  -6   25.74    1.87
   7  11   6   26.59    1.73
   8  11  -6    2.65    0.95
   8  11   6    1.35    0.83
   9  11  -6   -0.76    0.79
   9  11   6    0.71    0.77
  10  11  -6    1.21    0.97
  11  11  -6    0.58    0.94
  12  11  -6    1.22    0.97
  13  11  -6    2.61    1.10
   0  12  -6   30.66    1.88
   1  12  -6    3.27    0.65
   1  12   6    4.61    0.82
  -1  12  -6    4.53    0.84
   2  12  -6   28.78    1.79
  -2  12  -6   29.51    1.79
   2  12   6   28.72    1.77
   3  12  -6    2.84    0.87
  -3  12  -6    3.61    0.80
   3  12   6    4.24    0.85
   4  12  -6    3.67    0.92
   4  12   6    4.30    0.88
  -4  12  -6    3.53    0.79
   5  12  -6    2.43    0.89
  -5  12  -6    3.13    0.76
   5  12   6    2.02    0.84
   6  12  -6    8.11    1.23
  -6  12  -6    9.78    1.09
   6  12   6    8.34    1.11
   7  12  -6   16.18    1.56
   7  12   6   13.21    1.37
   8  12  -6    4.67    1.08
   8  12   6    3.97    0.97
   9  12  -6    1.82    0.98
   9  12   6    1.46    0.87
  10  12  -6    2.43    1.06
  11  12  -6    1.07    1.02
  12  12  -6    0.52    0.99
  13  12  -6    0.49    0.99
   0  13  -6    1.75    0.78
   1  13   6   12.29    1.23
  -1  13  -6   14.30    1.27
  -2  13  -6    4.86    0.89
   2  13   6    3.64    0.87
   3  13  -6    1.21    0.82
   3  13   6    0.91    0.71
  -3  13  -6    1.24    0.73
   4  13  -6    7.43    1.13
  -4  13  -6    9.33    1.12
   4  13   6    8.78    1.08
   5  13  -6   14.06    1.48
   5  13   6   15.15    1.40
  -5  13  -6   13.47    1.25
   6  13  -6    1.77    0.93
   6  13   6    0.29    0.83
  -6  13  -6    2.10    0.83
   7  13  -6    1.95    0.98
   7  13   6    2.97    0.91
  -7  13  -6    1.86    0.79
   8  13  -6    1.66    1.06
   8  13   6    1.61    0.86
   9  13  -6    0.92    1.05
   9  13   6    3.62    0.99
  10  13  -6    2.31    1.01
  11  13  -6    2.20    1.07
  12  13  -6    0.95    1.06
   0  14  -6    9.02    1.18
   1  14  -6   -0.02    0.18
   1  14   6    2.79    0.85
  -1  14  -6    0.87    0.72
   2  14   6    8.47    1.11
  -2  14  -6    7.15    1.06
   3  14  -6    5.80    1.08
   3  14   6    5.73    0.96
  -3  14  -6    3.50    0.90
   4  14  -6    1.74    0.88
  -4  14  -6    2.07    0.84
   4  14   6    1.00    0.87
   5  14  -6    2.15    0.98
   5  14   6    3.47    0.93
  -5  14  -6    3.22    0.88
   6  14  -6    1.10    0.95
  -6  14  -6    1.23    0.81
   6  14   6    2.36    0.94
   7  14  -6    4.73    1.16
  -7  14  -6    3.34    0.93
   7  14   6    3.48    0.97
   8  14  -6    0.14    1.01
   8  14   6    0.66    0.82
  -8  14  -6    0.85    0.71
   9  14  -6    1.61    1.00
   9  14   6    1.65    0.91
  10  14  -6    3.18    1.18
  11  14  -6    2.70    1.18
  12  14  -6   -1.66    0.94
   0  15  -6   -0.23    0.76
   0  15   6   -0.95    0.72
  -1  15  -6    3.18    0.90
   1  15   6    1.77    0.86
   2  15  -6    0.32    0.63
   2  15   6    3.23    0.94
  -2  15  -6    2.98    0.92
   3  15  -6    9.02    1.33
  -3  15  -6    7.62    1.13
   3  15   6    7.20    1.11
   4  15  -6    7.70    1.23
  -4  15  -6    6.09    1.09
   4  15   6    6.17    1.11
   5  15  -6    1.89    0.98
   5  15   6    1.70    0.89
  -5  15  -6    2.64    0.93
   6  15  -6    2.63    1.06
   6  15   6    0.81    0.92
  -6  15  -6    3.44    0.94
   7  15  -6    4.20    1.18
  -7  15  -6    3.49    0.97
   7  15   6    4.04    1.02
   8  15  -6   -0.35    0.94
   8  15   6   -0.60    0.85
  -8  15  -6    1.93    0.85
   9  15  -6   -0.78    0.99
  -9  15  -6    0.64    0.82
   9  15   6   -0.32    0.86
  10  15  -6   -0.36    0.94
 -10  15  -6    1.03    0.81
  11  15  -6   -0.88    1.04
  12  15  -6    2.15    1.20
   0  16  -6   -0.14    0.82
   0  16   6   -0.69    0.77
   1  16  -6    0.92    0.88
  -1  16  -6    0.20    0.84
   1  16   6    1.90    0.91
   2  16  -6   -0.50    0.79
   2  16   6    1.07    0.84
  -2  16  -6   -0.19    0.78
   3  16  -6    0.57    0.89
   3  16   6    1.76    0.87
  -3  16  -6    0.86    0.83
   4  16  -6    2.16    1.03
   4  16   6    3.89    0.99
  -4  16  -6    2.09    0.89
   5  16  -6    0.77    0.95
  -5  16  -6    0.44    0.82
   5  16   6    1.24    0.93
   6  16  -6    2.37    1.10
  -6  16  -6    1.47    0.91
   6  16   6    2.02    0.93
   7  16  -6    2.85    1.11
  -7  16  -6    2.93    0.96
   7  16   6    1.56    0.95
   8  16  -6   -0.74    0.95
  -8  16  -6    1.67    0.91
   8  16   6    1.26    0.97
   9  16  -6    1.21    1.06
   9  16   6    0.56    0.93
  -9  16  -6    0.74    0.85
  10  16  -6   -0.38    1.07
 -10  16  -6    2.31    0.96
  11  16  -6    2.11    1.17
   0  17   6   -0.29    0.85
   0  17  -6    0.39    0.86
  -1  17   6    0.75    0.88
   1  17  -6    1.18    0.90
   1  17   6    0.82    0.88
  -1  17  -6    2.12    0.93
   2  17  -6    0.52    0.90
  -2  17  -6    0.91    0.87
   2  17   6    1.47    0.92
   3  17  -6    2.65    1.02
  -3  17  -6    3.05    0.99
   3  17   6    2.21    0.96
   4  17  -6    3.67    1.10
   4  17   6    2.74    0.99
  -4  17  -6    3.71    1.02
   5  17  -6    2.40    1.06
   5  17   6    1.34    0.94
  -5  17  -6    1.69    0.90
   6  17  -6    0.10    1.04
  -6  17  -6   -0.13    0.87
   6  17   6    1.61    1.00
   7  17  -6    0.16    0.98
  -7  17  -6    2.35    0.96
   7  17   6    0.29    0.93
   8  17  -6   -0.42    0.99
   8  17   6    1.07    0.94
  -8  17  -6    2.26    0.96
   9  17  -6    0.41    1.07
  -9  17  -6    1.38    0.93
   9  17   6    1.90    1.02
  10  17  -6    0.24    1.12
 -10  17  -6    1.54    0.92
  11  17  -6    0.14    1.12
   0  18   6   -1.87    0.78
   0  18  -6    0.53    0.90
   1  18  -6    8.86    1.32
  -1  18   6   10.37    1.36
   1  18   6    7.48    1.29
  -1  18  -6   10.71    1.42
   2  18  -6    5.15    1.13
   2  18   6    4.28    1.10
  -2  18  -6    5.43    1.14
   3  18  -6   -1.47    0.88
  -3  18  -6    0.39    0.91
   3  18   6    0.24    0.90
   4  18  -6   -0.95    0.90
  -4  18  -6    0.04    0.86
   4  18   6    0.16    0.95
   5  18  -6    4.09    1.21
   5  18   6    4.59    1.17
  -5  18  -6    4.82    1.15
   6  18  -6    0.72    1.10
   6  18   6    0.96    0.94
  -6  18  -6    2.01    0.96
   7  18  -6   -0.69    1.01
   7  18   6    0.76    0.93
  -7  18  -6    0.34    0.90
   8  18  -6   -0.17    1.03
   8  18   6    1.18    1.01
  -8  18  -6    0.91    0.95
   9  18  -6    1.18    1.23
  -9  18  -6    1.70    1.00
   9  18   6    1.09    1.08
  10  18  -6   -0.20    1.14
 -10  18  -6    0.54    0.94
   0  19  -6    5.90    1.20
   0  19   6    3.67    1.13
   1  19  -6    5.06    1.17
  -1  19   6    2.67    1.04
  -1  19  -6    2.68    1.06
   1  19   6    2.27    1.02
  -2  19   6    3.02    1.04
   2  19  -6    2.58    1.04
   2  19   6    2.31    1.02
  -2  19  -6    0.97    0.98
   3  19  -6    0.85    1.04
  -3  19  -6    1.91    1.00
   3  19   6    0.88    0.98
   4  19  -6    5.47    1.28
   4  19   6    4.87    1.13
  -4  19  -6    5.93    1.20
   5  19  -6    2.51    1.18
   5  19   6    6.33    1.23
  -5  19  -6    4.08    1.11
   6  19  -6    3.13    1.21
   6  19   6    3.70    1.16
  -6  19  -6    2.12    0.99
   7  19  -6    0.77    1.06
  -7  19  -6   -0.46    0.89
   7  19   6    0.54    0.97
   8  19  -6    2.16    1.23
  -8  19  -6    0.09    0.99
   8  19   6   -0.63    0.93
   9  19  -6    1.01    1.15
  -9  19  -6    0.21    0.96
   9  19   6    2.02    1.11
   0  20   6   20.10    1.86
   0  20  -6   20.74    1.86
  -1  20   6    0.31    0.94
   1  20  -6   -0.97    0.89
  -1  20  -6   -1.17    0.89
   1  20   6   -1.46    0.84
  -2  20   6    1.58    0.97
   2  20  -6    0.91    1.02
   2  20   6    0.96    1.01
  -2  20  -6    3.57    1.10
   3  20  -6    1.12    1.08
  -3  20   6    1.18    0.94
   3  20   6    1.25    1.10
  -3  20  -6   -0.12    0.90
   4  20  -6    6.23    1.35
   4  20   6    7.05    1.32
  -4  20  -6    8.84    1.38
   5  20  -6    2.11    1.12
  -5  20  -6    2.99    1.13
   5  20   6    2.90    1.09
   6  20  -6    0.48    1.14
  -6  20  -6    0.42    0.97
   6  20   6   -0.96    1.00
   7  20  -6    3.62    1.31
   7  20   6   -0.22    1.00
  -7  20  -6    1.80    1.07
   8  20  -6    0.50    1.20
   8  20   6    0.55    1.05
  -8  20  -6    1.34    1.07
   9  20  -6    1.37    1.25
   9  20   6    3.72    1.27
  -9  20  -6    0.42    1.04
   0  21   6    4.24    1.18
   0  21  -6    1.91    1.09
   1  21  -6    6.94    1.34
  -1  21   6    5.66    1.26
   1  21   6    4.02    1.21
  -1  21  -6    5.36    1.22
   2  21  -6   -1.23    0.90
  -2  21   6    1.22    1.00
   2  21   6   -0.31    0.96
  -2  21  -6   -1.09    0.92
   3  21  -6    1.82    1.12
  -3  21   6    1.82    1.03
   3  21   6   -0.19    1.05
  -3  21  -6    1.60    1.04
   4  21  -6    4.05    1.31
  -4  21   6    4.49    1.18
  -4  21  -6    2.71    1.14
   4  21   6    3.85    1.17
   5  21  -6    4.51    1.29
  -5  21  -6    6.16    1.31
   5  21   6    5.87    1.33
   6  21  -6    2.64    1.20
  -6  21  -6    3.05    1.17
   6  21   6    2.59    1.20
   7  21  -6    1.84    1.25
  -7  21  -6   -2.34    0.81
   7  21   6   -0.72    1.00
   8  21  -6    3.21    1.32
  -8  21  -6    3.26    1.16
   8  21   6    1.35    1.13
   0  22   6    1.40    1.07
   0  22  -6   -0.95    0.95
   1  22  -6    4.47    1.29
  -1  22   6    3.83    1.21
  -1  22  -6    3.94    1.23
   1  22   6    4.43    1.23
  -2  22   6    7.01    1.39
   2  22  -6    6.25    1.39
  -2  22  -6    8.95    1.48
   2  22   6    7.38    1.40
  -3  22   6    4.13    1.24
   3  22  -6    5.19    1.32
  -3  22  -6    3.34    1.20
   3  22   6    4.14    1.30
   4  22  -6    0.22    1.07
  -4  22   6    0.96    1.05
  -4  22  -6    0.68    1.03
   4  22   6    0.36    1.09
  -5  22   6   -0.12    0.99
   5  22  -6    1.54    1.20
  -5  22  -6    2.22    1.10
   5  22   6    2.36    1.22
   6  22  -6    2.69    1.30
  -6  22  -6    3.84    1.23
   6  22   6    2.13    1.24
   7  22  -6    1.75    1.26
   7  22   6    1.30    1.15
  -7  22  -6   -0.51    0.97
   0  23  -6   -0.01    1.02
   0  23   6    0.57    1.08
  -1  23   6   -0.56    0.98
   1  23  -6   -1.16    0.99
  -1  23  -6    0.63    1.06
   1  23   6    0.52    1.12
   2  23  -6    3.07    1.24
  -2  23   6    2.71    1.15
  -2  23  -6    1.77    1.14
   2  23   6    2.34    1.25
  -3  23   6    2.58    1.17
   3  23  -6    4.62    1.33
   3  23   6    4.17    1.32
  -3  23  -6    2.93    1.23
   4  23  -6   -0.53    1.07
  -4  23   6    0.83    1.09
   4  23   6    2.42    1.18
  -4  23  -6    0.49    1.06
   5  23  -6   -0.17    1.19
  -5  23   6    1.13    1.14
   5  23   6    0.35    1.09
  -5  23  -6    1.53    1.14
   6  23  -6   -0.21    1.23
  -6  23   6   -0.14    1.06
   6  23   6    0.28    1.18
  -6  23  -6   -0.54    1.05
   0  24  -6    0.01    1.07
   0  24   6   -0.05    1.10
  -1  24   6    3.38    1.26
   1  24  -6    3.21    1.33
   1  24   6    3.17    1.35
  -1  24  -6    1.55    1.19
  -2  24   6    3.27    1.27
   2  24  -6   -0.41    1.14
   2  24   6    0.32    1.12
  -2  24  -6    1.25    1.15
  -3  24   6    4.00    1.29
   3  24  -6    1.39    1.29
   3  24   6    2.82    1.33
  -3  24  -6    3.87    1.34
   4  24  -6    0.34    1.27
  -4  24   6   -0.12    1.08
   4  24   6    0.52    1.14
  -4  24  -6    1.91    1.27
   0  25  -6   -0.60    1.23
   0  25   6    1.82    1.23
  -1  25   6    2.26    1.26
   1  25  -6    1.89    1.30
   1  25   6    1.74    1.28
  -1  25  -6   -1.02    1.11
  -2  25   6    0.12    1.16
   2  25  -6   -1.11    1.17
   2  25   6   -0.85    1.15
  -2  25  -6    0.57    1.18
   0   0  -7   -0.20    0.19
  -1   0  -7    1.39    0.22
   1   0  -7    0.85    0.29
   2   0  -7    0.07    0.07
  -2   0  -7    0.45    0.14
   3   0  -7   75.16    3.36
   4   0  -7    2.87    0.48
   6   0  -7    5.19    0.72
   7   0  -7   16.31    1.23
   8   0  -7    2.49    0.72
   9   0  -7    1.25    0.71
  10   0  -7    1.44    0.75
  11   0  -7    3.93    0.97
  12   0  -7   -0.31    0.77
  13   0  -7   -0.12    0.79
   0   1  -7   15.22    0.80
   0  -1  -7   14.98    0.78
  -1  -1  -7  130.55    5.54
   1   1  -7  130.88    5.62
  -1   1  -7  126.40    5.55
   1  -1  -7  135.52    5.62
   3   1  -7   37.93    1.86
   3  -1  -7   38.17    1.85
   4   1  -7   34.58    1.71
   4  -1  -7   32.39    1.70
   5  -1  -7   16.28    1.10
   6   1  -7   21.15    1.28
   6  -1  -7   21.53    1.28
   6   1   7   18.76    0.97
   7   1  -7   10.89    1.01
   7   1   7   10.90    0.67
   7  -1  -7   10.79    0.98
   8   1  -7   20.54    1.42
   8  -1  -7   18.85    1.38
   8   1   7   17.80    1.02
   9   1  -7    0.95    0.72
   9  -1  -7    1.43    0.67
  10   1  -7    1.52    0.74
  10  -1  -7    1.64    0.73
  11   1  -7    1.49    0.84
  11  -1  -7    1.74    0.88
  12   1  -7    6.19    1.10
  12  -1  -7    7.16    1.13
  13   1  -7   -0.15    0.80
  13  -1  -7    0.05    0.78
  14  -1  -7   -0.39    0.82
   0  -2  -7   19.34    0.95
   0   2  -7   18.37    0.97
   1   2  -7   88.48    3.90
   1  -2  -7   92.04    3.88
  -1   2  -7   86.67    3.84
   3   2  -7   18.77    1.11
  -3   2  -7   18.15    0.89
   3  -2  -7   20.95    1.09
   3   2   7   16.69    0.86
   4   2  -7   39.88    1.94
   4  -2  -7   39.35    1.92
   4   2   7   37.98    1.69
   5   2  -7   17.41    1.12
   5   2   7   15.00    0.80
   5  -2  -7   18.72    1.11
   6   2  -7   36.96    1.86
   6   2   7   32.19    1.52
   6  -2  -7   32.16    1.79
   7   2  -7   10.24    1.03
   7   2   7   11.40    0.71
   7  -2  -7   11.11    1.03
   8   2  -7    5.93    0.88
   8  -2  -7    5.71    0.86
   8   2   7    6.89    0.59
   9   2  -7   11.83    1.20
   9  -2  -7   11.66    1.19
   9   2   7   13.92    0.88
  10   2  -7    1.49    0.78
  10  -2  -7    1.85    0.73
  11   2  -7    6.64    1.08
  11  -2  -7    5.72    1.07
  12   2  -7    1.19    0.84
  12  -2  -7    2.19    0.87
  13   2  -7    0.79    0.93
  13  -2  -7    2.74    0.94
   0   3  -7    6.85    0.59
   1   3  -7  236.60   10.12
  -1   3  -7  237.89   10.07
   1  -3  -7  239.46   10.10
   3   3  -7   25.33    1.24
   3   3   7   20.04    1.01
  -3   3  -7   19.49    1.03
   3  -3  -7   19.63    1.15
   4   3  -7   43.51    2.08
   4  -3  -7   40.08    2.04
   4   3   7   40.89    1.86
   5   3  -7   24.09    1.42
   5   3   7   24.70    1.17
   5  -3  -7   23.22    1.40
   6   3  -7   20.96    1.30
   6   3   7   20.21    1.00
   6  -3  -7   17.05    1.23
   7   3  -7   46.00    2.35
   7  -3  -7   45.01    2.33
   7   3   7   43.72    2.05
   8   3  -7    2.31    0.73
   8   3   7    1.80    0.43
   8  -3  -7    1.37    0.69
   9   3  -7    1.01    0.73
   9  -3  -7    0.72    0.71
   9   3   7    1.45    0.45
  10   3  -7    7.27    1.06
  10  -3  -7    7.88    1.05
  11   3  -7    9.60    1.23
  11  -3  -7    8.11    1.12
  12   3  -7   -0.35    0.77
  12  -3  -7    0.68    0.79
  13   3  -7   -1.31    0.77
   0   4  -7   47.66    2.21
   1   4  -7    7.97    0.70
  -1   4  -7    8.84    0.67
  -2   4  -7  150.00    6.43
   3   4  -7   29.27    1.51
  -3   4  -7   27.26    1.36
   3   4   7   27.47    1.34
   3  -4  -7   27.10    1.45
   4   4  -7   81.12    3.84
  -4   4  -7   83.05    3.69
   4  -4  -7   85.18    3.83
   4   4   7   87.18    3.69
   5   4  -7   12.76    1.00
   5   4   7   13.93    0.79
   5  -4  -7   11.59    0.93
   6   4  -7   43.38    2.20
   6   4   7   42.44    1.95
   6  -4  -7   39.60    2.15
   7   4  -7    1.64    0.66
   7  -4  -7    0.26    0.55
   7   4   7    1.39    0.42
   8   4  -7   13.60    1.25
   8   4   7   14.87    0.93
   8  -4  -7   13.67    1.23
   9   4  -7    4.54    0.94
   9  -4  -7    5.29    0.89
   9   4   7    5.75    0.63
  10   4  -7    1.58    0.79
  10  -4  -7    2.05    0.81
  11   4  -7    2.59    0.91
  12   4  -7    3.39    0.98
  13   4  -7   -0.29    0.82
   0   5  -7   35.13    1.74
  -1   5  -7  103.55    4.54
   3   5  -7   16.76    1.09
   3   5   7   17.89    0.98
  -3   5  -7   17.86    1.01
   4   5  -7   72.96    3.44
  -4   5  -7   73.23    3.30
   4   5   7   74.95    3.30
   5   5  -7   34.44    1.80
   5   5   7   30.84    1.60
   6   5  -7   15.95    1.20
   6   5   7   15.74    0.99
   7   5  -7    4.70    0.80
   7   5   7    4.62    0.59
   8   5  -7    8.83    1.07
   8   5   7    9.13    0.79
   9   5  -7   24.09    1.75
   9   5   7   27.18    1.45
  10   5  -7    1.55    0.82
  11   5  -7    0.21    0.74
  12   5  -7   -0.11    0.79
  13   5  -7    2.86    1.02
   0   6  -7  293.23   12.49
  -1   6  -7    2.86    0.48
   2   6  -7   -0.22    0.21
  -2   6  -7    0.97    0.37
   3   6  -7   94.78    4.36
  -3   6  -7   95.88    4.27
   3   6   7   97.59    4.25
   4   6  -7  101.95    4.69
  -4   6  -7  106.20    4.58
   4   6   7  102.28    4.55
   5   6  -7    6.12    0.78
   5   6   7    3.64    0.55
   6   6  -7    6.37    0.87
   6   6   7    6.64    0.71
   7   6  -7   11.03    1.14
   7   6   7   10.84    0.91
   8   6  -7    6.03    0.98
   8   6   7    8.14    0.80
   9   6  -7    2.90    0.84
   9   6   7    2.34    0.61
  10   6  -7    6.98    1.08
  11   6  -7    2.99    0.96
  12   6  -7    0.29    0.84
  13   6  -7    0.41    0.88
   0   7  -7   14.41    0.96
  -2   7  -7    0.27    0.20
   3   7  -7   35.66    1.91
   3   7   7   33.85    1.76
   4   7  -7   32.08    1.82
   4   7   7   32.13    1.68
   5   7  -7   24.85    1.57
   5   7   7   24.56    1.40
   6   7  -7   42.86    2.27
   6   7   7   39.65    2.07
   7   7  -7   11.12    1.18
   7   7   7   11.51    0.99
   8   7  -7   13.92    1.26
   8   7   7   11.52    1.02
   9   7  -7    2.79    0.90
   9   7   7    3.55    0.69
  10   7  -7   11.13    1.29
  11   7  -7    3.50    1.00
  12   7  -7   -0.40    0.81
  13   7  -7    0.30    0.86
   0   8  -7   36.36    1.91
   1   8  -7  108.29    4.85
  -1   8  -7  106.24    4.82
  -2   8  -7  265.68   11.41
   3   8  -7   44.04    2.22
  -3   8  -7   39.36    2.10
   3   8   7   42.25    2.11
   4   8  -7   21.07    1.40
   4   8   7   20.69    1.28
  -4   8  -7   18.02    1.23
   5   8  -7   44.48    2.38
   5   8   7   43.74    2.22
   6   8  -7   17.36    1.41
   6   8   7   20.37    1.28
   7   8  -7    7.78    1.04
   7   8   7    7.23    0.92
   8   8  -7   10.32    1.21
   8   8   7    8.87    0.98
   9   8  -7    2.27    0.90
   9   8   7    2.49    0.72
  10   8  -7    0.99    0.88
  11   8  -7    4.07    0.98
  12   8  -7    1.88    0.96
  13   8  -7    0.06    0.95
   0   9  -7   74.31    3.50
   1   9  -7   15.90    1.16
  -1   9  -7   16.85    1.15
  -2   9  -7   41.88    2.15
   2   9   7   41.04    2.13
   3   9  -7  107.88    4.94
  -3   9  -7  106.99    4.86
   3   9   7  107.25    4.84
   4   9  -7   33.71    1.89
  -4   9  -7   29.74    1.70
   4   9   7   31.12    1.74
   5   9  -7   40.08    2.29
   5   9   7   42.95    2.19
  -5   9  -7   40.58    2.14
   6   9  -7    2.39    0.84
   6   9   7    1.66    0.66
   7   9  -7   45.89    2.49
   7   9   7   41.77    2.30
   8   9  -7   28.56    1.88
   8   9   7   26.31    1.71
   9   9  -7    6.83    1.11
   9   9   7    5.42    0.90
  10   9  -7    3.96    1.04
  11   9  -7    4.32    1.08
  12   9  -7    5.51    1.17
  13   9  -7   -1.72    0.92
   0  10  -7    0.03    0.53
   1  10  -7  121.93    5.57
  -1  10  -7  123.81    5.56
   2  10  -7   11.63    1.02
   2  10   7   11.95    1.00
  -2  10  -7   12.32    1.03
   3  10  -7   91.57    4.39
   3  10   7   92.62    4.31
  -3  10  -7   96.89    4.35
   4  10  -7   15.75    1.30
   4  10   7   14.39    1.15
  -4  10  -7   13.74    1.09
   5  10  -7   11.05    1.23
   5  10   7   10.68    1.06
  -5  10  -7   11.50    1.04
   6  10  -7   17.95    1.50
   6  10   7   17.83    1.32
   7  10  -7   12.11    1.38
   7  10   7   14.31    1.24
   8  10  -7    4.20    1.00
   8  10   7    3.39    0.85
   9  10  -7    3.31    1.00
   9  10   7    3.01    0.82
  10  10  -7    4.01    1.09
  11  10  -7   -0.20    0.89
  12  10  -7   -1.17    0.84
  13  10  -7    5.06    1.21
   0  11  -7    6.67    0.88
   1  11  -7   16.01    1.26
  -1  11  -7   15.31    1.22
   2  11  -7   13.14    1.14
  -2  11  -7   16.19    1.20
   2  11   7   17.45    1.20
   3  11  -7   21.22    1.51
  -3  11  -7   20.01    1.45
   3  11   7   21.44    1.43
   4  11  -7   23.33    1.66
  -4  11  -7   23.21    1.52
   4  11   7   24.62    1.57
   5  11  -7   27.54    1.83
  -5  11  -7   25.97    1.62
   5  11   7   26.54    1.70
   6  11  -7    3.52    0.98
   6  11   7    5.40    0.90
  -6  11  -7    4.96    0.84
   7  11  -7   32.45    2.10
   7  11   7   30.51    1.92
   8  11  -7   11.07    1.33
   8  11   7    9.64    1.16
   9  11  -7   12.04    1.43
   9  11   7   11.81    1.25
  10  11  -7    0.92    0.93
  11  11  -7    4.07    1.15
  12  11  -7    0.81    0.95
  13  11  -7    1.03    1.05
   0  12  -7   19.47    1.44
   1  12  -7   59.89    3.00
  -1  12  -7   55.14    2.93
   2  12  -7   59.90    3.27
   2  12   7   70.58    3.33
  -2  12  -7   69.60    3.33
   3  12  -7   24.49    1.66
  -3  12  -7   25.19    1.62
   3  12   7   24.99    1.60
   4  12  -7   18.18    1.50
  -4  12  -7   16.23    1.32
   4  12   7   18.88    1.39
   5  12  -7   22.25    1.71
  -5  12  -7   23.94    1.59
   5  12   7   22.72    1.60
   6  12  -7    5.70    1.08
  -6  12  -7    4.56    0.88
   6  12   7    3.16    0.89
   7  12  -7    7.89    1.22
  -7  12  -7    6.49    0.96
   7  12   7    6.02    0.99
   8  12  -7    6.88    1.19
   8  12   7    6.99    1.02
   9  12  -7    2.52    1.07
   9  12   7    1.70    0.87
  10  12  -7   -0.68    0.87
  11  12  -7    5.56    1.24
  12  12  -7    2.49    1.09
  13  12  -7   -0.44    1.05
   0  13  -7    1.64    0.76
  -1  13  -7   19.65    1.49
   1  13   7   18.16    1.41
  -2  13  -7   28.35    1.83
   2  13   7   30.15    1.84
   3  13  -7   15.09    1.35
   3  13   7   10.64    1.21
  -3  13  -7   13.00    1.28
   4  13  -7   23.00    1.78
   4  13   7   27.03    1.74
  -4  13  -7   25.55    1.69
   5  13  -7    3.60    1.01
   5  13   7    2.58    0.87
  -5  13  -7    2.86    0.81
   6  13  -7   44.24    2.60
   6  13   7   43.23    2.47
  -6  13  -7   42.80    2.44
   7  13  -7    3.82    1.08
  -7  13  -7    6.63    0.97
   7  13   7    4.58    1.02
   8  13  -7    4.45    1.18
  -8  13  -7    6.28    0.99
   8  13   7    6.79    1.10
   9  13  -7    4.82    1.16
  -9  13  -7    5.50    0.99
   9  13   7    9.62    1.20
  10  13  -7   11.10    1.52
  11  13  -7   -0.78    0.92
  12  13  -7    0.88    1.04
   0  14  -7  146.71    6.72
  -1  14  -7    3.81    0.93
   1  14   7    4.40    0.91
  -2  14  -7   22.87    1.64
   2  14   7   21.90    1.61
   3  14  -7    5.11    1.07
  -3  14  -7    4.41    0.94
   3  14   7    4.86    0.94
   4  14  -7   68.03    3.51
  -4  14  -7   64.06    3.39
   4  14   7   67.28    3.43
   5  14  -7    8.10    1.28
   5  14   7    6.87    1.10
  -5  14  -7    8.66    1.16
   6  14  -7   -0.90    0.89
   6  14   7   -0.61    0.78
  -6  14  -7   -0.08    0.68
   7  14  -7    3.62    1.11
   7  14   7    4.14    0.97
  -7  14  -7    4.55    0.93
   8  14  -7    1.79    1.10
  -8  14  -7    3.44    0.89
   8  14   7    2.32    0.95
   9  14  -7    2.43    1.05
  -9  14  -7    4.70    0.97
   9  14   7    1.64    0.96
  10  14  -7    1.97    1.07
 -10  14  -7    4.29    0.98
  11  14  -7    2.92    1.19
  12  14  -7   -1.59    0.99
   0  15  -7    1.81    0.84
  -1  15  -7   20.00    1.65
   1  15   7   24.82    1.70
   2  15   7   19.13    1.54
  -2  15  -7   18.09    1.54
   3  15  -7    8.94    1.28
   3  15   7    6.31    1.12
  -3  15  -7    8.18    1.17
   4  15  -7   13.94    1.54
  -4  15  -7   13.64    1.41
   4  15   7   13.40    1.44
   5  15  -7   21.39    1.76
   5  15   7   20.82    1.65
  -5  15  -7   18.62    1.57
   6  15  -7   13.87    1.59
  -6  15  -7   14.01    1.42
   6  15   7   15.37    1.50
   7  15  -7    1.71    1.01
  -7  15  -7    0.74    0.78
   7  15   7    1.64    0.88
   8  15  -7    9.87    1.46
   8  15   7   10.49    1.29
  -8  15  -7    8.98    1.21
   9  15  -7    9.46    1.47
   9  15   7    9.97    1.37
  -9  15  -7   13.55    1.42
  10  15  -7    0.95    1.11
 -10  15  -7    1.99    0.87
  11  15  -7    0.31    1.12
   0  16  -7    3.00    0.95
   0  16   7    2.66    0.95
   1  16  -7   31.43    2.11
  -1  16  -7   29.49    2.04
   1  16   7   29.10    2.01
   2  16  -7   25.65    1.87
  -2  16  -7   22.22    1.77
   2  16   7   24.29    1.79
   3  16  -7   19.77    1.66
  -3  16  -7   21.82    1.68
   3  16   7   21.72    1.69
   4  16  -7    3.09    1.08
   4  16   7    4.53    1.08
  -4  16  -7    5.72    1.09
   5  16  -7   19.84    1.79
   5  16   7   20.59    1.65
  -5  16  -7   21.32    1.65
   6  16  -7   16.73    1.77
   6  16   7   13.06    1.50
  -6  16  -7   14.58    1.52
   7  16  -7    2.16    1.06
  -7  16  -7    1.57    0.90
   7  16   7    1.74    0.92
   8  16  -7    1.93    1.09
  -8  16  -7    1.98    0.91
   8  16   7    2.04    1.01
   9  16  -7    1.53    1.05
   9  16   7    1.86    1.02
  -9  16  -7    1.12    0.87
  10  16  -7    0.51    1.05
 -10  16  -7    0.53    0.85
  11  16  -7   -0.13    1.03
   0  17  -7    3.09    0.99
   0  17   7    1.17    0.88
   1  17  -7    2.86    1.01
   1  17   7    2.92    0.97
  -1  17  -7    3.63    1.03
   2  17  -7    1.99    0.95
   2  17   7    1.61    0.93
  -2  17  -7    2.42    0.95
   3  17  -7   28.87    2.13
  -3  17  -7   29.87    2.04
   3  17   7   29.03    2.08
   4  17  -7    6.43    1.19
   4  17   7    6.11    1.16
  -4  17  -7    6.41    1.14
   5  17  -7    4.43    1.17
  -5  17  -7    3.36    1.03
   5  17   7    3.24    1.06
   6  17  -7   -0.27    0.98
  -6  17  -7    0.06    0.81
   6  17   7    1.16    0.95
   7  17  -7   18.46    1.95
   7  17   7   20.53    1.73
  -7  17  -7   21.58    1.75
   8  17  -7    0.28    1.05
   8  17   7    2.82    0.99
  -8  17  -7   -0.36    0.83
   9  17  -7    1.06    1.08
  -9  17  -7    1.98    0.95
   9  17   7    1.90    1.06
  10  17  -7   -0.15    1.10
 -10  17  -7   -0.26    0.85
   0  18  -7   -0.06    0.89
   0  18   7    0.53    0.90
   1  18  -7    9.68    1.36
  -1  18   7   10.41    1.39
   1  18   7   10.41    1.40
  -1  18  -7    8.94    1.34
   2  18  -7   10.04    1.40
   2  18   7    8.68    1.37
  -2  18  -7   11.35    1.42
   3  18  -7    8.74    1.39
   3  18   7    7.54    1.30
  -3  18  -7    7.03    1.24
   4  18  -7   -1.65    0.87
   4  18   7    0.65    0.90
  -4  18  -7   -0.38    0.83
   5  18  -7    4.13    1.20
  -5  18  -7    4.60    1.08
   5  18   7    4.93    1.16
   6  18  -7    5.61    1.32
  -6  18  -7    4.28    1.07
   6  18   7    4.78    1.13
   7  18  -7   -1.12    0.98
  -7  18  -7    1.49    0.92
   7  18   7    1.27    0.94
   8  18  -7    1.69    1.19
   8  18   7    0.15    0.95
  -8  18  -7    2.63    1.02
   9  18  -7    0.47    1.10
  -9  18  -7    1.97    0.99
   9  18   7   -0.19    0.95
  10  18  -7   -0.19    1.07
 -10  18  -7    1.37    0.98
   0  19  -7    1.09    0.97
   0  19   7    2.09    1.01
  -1  19   7    8.70    1.34
   1  19  -7    8.88    1.36
  -1  19  -7    9.61    1.40
   1  19   7    9.51    1.40
   2  19  -7    4.96    1.22
  -2  19   7    6.45    1.19
  -2  19  -7    6.11    1.23
   2  19   7    5.14    1.18
   3  19  -7    0.81    1.01
   3  19   7    1.13    1.01
  -3  19  -7    0.96    0.95
   4  19  -7    3.99    1.19
  -4  19  -7    5.77    1.21
   4  19   7    6.76    1.28
   5  19  -7    9.87    1.51
   5  19   7    8.27    1.39
  -5  19  -7    6.53    1.29
   6  19  -7    3.91    1.24
   6  19   7    2.98    1.15
  -6  19  -7    1.60    1.03
   7  19  -7   -0.59    1.05
   7  19   7   -0.89    0.82
  -7  19  -7   -0.01    0.85
   8  19  -7    3.59    1.34
  -8  19  -7    4.03    1.12
   8  19   7    4.66    1.17
   9  19  -7   -0.61    1.07
   9  19   7   -0.23    1.00
  -9  19  -7   -0.91    0.88
   0  20   7   18.82    1.93
   0  20  -7   20.42    1.85
   1  20  -7   -0.18    0.94
  -1  20   7   -1.32    0.82
  -1  20  -7    1.43    1.00
   1  20   7   -0.26    0.93
  -2  20   7    4.75    1.15
   2  20  -7    4.33    1.18
   2  20   7    4.66    1.17
  -2  20  -7    4.70    1.21
  -3  20   7    2.18    0.95
   3  20  -7    0.79    1.10
   3  20   7    0.48    1.05
  -3  20  -7    0.66    0.97
   4  20  -7    5.86    1.31
  -4  20  -7    6.12    1.25
   4  20   7    6.94    1.29
   5  20  -7   -1.29    0.99
   5  20   7    0.94    1.05
  -5  20  -7    0.87    0.96
   6  20  -7    1.30    1.16
  -6  20  -7    0.22    0.90
   6  20   7   -0.42    0.93
   7  20  -7    0.83    1.20
   7  20   7    0.81    1.07
  -7  20  -7    1.81    1.05
   8  20  -7    0.71    1.24
  -8  20  -7    1.96    1.01
   8  20   7   -0.28    1.02
   9  20  -7   -0.34    1.23
  -9  20  -7    0.91    1.02
   0  21   7    0.02    0.94
   0  21  -7    0.41    0.97
   1  21  -7    3.10    1.11
  -1  21   7    3.57    1.16
  -1  21  -7    2.03    1.06
   1  21   7    2.31    1.08
  -2  21   7   -0.22    0.91
   2  21  -7    1.14    1.07
  -2  21  -7    1.66    1.09
   2  21   7    3.07    1.09
  -3  21   7    0.67    0.97
   3  21  -7    1.78    1.14
  -3  21  -7    0.73    0.98
   3  21   7   -1.54    0.98
   4  21  -7    2.96    1.19
   4  21   7    2.64    1.11
  -4  21  -7    1.65    1.09
   5  21  -7    1.91    1.15
  -5  21  -7    1.34    1.03
   5  21   7    0.68    1.12
   6  21  -7    5.70    1.37
  -6  21  -7    3.37    1.19
   6  21   7    1.63    1.09
   7  21  -7   -1.33    1.09
  -7  21  -7   -1.61    0.93
   7  21   7    0.92    1.07
   8  21  -7   -0.27    1.14
  -8  21  -7   -0.68    1.00
   8  21   7    1.17    1.13
   0  22   7    0.35    1.02
   0  22  -7    3.28    1.22
   1  22  -7    0.88    1.04
  -1  22   7    2.99    1.18
  -1  22  -7    2.63    1.16
   1  22   7    2.56    1.09
   2  22  -7    1.69    1.07
  -2  22   7    1.62    1.08
   2  22   7    0.45    1.06
  -2  22  -7    1.87    1.16
   3  22  -7    2.20    1.17
  -3  22   7    0.87    1.06
  -3  22  -7    0.16    1.00
   3  22   7    0.56    1.11
  -4  22   7   -0.07    0.96
   4  22  -7    1.57    1.10
   4  22   7    1.56    1.16
  -4  22  -7    1.29    1.08
  -5  22   7    1.43    1.10
   5  22  -7    3.08    1.30
  -5  22  -7    2.55    1.17
   5  22   7    1.31    1.12
   6  22  -7    1.76    1.25
  -6  22  -7   -0.68    1.00
   6  22   7   -0.07    1.13
   7  22  -7    1.52    1.25
  -7  22  -7    0.54    1.01
   7  22   7    1.91    1.17
   0  23  -7    1.98    1.14
   0  23   7   -0.17    1.02
  -1  23   7    0.17    1.02
   1  23  -7    0.29    1.10
   1  23   7    0.28    1.05
  -1  23  -7    0.97    1.11
   2  23  -7    0.29    1.16
  -2  23   7    1.54    1.11
  -2  23  -7    0.66    1.01
   2  23   7    1.33    1.12
   3  23  -7   -0.93    1.13
  -3  23   7   -0.03    0.99
   3  23   7    0.80    1.12
  -3  23  -7    0.31    1.10
   4  23  -7    1.58    1.24
  -4  23   7    1.76    1.15
  -4  23  -7    1.51    1.15
   4  23   7    0.32    1.14
  -5  23   7    2.80    1.20
   5  23  -7    3.12    1.37
   5  23   7    0.96    1.22
  -5  23  -7    2.08    1.15
  -6  23   7   -0.21    1.09
   6  23  -7   -0.70    1.23
  -6  23  -7    0.62    1.12
   6  23   7   -1.08    1.02
   0  24   7   -0.80    1.07
   0  24  -7   -0.66    1.05
   1  24  -7    1.77    1.19
  -1  24   7    2.48    1.23
  -1  24  -7    0.97    1.15
   1  24   7    1.57    1.18
   2  24  -7    0.41    1.19
  -2  24   7   -1.45    1.05
  -2  24  -7   -1.46    1.01
   2  24   7    0.63    1.17
   3  24  -7    1.07    1.26
  -3  24   7    2.07    1.20
   3  24   7    2.10    1.23
  -3  24  -7    3.07    1.24
   4  24  -7    1.42    1.26
  -4  24   7    1.63    1.16
   4  24   7    0.38    1.14
  -4  24  -7    0.98    1.16
   0  25   7    3.16    1.33
   0  25  -7    0.56    1.19
   1  25  -7    3.73    1.34
  -1  25   7    0.67    1.17
  -1  25  -7    1.91    1.34
   1  25   7    0.79    1.27
   0   0  -8    9.01    0.57
  -1   0  -8    0.18    0.23
   1   0  -8    0.74    0.32
   3   0  -8  337.02   14.30
   4   0  -8    3.59    0.54
   5   0  -8   30.41    1.67
   6   0  -8   30.62    1.71
   7   0  -8  158.58    7.05
   8   0  -8    8.83    1.00
   9   0  -8   32.47    1.96
  10   0  -8   -0.17    0.66
  11   0  -8   17.00    1.51
  12   0  -8   -1.78    0.72
  13   0  -8   -0.38    0.83
  14   0  -8    1.18    0.91
   0   1  -8    3.94    0.39
   0  -1  -8    3.46    0.35
  -1  -1  -8  133.22    5.48
   1   1  -8  132.24    5.57
   1  -1  -8  128.07    5.55
  -1   1  -8  123.06    5.49
   3   1  -8  328.60   14.25
   3  -1  -8  343.75   14.26
   4   1  -8    2.13    0.47
   4  -1  -8    2.35    0.50
   5   1  -8  212.68    9.25
   5  -1  -8  214.88    9.24
   6   1  -8   76.97    3.53
   6  -1  -8   73.00    3.50
   7   1  -8   23.60    1.50
   7  -1  -8   23.30    1.48
   8   1  -8    0.05    0.63
   8  -1  -8    0.24    0.64
   9   1  -8    5.04    0.89
   9  -1  -8    4.37    0.85
  10   1  -8    2.42    0.83
  10  -1  -8    2.29    0.81
  11   1  -8    4.11    1.00
  11  -1  -8    3.18    0.92
  12   1  -8    2.63    0.95
  12  -1  -8    1.50    0.89
  13   1  -8    3.79    1.06
  13  -1  -8    4.34    1.08
  14   1  -8    0.44    0.88
  14  -1  -8   -0.09    0.82
   0  -2  -8    4.19    0.41
   0   2  -8    3.92    0.45
   1   2  -8  111.62    4.55
   1  -2  -8   99.80    4.51
  -1   2  -8  101.17    4.47
   3   2  -8   16.70    1.09
  -3   2  -8   19.04    0.89
   3   2   8   18.54    0.84
   3  -2  -8   16.70    1.02
   4   2  -8  153.23    6.61
   4  -2  -8  149.28    6.59
  -4   2  -8  151.26    6.40
   5   2  -8  129.72    5.87
   5  -2  -8  135.75    5.88
   6   2  -8   68.06    3.21
   6  -2  -8   65.84    3.20
   7   2  -8   11.83    1.09
   7   2   8   13.67    0.73
   7  -2  -8   12.06    1.07
   8   2  -8   51.42    2.67
   8  -2  -8   52.12    2.70
   8   2   8   51.89    2.33
   9   2  -8   10.34    1.14
   9  -2  -8   11.31    1.17
  10   2  -8   12.75    1.34
  10  -2  -8   13.75    1.33
  11   2  -8    6.39    1.12
  11  -2  -8    5.65    1.08
  12   2  -8   12.17    1.41
  12  -2  -8   14.03    1.46
  13   2  -8    0.51    0.89
  13  -2  -8    0.43    0.86
  14   2  -8    3.09    1.07
   0   3  -8  591.19   24.85
   1   3  -8    8.97    0.69
  -1   3  -8    6.72    0.60
   1  -3  -8    7.64    0.58
   3   3  -8    8.77    0.74
   3  -3  -8    7.53    0.67
  -3   3  -8    7.41    0.54
   3   3   8    6.48    0.48
   4   3  -8  310.03   13.20
  -4   3  -8  308.61   13.02
   4   3   8  313.54   12.99
   4  -3  -8  304.37   13.19
   5   3  -8    2.70    0.61
   5   3   8    3.39    0.35
   5  -3  -8    2.29    0.50
   6   3  -8   15.64    1.16
   6   3   8   15.92    0.83
   6  -3  -8   15.69    1.13
   7   3  -8    8.90    0.98
   7  -3  -8   10.26    1.00
   7   3   8    9.38    0.65
   8   3  -8    0.25    0.69
   8   3   8    0.67    0.37
   8  -3  -8    0.00    0.62
   9   3  -8    1.77    0.73
   9  -3  -8    1.44    0.72
  10   3  -8   10.29    1.19
  10  -3  -8   10.22    1.21
  11   3  -8    2.34    0.94
  11  -3  -8    2.95    0.90
  12   3  -8    6.05    1.14
  12  -3  -8    6.22    1.11
  13   3  -8   -0.50    0.85
  14   3  -8    5.08    1.18
   0   4  -8    1.58    0.41
   1   4  -8   19.94    1.11
  -1   4  -8   17.60    1.05
   3   4  -8   18.73    1.12
  -3   4  -8   16.05    0.94
   3   4   8   17.05    0.92
   3  -4  -8   17.74    1.04
   4   4  -8  118.22    5.00
   4   4   8  110.05    4.79
   4  -4  -8  107.10    4.93
  -4   4  -8  109.62    4.81
   5   4  -8    8.55    0.87
   5  -4  -8    8.41    0.84
   5   4   8    8.43    0.61
   6   4  -8  110.46    5.10
   6  -4  -8  111.62    5.08
   6   4   8  114.24    4.85
   7   4  -8    8.38    1.00
   7   4   8    9.68    0.70
   7  -4  -8   10.44    1.00
   8   4  -8   28.92    1.80
   8   4   8   30.25    1.48
   8  -4  -8   28.52    1.81
   9   4  -8    3.24    0.86
   9  -4  -8    4.11    0.84
  10   4  -8   21.63    1.56
  10  -4  -8   20.53    1.56
  11   4  -8    3.18    0.96
  12   4  -8    1.44    0.93
  13   4  -8    2.72    0.99
  14   4  -8    0.12    0.92
   0   5  -8  229.06    9.79
  -1   5  -8  123.62    5.39
   3   5  -8   24.52    1.37
  -3   5  -8   23.90    1.27
   3   5   8   23.65    1.23
   4   5  -8   71.64    3.23
   4   5   8   65.52    3.02
  -4   5  -8   66.99    3.05
   5   5  -8   24.18    1.46
   5   5   8   23.80    1.22
  -5   5  -8   21.51    1.23
   5  -5  -8   23.42    1.40
   6   5  -8   12.49    1.11
   6   5   8   10.70    0.81
   6  -5  -8   10.58    1.02
   7   5  -8    1.09    0.70
   7  -5  -8    2.16    0.66
   7   5   8    1.04    0.45
   8   5  -8    9.53    1.13
   8  -5  -8   12.35    1.16
   8   5   8   10.54    0.80
   9   5  -8    1.89    0.81
  10   5  -8    2.91    0.88
  11   5  -8    3.24    0.92
  12   5  -8    6.16    1.14
  13   5  -8    1.67    0.95
   0   6  -8    1.62    0.33
   3   6  -8   55.38    2.82
  -3   6  -8   58.57    2.72
   3   6   8   61.04    2.70
   4   6  -8   41.64    2.07
  -4   6  -8   36.83    1.89
   4   6   8   37.59    1.88
   5   6  -8  103.84    4.76
  -5   6  -8  105.66    4.59
   5   6   8  101.99    4.58
   6   6  -8    9.42    1.06
   6   6   8    9.65    0.83
   7   6  -8   36.36    2.09
   7   6   8   36.12    1.83
   8   6  -8    9.62    1.12
   8   6   8    9.08    0.82
   9   6  -8   11.85    1.25
   9   6   8   11.90    0.93
  10   6  -8    2.01    0.90
  11   6  -8   10.90    1.36
  12   6  -8    0.79    0.87
  13   6  -8    4.48    1.11
   0   7  -8   12.14    0.92
   1   7  -8  282.50   12.11
   2   7  -8   -0.02    0.08
  -2   7  -8    0.16    0.20
   3   7  -8  179.46    7.83
   3   7   8  177.43    7.71
   4   7  -8    4.95    0.78
   4   7   8    6.90    0.69
   5   7  -8   11.64    1.10
   5   7   8    9.95    0.84
   6   7  -8    7.45    0.96
   6   7   8    6.76    0.76
   7   7  -8    3.75    0.87
   7   7   8    4.81    0.74
   8   7  -8    9.82    1.19
   8   7   8    9.28    0.90
   9   7  -8    1.55    0.83
   9   7   8    1.28    0.57
  10   7  -8    2.57    0.94
  11   7  -8   -0.30    0.79
  12   7  -8    0.99    0.88
  13   7  -8    2.16    1.07
   0   8  -8    4.54    0.69
   1   8  -8    1.29    0.56
  -1   8  -8    1.38    0.52
   3   8  -8  110.78    5.02
   3   8   8  106.08    4.89
  -3   8  -8  112.45    4.93
   4   8  -8   15.88    1.25
  -4   8  -8   16.79    1.07
   4   8   8   15.14    1.10
   5   8  -8   11.41    1.16
   5   8   8   11.20    0.97
  -5   8  -8   11.66    0.92
   6   8  -8   14.19    1.26
  -6   8  -8   13.05    0.99
   6   8   8   12.43    1.02
   7   8  -8   19.14    1.49
   7   8   8   18.91    1.31
   8   8  -8    8.99    1.23
   8   8   8    9.95    0.98
   9   8  -8    5.07    1.04
   9   8   8    6.42    0.84
  10   8  -8    1.65    0.92
  11   8  -8    1.45    0.93
  12   8  -8    1.54    0.98
  13   8  -8    0.26    0.97
   0   9  -8   10.47    0.98
   1   9  -8   23.66    1.48
  -1   9  -8   23.15    1.42
   3   9  -8   46.25    2.29
   3   9   8   39.79    2.13
  -3   9  -8   39.31    2.12
   4   9  -8    6.23    0.93
   4   9   8    6.70    0.79
  -4   9  -8    7.09    0.80
   5   9  -8   14.71    1.28
  -5   9  -8   12.41    1.05
   5   9   8   14.04    1.09
   6   9  -8   10.38    1.19
  -6   9  -8   10.77    0.96
   6   9   8   10.36    1.00
   7   9  -8    5.96    1.03
   7   9   8    5.90    0.90
   8   9  -8    1.61    0.84
   8   9   8    0.42    0.71
   9   9  -8    4.50    1.04
   9   9   8    6.79    0.89
  10   9  -8    0.86    0.91
  11   9  -8    0.92    0.93
  12   9  -8    3.00    1.04
  13   9  -8    0.86    1.02
   0  10  -8   65.18    3.18
   1  10  -8   25.61    1.65
  -1  10  -8   28.13    1.64
  -2  10  -8   10.94    1.02
   2  10   8   12.82    1.00
   3  10  -8    2.80    0.77
   3  10   8    2.49    0.63
  -3  10  -8    1.34    0.59
   4  10  -8   15.75    1.31
  -4  10  -8   13.06    1.13
   4  10   8   14.85    1.15
   5  10  -8    4.35    0.94
  -5  10  -8    5.29    0.78
   5  10   8    3.27    0.73
   6  10  -8   12.86    1.35
  -6  10  -8   12.03    1.07
   6  10   8   12.07    1.11
   7  10  -8    2.73    0.96
  -7  10  -8    3.76    0.72
   7  10   8    1.29    0.75
   8  10  -8    9.60    1.24
   8  10   8    8.49    1.02
   9  10  -8    0.43    0.94
   9  10   8    0.62    0.73
  10  10  -8    4.27    1.12
  11  10  -8    1.83    1.02
  12  10  -8   -0.43    0.92
  13  10  -8    0.75    1.01
   0  11  -8   23.61    1.54
   1  11  -8   21.86    1.48
  -1  11  -8   21.32    1.46
   2  11   8    2.83    0.69
  -2  11  -8    2.30    0.70
   3  11  -8   25.31    1.68
   3  11   8   26.84    1.61
  -3  11  -8   22.42    1.55
   4  11  -8   23.76    1.69
  -4  11  -8   23.78    1.54
   4  11   8   24.20    1.56
   5  11  -8    7.58    1.13
   5  11   8    9.02    1.02
  -5  11  -8    9.28    1.02
   6  11  -8    5.34    1.06
   6  11   8    3.54    0.83
  -6  11  -8    4.62    0.83
   7  11  -8    8.61    1.24
   7  11   8    8.64    1.08
  -7  11  -8    8.30    0.99
   8  11  -8    3.83    1.08
  -8  11  -8    4.26    0.80
   8  11   8    2.98    0.87
   9  11  -8    3.81    1.04
   9  11   8    2.53    0.88
  10  11  -8    0.77    0.90
  11  11  -8    0.33    0.97
  12  11  -8   -0.20    0.96
  13  11  -8   -0.17    0.96
   0  12  -8   14.98    1.29
   1  12  -8    3.03    0.84
  -1  12  -8    2.76    0.80
  -2  12  -8   39.41    2.24
   2  12   8   38.40    2.17
   3  12  -8   10.45    1.17
  -3  12  -8   11.00    1.14
   3  12   8   10.10    1.11
   4  12  -8    8.19    1.15
   4  12   8    9.03    1.02
  -4  12  -8    5.96    0.96
   5  12  -8    2.21    0.93
  -5  12  -8    4.49    0.86
   5  12   8    2.55    0.80
   6  12  -8   11.42    1.32
   6  12   8    8.09    1.08
  -6  12  -8    6.78    0.98
   7  12  -8    2.21    0.99
   7  12   8    2.41    0.81
  -7  12  -8    3.68    0.82
   8  12  -8    4.68    1.07
  -8  12  -8    4.68    0.86
   8  12   8    3.46    0.92
   9  12  -8    3.34    1.11
   9  12   8    3.97    0.97
  -9  12  -8    6.15    0.95
  10  12  -8   -0.79    0.87
 -10  12  -8    0.63    0.75
  11  12  -8    0.57    0.99
  12  12  -8    0.34    0.98
  13  12  -8    0.14    1.02
   0  13  -8   -0.83    0.66
   1  13  -8    7.16    0.97
  -1  13  -8    7.20    1.05
  -2  13  -8    6.07    0.97
   2  13   8    5.43    0.92
   3  13  -8    0.01    0.43
  -3  13  -8    2.05    0.78
   3  13   8    1.40    0.74
   4  13  -8    0.03    0.82
   4  13   8    0.70    0.77
  -4  13  -8    0.77    0.73
   5  13  -8    2.47    0.97
   5  13   8    3.79    0.88
  -5  13  -8    3.32    0.82
   6  13  -8    3.28    1.01
   6  13   8    1.47    0.83
  -6  13  -8    1.70    0.79
   7  13  -8    5.49    1.17
  -7  13  -8    4.81    0.94
   7  13   8    5.62    0.99
   8  13  -8    2.88    1.01
  -8  13  -8    4.54    0.89
   8  13   8    2.33    0.93
   9  13  -8   -1.20    0.93
  -9  13  -8    1.21    0.73
   9  13   8    0.50    0.83
  10  13  -8   -0.26    1.01
 -10  13  -8    0.84    0.80
  11  13  -8   -0.23    0.99
  12  13  -8    0.88    1.09
   0  14  -8    6.47    1.03
   1  14   8    3.71    0.89
  -1  14  -8    2.24    0.86
  -2  14  -8    7.04    1.08
   2  14   8    6.78    1.08
   3  14  -8    1.84    0.80
   3  14   8    2.89    0.84
  -3  14  -8    2.45    0.87
   4  14  -8    5.16    1.08
  -4  14  -8    3.85    0.93
   4  14   8    3.79    0.96
   5  14  -8    1.83    0.97
  -5  14  -8    2.54    0.84
   5  14   8    2.86    0.89
   6  14  -8   10.33    1.37
   6  14   8    8.59    1.16
  -6  14  -8    8.95    1.16
   7  14  -8    0.73    0.96
   7  14   8    3.16    0.91
  -7  14  -8    2.94    0.88
   8  14  -8    0.09    1.05
  -8  14  -8    0.53    0.78
   8  14   8    0.49    0.81
   9  14  -8    1.62    1.12
  -9  14  -8    1.88    0.82
   9  14   8    0.36    0.89
  10  14  -8    0.90    1.04
 -10  14  -8    1.84    0.85
  11  14  -8    0.95    1.11
  12  14  -8    1.37    1.12
   0  15  -8    0.29    0.80
   1  15  -8    0.05    0.79
   1  15   8   -0.79    0.69
  -1  15  -8   -0.73    0.72
   2  15  -8    0.04    0.69
   2  15   8    0.90    0.81
  -2  15  -8    0.05    0.82
   3  15  -8    0.88    0.91
   3  15   8    0.17    0.79
  -3  15  -8   -0.04    0.79
   4  15  -8    4.39    1.12
  -4  15  -8    4.82    0.98
   4  15   8    3.84    0.99
   5  15  -8    4.85    1.17
   5  15   8    6.70    1.08
  -5  15  -8    7.31    1.11
   6  15  -8    0.29    0.94
  -6  15  -8    1.25    0.86
   6  15   8    1.18    0.88
   7  15  -8   -0.33    0.96
   7  15   8    0.67    0.83
  -7  15  -8    1.98    0.87
   8  15  -8    2.23    1.07
  -8  15  -8    1.79    0.86
   8  15   8    1.00    0.94
   9  15  -8    1.46    1.04
   9  15   8    1.68    0.99
  -9  15  -8    0.29    0.80
  10  15  -8    0.91    1.13
 -10  15  -8    0.70    0.83
  11  15  -8   -0.62    1.03
   0  16   8    1.19    0.86
   0  16  -8    1.57    0.90
   1  16  -8    2.11    0.96
   1  16   8    0.86    0.83
  -1  16  -8    1.11    0.86
   2  16  -8    1.92    0.98
   2  16   8    2.90    0.95
  -2  16  -8    3.51    0.99
   3  16  -8    2.39    0.93
   3  16   8    4.02    1.00
  -3  16  -8    3.34    1.00
   4  16  -8    1.95    0.99
   4  16   8    3.50    1.00
  -4  16  -8    3.15    0.99
   5  16  -8    1.71    1.02
  -5  16  -8    0.44    0.81
   5  16   8   -0.13    0.87
   6  16  -8    3.66    1.12
   6  16   8    2.31    0.97
  -6  16  -8    4.42    1.02
   7  16  -8    2.75    1.13
   7  16   8    2.55    0.97
  -7  16  -8    2.83    0.96
   8  16  -8   -0.55    0.99
  -8  16  -8   -0.81    0.76
   8  16   8    0.48    0.88
   9  16  -8    0.63    1.12
  -9  16  -8    1.25    0.89
   9  16   8   -0.46    0.90
  10  16  -8    0.94    1.12
 -10  16  -8    0.69    0.89
  11  16  -8    1.69    1.14
   0  17   8   -1.11    0.79
   0  17  -8   -0.31    0.83
   1  17  -8    1.35    0.91
  -1  17  -8   -0.59    0.82
   1  17   8    0.46    0.87
   2  17  -8    0.72    0.83
   2  17   8   -0.62    0.88
  -2  17  -8   -0.30    0.80
   3  17  -8   -0.93    0.88
  -3  17  -8    3.03    0.94
   3  17   8    1.64    0.92
   4  17  -8    2.24    1.01
   4  17   8    1.33    0.98
  -4  17  -8    1.59    0.95
   5  17  -8    1.45    1.03
  -5  17  -8    3.03    1.00
   5  17   8    2.32    0.99
   6  17  -8    3.03    1.15
   6  17   8    1.29    0.97
  -6  17  -8    4.07    1.00
   7  17  -8    3.60    1.16
   7  17   8    1.85    0.98
  -7  17  -8    3.79    1.05
   8  17  -8    1.88    1.15
  -8  17  -8    2.25    0.97
   8  17   8    2.30    1.02
   9  17  -8    0.38    1.16
  -9  17  -8    1.57    0.95
  10  17  -8    1.09    1.11
 -10  17  -8    1.31    0.95
   0  18   8    3.86    1.08
   0  18  -8    4.80    1.13
  -1  18   8    1.16    0.92
   1  18  -8    1.83    0.96
  -1  18  -8    1.72    0.95
   1  18   8    1.29    0.93
   2  18  -8    2.69    1.03
   2  18   8    1.16    0.94
  -2  18  -8    2.05    1.00
   3  18  -8    0.52    0.97
   3  18   8   -0.69    0.80
  -3  18  -8    2.05    0.96
   4  18  -8    1.53    1.01
  -4  18  -8    3.24    1.03
   4  18   8   -0.25    0.89
   5  18  -8    4.66    1.26
   5  18   8    4.95    1.18
  -5  18  -8    5.69    1.16
   6  18  -8    3.28    1.18
   6  18   8    1.15    0.93
  -6  18  -8    2.06    1.00
   7  18  -8   -0.71    1.02
   7  18   8    1.11    0.95
  -7  18  -8    1.39    0.87
   8  18  -8    1.18    1.18
   8  18   8    1.51    1.01
  -8  18  -8    1.16    0.91
   9  18  -8    1.97    1.18
  -9  18  -8    1.94    1.00
  10  18  -8    0.75    1.26
 -10  18  -8    2.42    1.05
   0  19  -8   -0.30    0.91
   0  19   8   -0.25    0.86
   1  19  -8    3.08    1.10
  -1  19   8    5.15    1.15
  -1  19  -8    5.48    1.19
   1  19   8    4.77    1.17
   2  19  -8    4.94    1.22
   2  19   8    5.37    1.19
  -2  19  -8    7.30    1.28
   3  19  -8    5.42    1.26
  -3  19  -8    6.57    1.22
   3  19   8    4.52    1.15
   4  19  -8   -0.29    0.98
  -4  19  -8    0.59    0.95
   4  19   8   -0.23    0.97
   5  19  -8    3.72    1.29
  -5  19  -8    4.13    1.10
   5  19   8    2.90    1.11
   6  19  -8    4.07    1.26
   6  19   8    3.31    1.09
  -6  19  -8    3.47    1.08
   7  19  -8    2.91    1.16
   7  19   8    0.75    0.99
  -7  19  -8    1.05    0.97
   8  19  -8    0.30    1.12
   8  19   8   -2.48    0.84
  -8  19  -8    1.94    1.01
   9  19  -8   -0.39    1.13
  -9  19  -8    2.12    1.02
   0  20  -8    3.47    1.14
   0  20   8   -0.21    0.94
   1  20  -8    0.75    0.97
  -1  20   8    0.21    0.94
  -1  20  -8   -0.28    0.95
   1  20   8   -1.08    0.86
   2  20  -8    1.03    1.04
  -2  20   8    1.04    0.98
  -2  20  -8    1.93    1.05
   2  20   8    0.36    0.96
   3  20  -8    2.22    1.18
   3  20   8    2.06    1.11
  -3  20  -8    4.48    1.20
   4  20  -8    2.38    1.13
   4  20   8    0.80    0.98
  -4  20  -8    2.05    1.08
   5  20  -8    2.17    1.15
   5  20   8    1.53    1.08
  -5  20  -8    2.49    1.04
   6  20  -8    0.11    1.07
   6  20   8    0.77    1.01
  -6  20  -8   -0.62    0.84
   7  20  -8    2.06    1.20
  -7  20  -8    3.63    1.14
   7  20   8    3.95    1.18
   8  20  -8    1.91    1.22
  -8  20  -8    1.26    1.01
   8  20   8    1.05    1.05
   0  21  -8    0.25    0.98
   0  21   8   -0.08    0.98
  -1  21   8    5.69    1.28
   1  21  -8    7.13    1.36
  -1  21  -8    5.27    1.29
   1  21   8    4.39    1.17
  -2  21   8    3.30    1.08
   2  21  -8    1.12    1.07
   2  21   8    1.43    1.05
  -2  21  -8    1.91    1.06
  -3  21   8    3.24    1.09
   3  21  -8    4.59    1.29
   3  21   8    5.04    1.28
  -3  21  -8    2.51    1.09
   4  21  -8    1.94    1.14
  -4  21  -8    1.18    1.07
   4  21   8    0.18    0.95
   5  21  -8    2.94    1.27
  -5  21  -8    3.79    1.15
   5  21   8    2.85    1.13
   6  21  -8    1.79    1.20
   6  21   8    1.15    1.09
  -6  21  -8    1.04    1.05
   7  21  -8    0.41    1.19
   7  21   8    0.56    1.06
  -7  21  -8    2.94    1.15
   8  21  -8   -0.86    1.21
  -8  21  -8    0.96    1.02
   8  21   8    2.60    1.15
   0  22  -8    0.22    1.06
   0  22   8   -0.21    0.96
  -1  22   8    1.78    1.08
   1  22  -8    1.01    1.03
  -1  22  -8    1.81    1.09
   1  22   8    2.70    1.13
  -2  22   8    2.80    1.12
   2  22  -8    3.76    1.25
   2  22   8    3.11    1.17
  -2  22  -8    4.67    1.24
   3  22  -8    0.61    1.11
  -3  22   8   -0.66    0.95
   3  22   8   -0.13    0.98
  -3  22  -8    0.90    1.06
   4  22  -8    3.05    1.24
  -4  22   8    5.68    1.30
  -4  22  -8    5.72    1.31
   4  22   8    4.69    1.26
   5  22  -8    1.96    1.23
   5  22   8    0.49    1.04
  -5  22  -8    1.95    1.16
   6  22  -8    3.95    1.37
  -6  22  -8    3.33    1.23
   6  22   8    2.56    1.23
   7  22  -8    1.50    1.31
  -7  22  -8    0.01    1.01
   7  22   8   -2.32    0.98
   0  23   8    8.39    1.48
   0  23  -8    6.68    1.43
   1  23  -8    0.73    1.09
  -1  23   8    0.70    1.10
  -1  23  -8    2.25    1.22
   1  23   8    1.09    1.14
   2  23  -8    5.58    1.43
  -2  23   8    3.78    1.24
  -2  23  -8    6.18    1.38
   2  23   8    3.96    1.28
  -3  23   8    1.86    1.22
   3  23  -8    1.89    1.19
  -3  23  -8    0.25    1.05
   3  23   8    2.73    1.21
   4  23  -8    3.31    1.27
  -4  23   8    3.45    1.23
  -4  23  -8    3.85    1.30
   4  23   8    1.19    1.20
  -5  23   8    1.10    1.10
   5  23  -8    0.15    1.17
   5  23   8   -0.86    1.14
  -5  23  -8    1.01    1.10
   0  24  -8    0.67    1.13
   0  24   8    0.40    1.10
   1  24  -8    1.35    1.21
  -1  24   8    0.43    1.12
  -1  24  -8    0.84    1.16
   1  24   8    0.65    1.14
  -2  24   8    2.17    1.27
   2  24  -8   -0.46    1.15
  -2  24  -8    1.78    1.25
   2  24   8    2.03    1.25
  -3  24   8    0.80    1.15
   3  24  -8    1.89    1.29
  -3  24  -8    0.99    1.13
   3  24   8    2.24    1.22
   4  24  -8    3.93    1.41
  -4  24   8    2.96    1.27
  -4  24  -8    4.13    1.36
   4  24   8    2.49    1.31
   0  25   8    3.27    1.31
   0  25  -8    3.39    1.34
   1  25  -8    3.75    1.42
  -1  25   8    2.93    1.32
   1  25   8    2.37    1.30
  -1  25  -8    3.31    1.33
   0   0  -9    0.01    0.25
   1   0  -9   25.90    1.30
  -1   0  -9   26.26    1.22
  -2   0  -9   12.27    0.62
   3   0  -9    0.27    0.31
   4   0  -9   12.34    0.91
   5   0  -9   54.98    2.67
   6   0  -9    4.04    0.70
   8   0  -9    6.09    0.93
   9   0  -9   18.25    1.40
  10   0  -9    4.65    0.92
  11   0  -9   -0.01    0.78
  12   0  -9    0.92    0.90
  13   0  -9    0.73    0.87
  14   0  -9    3.07    1.05
   0  -1  -9   19.80    1.05
   0   1  -9   21.97    1.08
  -1  -1  -9    3.32    0.35
   1   1  -9    3.27    0.42
  -1   1  -9    4.88    0.40
   1  -1  -9    3.97    0.44
  -2  -1  -9   23.88    1.08
  -2   1  -9   23.45    1.11
   3   1  -9    2.29    0.44
   3  -1  -9    0.97    0.30
   4   1  -9   17.99    1.10
   4  -1  -9   14.93    1.09
   5   1  -9   27.83    1.51
   5  -1  -9   23.85    1.48
   6   1  -9   14.02    1.11
   6  -1  -9   15.41    1.12
   7   1  -9    4.07    0.75
   7  -1  -9    2.97    0.69
   8   1  -9    8.30    1.01
   8  -1  -9    8.37    1.03
   9   1  -9    5.98    1.00
   9  -1  -9    6.97    1.00
  10   1  -9    2.36    0.82
  10  -1  -9    3.15    0.89
  11   1  -9    0.26    0.82
  11  -1  -9    2.34    0.91
  12   1  -9    1.39    0.92
  12  -1  -9   -0.28    0.78
  13   1  -9    0.99    0.88
  13  -1  -9    1.67    0.92
  14   1  -9    1.37    0.98
  14  -1  -9    2.51    0.99
   0  -2  -9  115.34    4.74
   0   2  -9  104.07    4.75
   1   2  -9   63.66    2.89
  -1  -2  -9   61.93    2.80
   1  -2  -9   64.65    2.87
  -1   2  -9   66.42    2.84
  -2   2  -9    1.91    0.31
   2  -2  -9   -0.07    0.17
   3   2  -9    4.64    0.58
  -3   2  -9    5.07    0.41
   4   2  -9   99.96    4.36
   4  -2  -9   97.65    4.35
  -4   2  -9   92.43    4.11
   5  -2  -9    1.14    0.47
   6   2  -9    1.78    0.59
   6  -2  -9    2.10    0.58
   7   2  -9    9.07    1.00
   7  -2  -9    9.05    0.96
   8   2  -9   10.07    1.09
   8  -2  -9   11.47    1.14
   9   2  -9    7.20    1.07
   9  -2  -9    8.39    1.04
  10   2  -9    2.78    0.83
  10  -2  -9    1.70    0.84
  11   2  -9    3.64    0.97
  11  -2  -9    3.70    0.97
  12   2  -9    2.26    0.95
  12  -2  -9    1.42    0.93
  13   2  -9   -0.38    0.88
  13  -2  -9    1.00    0.86
  14   2  -9   -0.54    0.90
   0   3  -9    2.02    0.44
   0  -3  -9    0.86    0.31
   1   3  -9   45.25    1.95
   1  -3  -9   35.41    1.86
  -1   3  -9   39.78    1.87
  -2   3  -9    2.83    0.40
   3   3  -9   60.34    2.89
  -3   3  -9   63.70    2.74
   4   3  -9   30.34    1.65
   4   3   9   30.01    1.37
   4  -3  -9   28.81    1.61
  -4   3  -9   29.55    1.41
   5   3  -9   40.84    2.08
   5  -3  -9   38.70    2.04
  -5   3  -9   37.80    1.81
   5   3   9   41.03    1.76
   6   3  -9    7.92    0.88
   6  -3  -9    6.76    0.83
   7   3  -9    0.34    0.62
   7  -3  -9    0.50    0.55
   7   3   9    0.40    0.26
   8   3  -9    5.40    0.90
   8   3   9    5.62    0.48
   8  -3  -9    5.48    0.86
   9   3  -9   17.66    1.44
   9  -3  -9   20.36    1.52
  10   3  -9    0.00    0.73
  10  -3  -9   -0.24    0.70
  11   3  -9    2.47    0.88
  11  -3  -9    2.77    0.91
  12   3  -9    6.16    1.16
  12  -3  -9    5.74    1.12
  13   3  -9    1.36    0.96
  14   3  -9   -0.62    0.89
   0   4  -9  130.49    5.67
   1   4  -9   17.02    1.05
  -1   4  -9   18.02    1.02
   3   4  -9   33.94    1.75
  -3   4  -9   32.44    1.58
   4   4  -9  115.60    5.00
   4   4   9  113.20    4.78
  -4   4  -9  108.77    4.80
   4  -4  -9  106.81    4.96
   5   4  -9   22.85    1.44
   5  -4  -9   23.90    1.43
  -5   4  -9   22.61    1.20
   5   4   9   23.43    1.16
   6   4  -9   25.40    1.53
   6   4   9   23.25    1.20
   6  -4  -9   25.04    1.52
   7   4  -9    9.13    1.00
   7   4   9    8.69    0.62
   7  -4  -9    7.58    0.94
   8   4  -9    9.32    1.08
   8  -4  -9   10.13    1.07
   8   4   9    8.84    0.67
   9   4  -9    2.53    0.87
   9  -4  -9    2.53    0.79
  10   4  -9   12.79    1.31
  10  -4  -9   11.60    1.28
  11   4  -9    2.00    0.89
  11  -4  -9    1.16    0.82
  12   4  -9    3.18    1.03
  13   4  -9    1.78    0.94
  14   4  -9    1.32    1.01
   0   5  -9    5.26    0.59
   3   5  -9   57.79    2.79
  -3   5  -9   58.68    2.69
   3   5   9   58.78    2.65
   4   5  -9   16.04    1.13
   4   5   9   15.66    0.91
  -4   5  -9   15.00    0.93
   4  -5  -9   13.29    1.04
   5   5  -9   15.72    1.20
   5  -5  -9   14.31    1.08
   5   5   9   16.61    0.95
  -5   5  -9   16.98    0.97
   6   5  -9   11.98    1.10
  -6   5  -9   11.90    0.84
   6   5   9   13.17    0.85
   6  -5  -9   11.10    1.04
   7   5  -9   16.00    1.32
   7   5   9   16.98    1.00
   7  -5  -9   17.67    1.29
   8   5  -9    5.72    0.93
   8   5   9    7.41    0.65
   8  -5  -9    5.32    0.88
   9   5  -9    3.78    0.93
   9  -5  -9    3.21    0.84
  10   5  -9    1.55    0.89
  11   5  -9    8.71    1.21
  12   5  -9    0.19    0.85
  13   5  -9    0.39    0.90
  14   5  -9    0.50    0.94
   0   6  -9    0.01    0.18
   1   6  -9    6.56    0.70
  -1   6  -9    5.90    0.61
  -2   6  -9  198.69    8.55
   3   6  -9   87.97    4.03
   3   6   9   85.42    3.86
  -3   6  -9   87.85    3.90
   4   6  -9    4.12    0.73
   4   6   9    5.79    0.59
  -4   6  -9    4.94    0.60
  -5   6  -9    1.39    0.44
   5   6   9    1.09    0.46
   6   6  -9   31.46    1.83
   6   6   9   30.39    1.58
  -6   6  -9   29.64    1.57
   7   6  -9   15.81    1.31
   7   6   9   15.38    1.03
   8   6  -9    7.71    1.05
   8   6   9    8.25    0.75
   9   6  -9    0.93    0.75
  10   6  -9    3.31    0.95
  11   6  -9    5.06    1.04
  12   6  -9    3.94    1.06
  13   6  -9    1.61    0.96
  14   6  -9    0.81    0.97
   0   7  -9    0.05    0.47
  -1   7  -9   61.33    2.88
   3   7  -9  134.89    6.04
   3   7   9  135.25    5.90
   4   7  -9   26.23    1.65
   4   7   9   27.86    1.46
   5   7  -9   17.86    1.28
   5   7   9   14.89    1.06
   6   7  -9    9.15    1.07
   6   7   9   10.82    0.89
   7   7  -9   27.57    1.81
   7   7   9   28.02    1.56
   8   7  -9   19.78    1.59
   8   7   9   22.27    1.34
   9   7  -9    3.25    0.95
  10   7  -9    4.84    1.02
  11   7  -9   -0.83    0.82
  12   7  -9    3.10    1.01
  13   7  -9    1.91    1.00
  14   7  -9   -1.89    0.86
   0   8  -9   81.02    3.76
   1   8  -9   32.50    1.75
  -1   8  -9   30.21    1.70
   2   8  -9    4.81    0.64
  -2   8  -9    6.78    0.73
   3   8  -9   11.83    1.11
  -3   8  -9   12.87    1.00
   3   8   9   12.39    0.95
   4   8  -9   58.87    2.93
   4   8   9   57.13    2.76
  -4   8  -9   58.76    2.78
   5   8  -9   32.41    1.94
  -5   8  -9   34.19    1.75
   5   8   9   30.31    1.72
   6   8  -9    3.21    0.84
   6   8   9    3.64    0.67
  -6   8  -9    2.97    0.60
   7   8  -9   12.02    1.24
  -7   8  -9    9.07    0.91
   7   8   9   10.02    0.98
   8   8  -9   14.22    1.44
   8   8   9   13.94    1.10
   9   8  -9   16.50    1.48
  10   8  -9    2.63    0.98
  11   8  -9   -0.30    0.81
  12   8  -9   -0.72    0.86
  13   8  -9    3.99    1.15
   0   9  -9   28.29    1.61
   1   9  -9   53.73    2.73
  -1   9  -9   55.65    2.70
   2   9  -9    8.03    0.82
   3   9  -9   16.08    1.23
   3   9   9   12.17    1.02
  -3   9  -9   14.09    1.09
   4   9  -9   29.83    1.83
   4   9   9   29.25    1.65
  -4   9  -9   29.56    1.67
   5   9  -9   40.94    2.30
   5   9   9   40.15    2.10
  -5   9  -9   39.60    2.10
   6   9  -9   10.31    1.21
   6   9   9    9.26    0.96
  -6   9  -9   10.20    0.92
   7   9  -9    2.37    0.90
   7   9   9    2.89    0.76
  -7   9  -9    3.41    0.70
   8   9  -9    0.34    0.84
   8   9   9    0.41    0.68
  -8   9  -9    0.53    0.56
   9   9  -9   16.49    1.62
  10   9  -9    7.83    1.25
  11   9  -9    0.05    0.86
  12   9  -9    0.23    0.90
  13   9  -9    0.63    1.00
   0  10  -9   -0.19    0.55
   1  10  -9   92.94    4.32
  -1  10  -9   91.06    4.28
   3  10  -9   31.04    1.89
   3  10   9   32.02    1.79
  -3  10  -9   31.35    1.81
   4  10  -9   11.09    1.22
   4  10   9   11.80    1.04
  -4  10  -9   12.82    1.08
   5  10  -9   20.28    1.55
  -5  10  -9   20.53    1.36
   5  10   9   19.01    1.33
   6  10  -9   34.69    2.08
   6  10   9   28.80    1.84
  -6  10  -9   32.08    1.81
   7  10  -9   -0.50    0.84
  -7  10  -9    0.69    0.63
   7  10   9    0.30    0.67
   8  10  -9    4.46    1.06
   8  10   9    4.80    0.87
  -8  10  -9    3.32    0.73
   9  10  -9    2.58    0.96
  -9  10  -9    1.49    0.68
  10  10  -9   13.10    1.54
  11  10  -9    3.58    1.14
  12  10  -9   -0.54    0.91
  13  10  -9   -1.55    0.89
   0  11  -9   31.63    1.89
   1  11  -9   18.64    1.41
  -1  11  -9   19.06    1.37
   2  11   9   30.73    1.79
  -2  11  -9   31.34    1.84
   3  11  -9   15.85    1.22
   3  11   9   13.02    1.16
  -3  11  -9   12.81    1.13
   4  11  -9   15.40    1.42
   4  11   9   13.81    1.19
  -4  11  -9   17.29    1.28
   5  11  -9   17.63    1.55
  -5  11  -9   20.37    1.40
   5  11   9   20.20    1.42
   6  11  -9   16.27    1.55
  -6  11  -9   14.52    1.21
   6  11   9   14.11    1.23
   7  11  -9   10.05    1.29
  -7  11  -9    9.60    1.05
   7  11   9    8.03    1.06
   8  11  -9   -0.89    0.86
   8  11   9    0.30    0.72
  -8  11  -9    0.23    0.66
   9  11  -9    8.48    1.35
  -9  11  -9    9.54    1.07
  10  11  -9    6.23    1.24
  11  11  -9    5.20    1.17
  12  11  -9    1.19    0.96
  13  11  -9    2.18    1.13
   0  12  -9   41.24    2.33
   1  12  -9   37.97    2.19
  -1  12  -9   39.75    2.20
  -2  12  -9   13.59    1.27
   2  12   9   10.73    1.14
   3  12   9   20.09    1.41
  -3  12  -9   20.01    1.43
   4  12  -9   30.18    2.00
  -4  12  -9   29.35    1.82
   4  12   9   30.64    1.85
   5  12  -9    9.89    1.26
  -5  12  -9    7.74    0.98
   5  12   9    6.25    0.94
   6  12  -9    3.53    0.99
  -6  12  -9    2.38    0.80
   6  12   9    3.32    0.85
   7  12  -9   12.27    1.49
   7  12   9   11.63    1.21
  -7  12  -9   12.62    1.21
   8  12  -9    6.77    1.25
  -8  12  -9    8.01    1.01
   8  12   9    6.93    1.04
   9  12  -9    9.21    1.46
  -9  12  -9   12.63    1.23
  10  12  -9    0.11    1.01
  11  12  -9    0.96    1.01
  12  12  -9    3.18    1.17
   0  13  -9    0.05    0.76
   1  13  -9   30.42    1.95
  -1  13  -9   30.03    1.91
  -2  13  -9   11.44    1.27
   2  13   9   14.62    1.27
   3  13   9   31.73    1.92
  -3  13  -9   31.41    1.95
   4  13  -9   26.49    1.81
  -4  13  -9   24.15    1.64
   4  13   9   21.20    1.62
   5  13  -9   13.72    1.47
  -5  13  -9   12.66    1.26
   5  13   9   11.89    1.22
   6  13  -9    3.32    1.04
  -6  13  -9    4.55    0.93
   6  13   9    4.15    0.94
   7  13  -9    6.76    1.25
  -7  13  -9    8.12    1.06
   7  13   9    7.15    1.04
   8  13  -9   21.19    1.82
  -8  13  -9   23.70    1.63
   8  13   9   22.47    1.61
   9  13  -9    1.84    1.01
  -9  13  -9    1.25    0.74
  10  13  -9    0.54    0.98
  11  13  -9   -0.93    0.99
  12  13  -9    3.53    1.21
   0  14  -9    4.02    0.97
   1  14  -9    2.43    0.89
  -1  14  -9    4.22    0.92
  -2  14  -9   74.61    3.79
   2  14   9   76.53    3.79
   3  14   9    7.91    1.08
  -3  14  -9    6.92    1.06
   4  14  -9    7.40    1.23
  -4  14  -9    8.42    1.14
   4  14   9    8.89    1.14
   5  14  -9    6.66    1.21
  -5  14  -9    5.65    1.02
   5  14   9    5.12    0.99
   6  14  -9   16.86    1.71
  -6  14  -9   13.92    1.41
   6  14   9   17.70    1.42
   7  14  -9   14.26    1.65
   7  14   9   15.59    1.34
  -7  14  -9   12.38    1.35
   8  14  -9    3.70    1.11
  -8  14  -9    3.94    0.93
   8  14   9    2.33    0.92
   9  14  -9    4.81    1.22
  -9  14  -9    4.81    0.96
  10  14  -9    1.04    1.03
  11  14  -9    1.25    1.10
  12  14  -9    2.41    1.23
   0  15  -9    0.05    0.82
   1  15  -9   19.23    1.60
  -1  15  -9   18.35    1.55
   1  15   9   17.66    1.49
   2  15  -9   22.77    1.69
   2  15   9   24.75    1.77
  -2  15  -9   21.66    1.72
   3  15  -9   20.39    1.65
  -3  15  -9   23.04    1.69
   3  15   9   22.58    1.71
   4  15  -9    4.24    1.08
  -4  15  -9    4.40    0.94
   4  15   9    3.93    0.96
   5  15  -9    3.53    1.11
  -5  15  -9    2.78    0.93
   5  15   9    3.74    0.95
   6  15  -9    9.00    1.38
  -6  15  -9    7.79    1.15
   6  15   9    9.54    1.21
   7  15  -9   15.82    1.75
  -7  15  -9   15.71    1.44
   7  15   9   15.73    1.43
   8  15  -9    5.92    1.27
   8  15   9    3.75    0.99
  -8  15  -9    4.59    0.99
   9  15  -9    1.04    1.15
  -9  15  -9    0.73    0.85
  10  15  -9    0.00    1.02
  11  15  -9    2.88    1.26
   0  16  -9   16.29    1.60
   1  16  -9   18.67    1.63
  -1  16  -9   20.53    1.63
   1  16   9   16.71    1.53
   2  16  -9    2.23    1.01
   2  16   9    4.09    0.98
  -2  16  -9    5.16    1.06
   3  16  -9    4.68    1.14
   3  16   9    8.18    1.20
  -3  16  -9    8.66    1.24
   4  16  -9   16.27    1.67
   4  16   9   15.85    1.57
  -4  16  -9   15.53    1.56
   5  16  -9   11.57    1.51
  -5  16  -9   11.11    1.36
   5  16   9   10.78    1.33
   6  16  -9   11.43    1.53
   6  16   9    8.11    1.23
  -6  16  -9    8.85    1.25
   7  16  -9    2.46    1.10
   7  16   9    1.57    0.93
  -7  16  -9    0.01    0.75
   8  16  -9    4.75    1.32
  -8  16  -9    4.54    1.04
   8  16   9    4.43    1.09
   9  16  -9    2.31    1.11
  -9  16  -9    1.84    0.89
  10  16  -9    4.93    1.32
  11  16  -9    0.65    1.20
   0  17  -9   27.98    1.98
   0  17   9   22.08    1.82
   1  17  -9   13.20    1.50
  -1  17  -9   12.11    1.46
   1  17   9   10.60    1.36
   2  17  -9    4.63    1.12
  -2  17  -9    3.16    1.02
   2  17   9    2.31    0.96
   3  17  -9    0.35    0.92
   3  17   9   -0.97    0.78
  -3  17  -9    1.57    0.90
   4  17  -9    7.93    1.32
   4  17   9    9.00    1.28
  -4  17  -9    8.79    1.27
   5  17  -9   22.23    1.92
  -5  17  -9   21.68    1.78
   5  17   9   21.84    1.73
   6  17  -9    1.44    1.06
   6  17   9   -1.44    0.79
  -6  17  -9   -0.13    0.80
   7  17  -9    1.42    1.16
  -7  17  -9    4.37    1.03
   7  17   9    2.68    1.00
   8  17  -9    0.35    1.07
  -8  17  -9    0.32    0.85
   8  17   9    2.55    0.96
   9  17  -9    6.35    1.38
  -9  17  -9    8.42    1.30
  10  17  -9    1.16    1.17
   0  18  -9    6.70    1.24
   0  18   9    7.81    1.28
   1  18  -9   10.00    1.41
   1  18   9   10.76    1.43
  -1  18  -9   11.53    1.45
   2  18  -9    0.47    0.94
  -2  18  -9    0.23    0.90
   2  18   9    1.08    0.90
   3  18  -9    5.70    1.20
  -3  18  -9    5.58    1.18
   3  18   9    5.25    1.13
   4  18  -9    4.79    1.22
   4  18   9    5.22    1.14
  -4  18  -9    5.40    1.16
   5  18  -9    3.72    1.26
  -5  18  -9    6.15    1.16
   5  18   9    6.15    1.19
   6  18  -9    8.76    1.46
   6  18   9    5.54    1.20
  -6  18  -9   10.21    1.34
   7  18  -9   -0.63    1.01
   7  18   9    1.09    0.95
  -7  18  -9    0.74    0.91
   8  18  -9    1.83    1.14
   8  18   9    3.08    1.04
  -8  18  -9    3.38    1.05
   9  18  -9    3.86    1.31
  -9  18  -9    1.84    1.01
  10  18  -9    1.42    1.29
   0  19   9    0.87    0.95
   0  19  -9    0.31    0.97
   1  19  -9    4.13    1.12
  -1  19   9    2.92    1.05
   1  19   9    4.20    1.14
  -1  19  -9    4.04    1.13
   2  19  -9    3.35    1.16
   2  19   9    3.98    1.14
  -2  19  -9    3.44    1.09
   3  19  -9    9.23    1.44
   3  19   9   10.21    1.40
  -3  19  -9    9.56    1.41
   4  19  -9    1.67    1.08
  -4  19  -9    0.70    0.91
   4  19   9    1.29    1.01
   5  19  -9    2.97    1.18
   5  19   9    2.03    1.04
  -5  19  -9    3.70    1.06
   6  19  -9    3.45    1.23
  -6  19  -9    3.98    1.12
   6  19   9    2.70    1.08
   7  19  -9    2.37    1.22
  -7  19  -9    1.55    0.97
   7  19   9    3.35    1.09
   8  19  -9    1.65    1.17
  -8  19  -9    0.49    0.90
   8  19   9    0.76    0.96
   9  19  -9   -1.59    1.04
  -9  19  -9    1.40    1.00
   0  20  -9    3.48    1.18
   0  20   9    3.91    1.14
   1  20  -9   -0.22    0.93
  -1  20   9    0.95    0.98
  -1  20  -9    0.55    0.99
   1  20   9   -0.82    0.90
  -2  20   9    6.04    1.29
   2  20  -9    8.48    1.40
  -2  20  -9    7.71    1.37
   2  20   9    7.92    1.34
   3  20  -9    3.99    1.20
  -3  20  -9    3.88    1.15
   3  20   9    3.22    1.17
   4  20  -9   -0.90    0.92
   4  20   9   -1.08    0.91
  -4  20  -9   -0.06    0.91
   5  20  -9    3.36    1.32
  -5  20  -9    2.33    1.09
   5  20   9    3.57    1.15
   6  20  -9   -0.82    1.04
   6  20   9    1.84    1.04
  -6  20  -9    0.62    0.98
   7  20  -9    2.50    1.20
  -7  20  -9    3.57    1.12
   7  20   9    1.92    1.08
   8  20  -9   -0.93    1.12
  -8  20  -9    0.59    1.00
   8  20   9   -0.79    0.96
   0  21  -9    0.69    1.05
   0  21   9   -1.21    0.90
   1  21  -9    2.12    1.09
  -1  21   9    3.01    1.16
  -1  21  -9    2.35    1.13
   1  21   9    4.46    1.17
  -2  21   9    3.33    1.12
   2  21  -9    1.37    1.08
   2  21   9    2.09    1.09
  -2  21  -9    1.96    1.05
   3  21  -9    2.75    1.16
   3  21   9    1.74    1.09
  -3  21  -9    1.28    1.04
   4  21  -9    3.27    1.20
  -4  21  -9    4.65    1.20
   4  21   9    3.79    1.18
   5  21  -9   -1.24    1.00
   5  21   9   -1.47    0.90
  -5  21  -9    1.70    1.09
   6  21  -9    2.71    1.33
  -6  21  -9    2.59    1.08
   6  21   9   -0.37    1.01
   7  21  -9    0.52    1.19
   7  21   9   -0.77    0.98
  -7  21  -9    1.20    1.07
   8  21   9    2.02    1.10
   0  22  -9    1.91    1.19
   0  22   9    1.42    1.12
   1  22  -9    2.31    1.19
  -1  22   9    4.13    1.27
   1  22   9    0.91    1.12
  -1  22  -9    1.86    1.14
  -2  22   9    1.10    0.99
   2  22  -9    2.55    1.14
   2  22   9    1.98    1.15
  -2  22  -9    1.16    1.04
   3  22  -9    1.63    1.19
  -3  22   9    0.57    1.01
   3  22   9    1.71    1.09
  -3  22  -9    1.85    1.10
   4  22  -9    1.26    1.13
  -4  22  -9    0.15    1.09
   4  22   9    0.05    1.03
   5  22  -9    1.76    1.28
   5  22   9    1.20    1.13
  -5  22  -9    3.74    1.23
   6  22  -9    0.27    1.18
  -6  22  -9    0.15    1.03
   6  22   9    0.38    1.10
   7  22   9    0.56    1.08
   0  23  -9    1.20    1.14
   0  23   9   -1.25    0.98
   1  23  -9   -1.21    1.05
  -1  23   9    2.22    1.17
  -1  23  -9   -0.59    1.09
   1  23   9    1.81    1.16
   2  23  -9    2.39    1.21
  -2  23   9    1.47    1.14
  -2  23  -9    1.37    1.14
   2  23   9    0.78    1.09
   3  23  -9    1.40    1.20
  -3  23   9   -0.17    1.00
  -3  23  -9    2.03    1.16
   3  23   9    1.75    1.15
   4  23  -9    0.23    1.14
  -4  23   9    0.42    1.11
  -4  23  -9    0.51    1.11
   4  23   9    0.36    1.11
  -5  23   9    0.33    1.08
   5  23  -9    2.57    1.36
   5  23   9    0.12    1.08
  -5  23  -9    0.70    1.09
   0  24   9    1.49    1.25
   0  24  -9   -0.72    1.09
   1  24  -9    2.41    1.29
  -1  24   9    3.22    1.30
  -1  24  -9    2.92    1.29
   1  24   9    1.61    1.17
  -2  24   9    1.70    1.19
   2  24  -9    1.44    1.21
  -2  24  -9   -0.25    1.12
   2  24   9   -0.90    1.15
   3  24  -9   -0.82    1.15
  -3  24   9    0.94    1.15
  -3  24  -9   -0.99    1.04
   3  24   9   -0.37    1.16
   4  24  -9    0.45    1.23
  -4  24   9   -0.48    1.08
  -4  24  -9    0.44    1.11
   4  24   9    0.19    1.15
   0   0 -10  112.22    4.86
  -1   0 -10    4.68    0.44
   1   0 -10    6.48    0.55
  -2   0 -10  277.10   11.64
   3   0 -10   -0.07    0.09
   4   0 -10   48.47    2.37
   5   0 -10   30.30    1.68
   6   0 -10  116.24    5.27
   7   0 -10   -0.03    0.57
   8   0 -10    2.99    0.79
   9   0 -10    7.40    1.03
  10   0 -10    1.55    0.81
  11   0 -10   -0.07    0.76
  12   0 -10   12.59    1.43
  13   0 -10    0.27    0.87
  14   0 -10    5.14    1.17
   0   1 -10   85.43    3.76
   0  -1 -10   86.62    3.76
   1   1 -10   12.40    0.76
  -1  -1 -10   11.06    0.65
  -1   1 -10    9.88    0.67
   1  -1 -10   10.89    0.72
  -2   1 -10    5.64    0.45
   4   1 -10  198.14    8.53
   4  -1 -10  195.08    8.52
   5   1 -10   16.55    1.14
   5  -1 -10   15.76    1.13
   6   1 -10   87.67    4.13
   6  -1 -10   90.18    4.13
   7   1 -10   51.47    2.64
   7  -1 -10   51.12    2.63
   8   1 -10   44.43    2.45
   8  -1 -10   46.92    2.47
   9   1 -10    9.02    1.17
   9  -1 -10    9.90    1.15
  10   1 -10    6.80    1.05
  10  -1 -10    7.95    1.09
  11   1 -10    7.54    1.14
  11  -1 -10    7.72    1.17
  12   1 -10    6.02    1.12
  12  -1 -10    8.00    1.23
  13   1 -10   -0.59    0.84
  13  -1 -10    1.09    0.94
  14   1 -10    1.05    0.95
  14  -1 -10    1.56    0.98
   0  -2 -10   76.61    3.34
   0   2 -10   74.99    3.36
  -1  -2 -10  201.51    8.60
   1   2 -10  208.97    8.69
   1  -2 -10  206.90    8.67
  -1   2 -10  195.20    8.62
   2   2 -10    0.02    0.15
   2  -2 -10   -0.14    0.15
  -2   2 -10    2.00    0.33
   4   2 -10  148.59    6.53
  -4   2 -10  145.76    6.28
   4  -2 -10  151.60    6.53
   5   2 -10   76.46    3.50
   5  -2 -10   72.43    3.48
   6   2 -10    5.52    0.80
   6  -2 -10    5.57    0.78
   7   2 -10   28.95    1.71
   7  -2 -10   25.47    1.65
   8   2 -10    5.69    0.90
   8  -2 -10    6.73    0.96
   9   2 -10    2.43    0.88
   9  -2 -10    1.25    0.75
  10   2 -10   10.75    1.25
  10  -2 -10   10.38    1.22
  11   2 -10    0.52    0.81
  11  -2 -10    0.56    0.83
  12   2 -10    0.93    0.92
  12  -2 -10    1.97    0.97
  13   2 -10    1.41    0.96
  13  -2 -10    2.63    1.00
  14   2 -10    1.56    1.06
  14  -2 -10    2.18    1.00
   0  -3 -10   16.16    0.82
   0   3 -10   11.05    0.87
   1   3 -10   17.16    0.98
  -1   3 -10   15.07    0.91
   1  -3 -10   14.32    0.89
   4   3 -10    4.53    0.69
   4   3  10    5.45    0.41
   4  -3 -10    2.50    0.58
  -4   3 -10    5.16    0.45
   5   3 -10  154.47    6.74
   5  -3 -10  149.91    6.72
  -5   3 -10  152.57    6.48
   6   3 -10    7.84    0.92
   6  -3 -10    8.78    0.92
  -6   3 -10    8.96    0.58
   7   3 -10   60.02    2.96
  -7   3 -10   55.08    2.59
   7  -3 -10   62.60    2.98
   8   3 -10    0.91    0.68
   8  -3 -10    0.23    0.61
   9   3 -10   41.94    2.48
   9  -3 -10   47.67    2.52
  10   3 -10    4.24    0.94
  10  -3 -10    3.75    0.96
  11   3 -10    2.59    0.94
  11  -3 -10    0.52    0.87
  12   3 -10    1.96    0.96
  12  -3 -10    3.87    1.04
  13   3 -10    3.32    1.07
  13  -3 -10    2.53    0.98
  14   3 -10    1.43    0.97
   0   4 -10    2.79    0.50
   1   4 -10   60.95    2.81
   4   4 -10   44.35    2.28
  -4   4 -10   43.85    2.06
   4  -4 -10   45.21    2.24
   4   4  10   45.38    2.03
   5   4 -10   38.98    2.10
   5   4  10   38.26    1.80
  -5   4 -10   39.45    1.84
   5  -4 -10   41.20    2.09
   6   4 -10    1.73    0.63
   6   4  10    0.71    0.32
  -6   4 -10    0.93    0.37
   6  -4 -10    0.99    0.57
   7   4 -10    2.39    0.75
  -7   4 -10    3.52    0.46
   7   4  10    3.62    0.39
   7  -4 -10    3.31    0.78
   8   4 -10    9.82    1.13
   8   4  10    8.96    0.61
   8  -4 -10    7.72    1.00
   9   4 -10    0.45    0.75
   9  -4 -10    1.08    0.75
  10   4 -10    0.93    0.77
  10  -4 -10    0.41    0.73
  11   4 -10   13.18    1.47
  11  -4 -10   15.28    1.54
  12   4 -10    2.57    1.02
  13   4 -10    0.15    0.89
  14   4 -10   -0.57    0.94
   0   5 -10    9.86    0.76
   1   5 -10    0.34    0.27
  -1   5 -10    0.98    0.38
   2   5 -10   15.58    1.04
  -2   5 -10   15.22    0.97
   3   5 -10   49.76    2.44
   4   5 -10    3.33    0.66
   4  -5 -10    3.39    0.60
   4   5  10    3.74    0.46
  -4   5 -10    3.65    0.52
   5   5 -10   43.32    2.29
   5  -5 -10   46.56    2.24
   5   5  10   42.84    2.03
  -5   5 -10   42.38    2.06
   6   5 -10   66.31    3.21
   6   5  10   64.47    2.90
  -6   5 -10   61.69    2.92
   6  -5 -10   67.41    3.17
   7   5 -10   25.82    1.66
   7   5  10   24.59    1.29
  -7   5 -10   24.46    1.33
   7  -5 -10   26.33    1.62
   8   5 -10   -0.25    0.66
   8   5  10    0.38    0.37
   8  -5 -10    0.39    0.66
   9   5 -10    4.65    0.96
   9  -5 -10    5.35    0.98
  10   5 -10   28.84    1.98
  11   5 -10    5.29    1.09
  12   5 -10   -1.40    0.83
  13   5 -10    0.85    0.94
  14   5 -10    1.35    1.00
   1   6 -10    7.30    0.77
   2   6 -10  139.35    6.06
  -2   6 -10  134.21    5.97
   3   6 -10   61.73    3.48
  -3   6 -10   88.88    3.46
   4   6 -10   47.62    2.45
   4   6  10   47.71    2.25
  -4   6 -10   48.35    2.29
   5   6 -10    0.57    0.59
  -5   6 -10    0.13    0.38
   5   6  10    0.06    0.40
   6   6 -10   11.71    1.13
  -6   6 -10    8.16    0.78
   6   6  10   10.52    0.82
   7   6 -10    3.65    0.86
   7   6  10    3.52    0.58
  -7   6 -10    4.94    0.60
   8   6 -10    1.42    0.84
  -8   6 -10    2.60    0.44
   8   6  10    2.45    0.51
   9   6 -10    7.44    1.11
  10   6 -10    3.94    1.01
  11   6 -10    2.91    1.00
  12   6 -10    2.34    0.98
  13   6 -10    2.83    1.08
  14   6 -10    0.56    0.99
   0   7 -10   16.18    1.11
   1   7 -10   35.97    1.96
  -1   7 -10   38.69    1.93
   3   7 -10    6.66    0.82
   3   7  10    7.08    0.70
   4   7 -10   45.01    2.39
   4   7  10   45.10    2.19
   5   7 -10   13.22    1.23
   5   7  10   12.81    0.95
   6   7 -10   27.15    1.71
   6   7  10   25.36    1.44
   7   7 -10    7.27    1.04
   7   7  10    7.22    0.79
   8   7 -10   45.96    2.58
  -8   7 -10   45.26    2.26
   8   7  10   46.03    2.24
   9   7 -10    0.84    0.89
  10   7 -10    2.64    0.93
  11   7 -10    1.40    0.91
  12   7 -10    4.32    1.10
  13   7 -10    2.49    1.09
  14   7 -10   -0.56    1.02
   0   8 -10   11.63    0.99
   1   8 -10   39.97    2.13
  -1   8 -10   41.61    2.12
   2   8 -10   42.66    2.31
  -2   8 -10   46.32    2.24
   3   8 -10   43.70    2.36
  -3   8 -10   45.83    2.27
   3   8  10   46.54    2.24
   4   8 -10    1.70    0.69
   4   8  10    0.38    0.49
  -4   8 -10    1.15    0.52
   5   8 -10   13.58    1.18
   5   8  10   14.44    1.05
  -5   8 -10   15.33    1.05
   6   8 -10   11.06    1.22
   6   8  10   10.91    0.96
  -6   8 -10   10.31    0.93
   7   8 -10    8.88    1.16
   7   8  10    8.08    0.90
  -7   8 -10   10.23    0.91
   8   8 -10    9.05    1.19
   8   8  10    7.48    0.85
  -8   8 -10    7.11    0.83
   9   8 -10    1.72    0.89
  -9   8 -10    1.52    0.59
  10   8 -10    0.37    0.92
  11   8 -10    0.48    0.93
  12   8 -10    3.38    1.12
  13   8 -10    5.00    1.17
   0   9 -10   17.56    1.25
   1   9 -10   10.59    1.01
  -1   9 -10    9.38    0.96
   2   9 -10   27.42    1.67
  -2   9 -10   27.03    1.61
   3   9 -10   27.80    1.70
   3   9  10   28.85    1.57
  -3   9 -10   25.42    1.59
   4   9 -10   16.35    1.32
  -4   9 -10   14.07    1.10
   4   9  10   14.82    1.10
   5   9 -10    8.30    1.11
  -5   9 -10    7.60    0.87
   5   9  10    6.97    0.84
   6   9 -10    7.16    1.09
  -6   9 -10   10.24    0.96
   6   9  10    9.39    0.96
   7   9 -10   23.56    1.72
   7   9  10   24.51    1.49
  -7   9 -10   22.65    1.45
   8   9 -10   -0.59    0.78
   8   9  10    1.73    0.70
  -8   9 -10    0.40    0.57
   9   9 -10    5.58    1.09
  -9   9 -10    5.28    0.81
  10   9 -10    1.06    0.97
  11   9 -10    4.22    1.10
  12   9 -10    0.19    0.94
  13   9 -10    0.42    0.97
   0  10 -10    9.56    1.01
   1  10 -10   27.69    1.69
  -1  10 -10   27.63    1.67
   2  10 -10   36.52    2.01
  -2  10 -10   33.37    1.91
   3  10 -10   17.66    1.37
  -3  10 -10   18.12    1.27
   3  10  10   19.19    1.27
   4  10 -10   15.75    1.36
   4  10  10   14.62    1.15
  -4  10 -10   14.83    1.18
   5  10 -10   12.04    1.27
  -5  10 -10   11.49    1.07
   5  10  10   10.66    1.03
   6  10 -10   15.90    1.48
  -6  10 -10   18.97    1.31
   6  10  10   15.81    1.28
   7  10 -10    2.00    0.93
   7  10  10    2.43    0.74
  -7  10 -10    2.05    0.65
   8  10 -10    3.06    1.00
  -8  10 -10    3.20    0.74
   8  10  10    1.51    0.75
   9  10 -10    0.42    0.88
  -9  10 -10    0.66    0.63
  10  10 -10    2.36    1.01
  11  10 -10    2.51    1.09
  12  10 -10    0.34    1.01
  13  10 -10    1.01    1.03
   0  11 -10   13.73    1.22
   1  11 -10   19.47    1.47
  -1  11 -10   21.81    1.47
   2  11 -10    5.10    0.89
  -2  11 -10    4.99    0.86
   3  11  10    4.66    0.78
  -3  11 -10    5.52    0.88
   4  11 -10    2.69    0.89
   4  11  10    2.20    0.71
  -4  11 -10    4.47    0.79
   5  11 -10   22.43    1.69
   5  11  10   21.57    1.48
  -5  11 -10   23.01    1.50
   6  11 -10    1.50    0.97
   6  11  10    1.28    0.74
  -6  11 -10    3.21    0.75
   7  11 -10    3.60    0.97
  -7  11 -10    3.83    0.77
   7  11  10    3.11    0.84
   8  11 -10    3.25    1.02
   8  11  10    4.07    0.86
  -8  11 -10    3.65    0.79
   9  11 -10    5.83    1.24
  -9  11 -10    7.29    0.97
  10  11 -10    1.88    1.03
  11  11 -10    0.53    0.98
  12  11 -10    1.44    1.06
  13  11 -10   -1.92    0.91
   0  12 -10   12.26    1.23
   1  12 -10    9.76    1.16
  -1  12 -10   10.84    1.15
  -2  12 -10    5.01    0.88
   2  12  10    4.59    0.83
   3  12  10    5.61    0.89
  -3  12 -10    5.10    0.93
   4  12 -10   14.01    1.43
  -4  12 -10   13.38    1.15
   4  12  10   11.67    1.19
   5  12 -10    5.84    1.12
  -5  12 -10    5.73    0.94
   5  12  10    6.52    0.94
   6  12 -10    4.53    1.08
  -6  12 -10    4.73    0.88
   6  12  10    2.95    0.87
   7  12 -10    1.35    0.97
  -7  12 -10    2.64    0.78
   7  12  10    1.30    0.77
   8  12 -10    3.83    1.12
  -8  12 -10    3.21    0.79
   8  12  10    1.61    0.85
   9  12 -10    5.03    1.17
  -9  12 -10    4.61    0.90
  10  12 -10    1.73    1.04
  11  12 -10    0.78    1.06
  12  12 -10    2.13    1.08
   0  13 -10   15.00    1.38
   1  13 -10   11.81    1.31
  -1  13 -10   10.61    1.22
   2  13  10    2.23    0.80
  -2  13 -10    3.04    0.88
   3  13  10   11.81    1.20
  -3  13 -10   10.74    1.22
   4  13 -10    4.01    0.97
   4  13  10    7.63    1.04
  -4  13 -10    7.73    1.02
   5  13 -10    4.50    1.09
  -5  13 -10    5.17    0.94
   5  13  10    3.85    0.91
   6  13 -10    1.42    0.95
   6  13  10    1.11    0.76
  -6  13 -10    0.75    0.71
   7  13 -10    2.80    1.10
   7  13  10    3.13    0.83
  -7  13 -10    0.88    0.75
   8  13 -10    3.49    1.10
   8  13  10    3.24    0.93
  -8  13 -10    1.61    0.82
   9  13 -10    2.39    1.08
  -9  13 -10    2.69    0.86
  10  13 -10    2.83    1.15
  11  13 -10   -0.50    0.99
  12  13 -10    0.82    1.11
   0  14 -10    1.16    0.81
   1  14 -10    2.98    0.97
  -1  14 -10    4.92    0.95
   2  14  10    2.54    0.85
  -2  14 -10    2.80    0.87
   3  14 -10    1.73    0.81
   3  14  10    3.25    0.93
  -3  14 -10    5.00    0.97
   4  14 -10    0.85    0.89
   4  14  10   -0.59    0.67
  -4  14 -10    1.21    0.77
   5  14 -10    5.10    1.15
  -5  14 -10    4.79    0.96
   5  14  10    3.75    0.93
   6  14 -10    2.08    1.02
  -6  14 -10    1.81    0.80
   6  14  10    1.91    0.83
   7  14 -10    0.73    1.00
  -7  14 -10    1.39    0.79
   7  14  10    0.94    0.79
   8  14 -10    1.70    1.03
   8  14  10    1.49    0.88
  -8  14 -10    2.27    0.83
   9  14 -10    1.64    1.07
  -9  14 -10    1.24    0.83
  10  14 -10    1.86    1.16
  11  14 -10    0.71    1.05
  12  14 -10   -0.08    1.10
   0  15 -10    1.78    0.91
   1  15 -10    1.88    0.95
   1  15  10    2.32    0.89
  -1  15 -10    2.72    0.97
   2  15 -10    2.70    0.95
  -2  15 -10    2.11    0.89
   2  15  10    2.61    0.88
   3  15 -10    0.22    0.85
  -3  15 -10    1.07    0.89
   3  15  10    0.90    0.79
   4  15 -10    1.06    0.95
  -4  15 -10    1.09    0.86
   4  15  10    0.47    0.82
   5  15 -10    3.15    1.11
  -5  15 -10    5.33    1.00
   5  15  10    3.89    0.95
   6  15 -10    1.22    0.99
  -6  15 -10    0.84    0.82
   6  15  10    0.32    0.82
   7  15 -10    1.73    1.06
  -7  15 -10    2.24    0.87
   7  15  10    2.36    0.90
   8  15 -10    0.87    1.03
   8  15  10    1.36    0.88
  -8  15 -10    0.18    0.81
   9  15 -10    1.42    1.06
  -9  15 -10    1.05    0.81
  10  15 -10    1.36    1.14
  11  15 -10    2.18    1.15
   0  16 -10    0.13    0.83
   1  16 -10    3.40    1.03
  -1  16 -10    3.91    1.00
   1  16  10    2.90    0.93
   2  16 -10    2.58    1.00
  -2  16 -10    2.94    0.95
   2  16  10    4.18    1.00
   3  16 -10   -0.39    0.84
  -3  16 -10    1.61    0.92
   3  16  10    0.24    0.79
   4  16 -10    0.96    0.97
   4  16  10    0.86    0.85
  -4  16 -10    0.73    0.82
   5  16 -10    3.64    1.12
  -5  16 -10    3.79    0.96
   5  16  10    1.98    0.89
   6  16 -10    4.79    1.23
   6  16  10    5.37    1.08
  -6  16 -10    6.01    1.08
   7  16 -10    2.06    1.11
   7  16  10    2.98    0.96
  -7  16 -10    2.11    0.93
   8  16 -10    0.18    1.10
  -8  16 -10    1.27    0.87
   8  16  10    1.87    0.92
   9  16 -10    0.21    1.02
  -9  16 -10    2.35    0.91
  10  16 -10   -0.98    0.99
  11  16 -10    0.13    1.16
   0  17 -10    0.40    0.91
   1  17 -10    2.25    1.03
   1  17  10    2.61    0.95
  -1  17 -10    2.84    1.01
   2  17 -10    2.47    1.04
  -2  17 -10    3.81    1.02
   2  17  10    2.74    0.98
   3  17 -10    0.12    0.91
  -3  17 -10    0.87    0.88
   3  17  10    0.19    0.88
   4  17 -10    0.82    0.98
  -4  17 -10    1.01    0.84
   4  17  10    0.67    0.85
   5  17 -10    5.20    1.28
   5  17  10    5.77    1.11
  -5  17 -10    4.98    1.07
   6  17 -10   -0.10    1.04
  -6  17 -10    0.84    0.83
   6  17  10    0.94    0.90
   7  17 -10    1.47    1.09
  -7  17 -10    2.03    0.92
   7  17  10    0.26    0.89
   8  17 -10    0.37    1.09
   8  17  10    2.27    0.97
  -8  17 -10    0.35    0.87
   9  17 -10    1.91    1.12
  -9  17 -10    2.57    0.97
  10  17 -10    1.21    1.13
   0  18 -10    7.42    1.29
   0  18  10    6.75    1.25
   1  18 -10    1.88    1.02
  -1  18 -10    1.10    0.98
   1  18  10    0.84    0.88
   2  18 -10    0.54    0.93
   2  18  10    1.18    0.90
  -2  18 -10    1.40    0.96
   3  18 -10    7.69    1.29
   3  18  10    5.96    1.18
  -3  18 -10    8.09    1.29
   4  18 -10    1.48    1.04
  -4  18 -10    2.31    0.96
   4  18  10    0.83    0.96
   5  18 -10    1.90    1.15
   5  18  10    3.08    1.05
  -5  18 -10    2.91    0.99
   6  18 -10    0.51    1.13
  -6  18 -10    2.13    0.93
   6  18  10    0.66    0.98
   7  18 -10    2.97    1.24
  -7  18 -10    4.93    1.11
   7  18  10    2.60    1.02
   8  18 -10   -0.28    1.07
  -8  18 -10   -0.50    0.88
   8  18  10   -0.49    0.85
   9  18 -10   -2.89    0.97
  -9  18 -10    1.40    0.96
  10  18 -10    0.37    1.16
   0  19 -10    1.71    1.02
   0  19  10    1.63    0.99
   1  19 -10    0.76    0.99
  -1  19  10    3.07    1.11
  -1  19 -10    1.50    1.05
   1  19  10    2.79    1.09
   2  19 -10    1.53    0.99
  -2  19 -10   -0.92    0.88
   2  19  10    0.47    0.96
   3  19 -10    1.86    1.03
  -3  19 -10    1.87    0.96
   3  19  10    1.11    0.97
   4  19 -10    2.87    1.14
  -4  19 -10    3.22    1.05
   4  19  10    3.75    1.15
   5  19 -10    1.11    1.09
   5  19  10    1.43    1.01
  -5  19 -10    1.35    0.96
   6  19 -10    3.07    1.22
   6  19  10    1.90    0.94
  -6  19 -10    0.73    0.94
   7  19 -10    0.03    1.06
   7  19  10    2.12    1.02
  -7  19 -10    4.44    1.10
   8  19 -10    4.71    1.39
   8  19  10    4.22    1.17
  -8  19 -10    3.88    1.09
   9  19 -10    0.38    1.22
  -9  19 -10    1.55    0.98
   0  20 -10    4.21    1.20
   0  20  10    1.58    1.02
  -1  20  10   -1.03    0.85
   1  20 -10    1.57    1.07
  -1  20 -10   -0.65    0.94
   1  20  10   -0.48    0.91
   2  20 -10   14.91    1.76
   2  20  10   12.58    1.57
  -2  20 -10   12.07    1.59
   3  20 -10    1.08    1.04
   3  20  10    0.64    1.00
  -3  20 -10   -0.08    0.89
   4  20 -10    1.11    1.08
  -4  20 -10    0.70    0.95
   4  20  10    0.70    1.02
   5  20 -10    2.68    1.20
  -5  20 -10    2.64    1.07
   5  20  10    1.70    1.00
   6  20 -10    4.40    1.32
   6  20  10    5.42    1.17
  -6  20 -10    5.63    1.25
   7  20 -10   -0.24    1.06
   7  20  10    0.13    0.96
  -7  20 -10    1.09    1.00
   8  20 -10    0.41    1.15
   8  20  10    0.13    1.06
  -8  20 -10    1.10    1.03
   0  21  10    5.26    1.26
   0  21 -10    2.42    1.14
  -1  21  10    3.40    1.15
   1  21 -10    0.86    1.06
  -1  21 -10    0.53    1.04
   1  21  10    2.04    1.07
   2  21 -10   -0.06    0.97
  -2  21  10   -0.72    0.94
   2  21  10   -0.47    0.94
  -2  21 -10    0.49    0.96
   3  21 -10    2.15    1.15
   3  21  10    3.69    1.17
  -3  21 -10    3.35    1.18
   4  21 -10    3.35    1.26
  -4  21 -10    3.35    1.15
   4  21  10    4.54    1.27
   5  21 -10   -1.32    1.02
  -5  21 -10    1.05    1.06
   5  21  10   -0.65    0.96
   6  21 -10    2.30    1.33
   6  21  10    2.19    1.06
  -6  21 -10    1.55    1.08
   7  21 -10    1.98    1.31
  -7  21 -10    2.29    1.07
   7  21  10    2.11    1.17
   0  22 -10    4.61    1.25
   0  22  10    2.37    1.13
  -1  22  10    4.21    1.23
   1  22 -10    3.13    1.22
  -1  22 -10    2.89    1.18
   1  22  10    4.20    1.20
  -2  22  10   -0.24    0.94
   2  22 -10    0.14    1.04
  -2  22 -10   -0.27    1.04
   2  22  10    0.76    1.02
  -3  22  10    1.59    1.11
   3  22 -10    1.84    1.19
   3  22  10    1.97    1.12
  -3  22 -10    0.17    1.01
   4  22 -10    5.20    1.35
  -4  22 -10    4.15    1.21
   4  22  10    2.19    1.21
   5  22 -10    0.33    1.17
  -5  22 -10    1.39    1.15
   5  22  10    1.31    1.11
   6  22 -10    2.22    1.26
  -6  22 -10    1.08    1.06
   6  22  10    1.36    1.12
   0  23 -10    1.34    1.17
   0  23  10   -0.58    1.01
   1  23 -10    0.47    1.09
  -1  23  10    0.86    1.10
  -1  23 -10    2.14    1.18
   1  23  10    0.80    1.07
   2  23 -10    0.53    1.12
  -2  23  10    0.88    1.10
   2  23  10    3.04    1.18
  -2  23 -10    1.61    1.17
   3  23 -10   -0.19    1.18
  -3  23  10    0.64    1.12
   3  23  10    1.63    1.21
  -3  23 -10    0.37    1.08
  -4  23  10    1.52    1.11
   4  23 -10    1.11    1.28
  -4  23 -10    0.07    1.11
   4  23  10   -0.47    1.10
   5  23 -10    7.01    1.58
  -5  23 -10    6.03    1.37
   5  23  10    5.47    1.43
   0  24 -10    1.12    1.19
   0  24  10    2.48    1.23
  -1  24  10    4.65    1.44
   1  24 -10    6.10    1.49
   1  24  10    6.70    1.54
  -1  24 -10    5.63    1.43
  -2  24  10    0.47    1.12
   2  24 -10    0.52    1.19
   2  24  10   -1.18    1.06
  -2  24 -10    0.82    1.16
  -3  24  10    4.86    1.37
   3  24 -10    2.82    1.33
   3  24  10    1.60    1.22
  -3  24 -10    0.77    1.16
   0   0 -11    0.68    0.32
  -1   0 -11    4.12    0.41
   1   0 -11    4.31    0.49
  -2   0 -11    2.09    0.28
   3   0 -11   -0.13    0.08
   4   0 -11    0.33    0.47
   5   0 -11   80.43    3.75
   6   0 -11   18.82    1.30
   7   0 -11   -0.17    0.62
   8   0 -11    4.08    0.85
   9   0 -11    4.40    0.91
  10   0 -11    2.27    0.84
  11   0 -11    4.06    0.99
  12   0 -11    4.13    1.07
  13   0 -11    2.85    1.01
  14   0 -11   -0.61    0.90
   0   1 -11   11.09    0.73
   0  -1 -11   10.51    0.71
  -1  -1 -11    3.19    0.37
   1   1 -11    3.48    0.48
  -1   1 -11    4.63    0.45
   1  -1 -11    3.99    0.47
  -2   1 -11    3.78    0.37
   4   1 -11   15.12    1.09
   4  -1 -11   15.46    1.09
   5   1 -11    1.20    0.60
   5  -1 -11    0.60    0.55
   6   1 -11   16.65    1.25
   6  -1 -11   18.43    1.26
   7   1 -11   10.35    1.06
   7  -1 -11    8.79    1.00
   8   1 -11    7.36    0.99
   8  -1 -11    8.87    1.03
   9   1 -11    5.29    0.99
   9  -1 -11    4.81    0.99
  10   1 -11    3.20    0.88
  10  -1 -11    3.14    0.85
  11   1 -11    1.17    0.89
  11  -1 -11    3.21    0.92
  12   1 -11    0.61    0.90
  12  -1 -11    1.32    0.86
  13   1 -11    1.59    0.95
  13  -1 -11   -0.13    0.88
  14   1 -11   -0.12    0.95
  14  -1 -11    1.27    0.97
   0  -2 -11   13.30    0.84
   0   2 -11   17.86    0.94
   1   2 -11    7.26    0.65
  -1  -2 -11    7.85    0.56
  -1   2 -11    6.79    0.59
   1  -2 -11    7.56    0.61
   4   2 -11   35.16    1.83
   4  -2 -11   33.30    1.81
  -4   2 -11   34.36    1.54
   5   2 -11    3.86    0.70
   5  -2 -11    3.86    0.65
   6   2 -11    7.33    0.89
   6  -2 -11    7.48    0.86
   7   2 -11    5.42    0.86
   7  -2 -11    5.47    0.85
   8   2 -11   12.69    1.28
   8  -2 -11   15.42    1.25
   9   2 -11    0.90    0.77
   9  -2 -11    1.10    0.76
  10   2 -11    0.83    0.80
  10  -2 -11    1.58    0.76
  11   2 -11    3.08    0.96
  11  -2 -11    3.24    0.98
  12   2 -11   -0.59    0.86
  12  -2 -11    1.17    0.91
  13   2 -11    0.19    0.88
  13  -2 -11    0.53    0.91
  14   2 -11    0.45    0.95
  14  -2 -11    0.21    0.90
   0   3 -11   10.86    0.82
   0  -3 -11   12.31    0.75
   1   3 -11   48.53    2.45
  -1   3 -11   55.38    2.43
   1  -3 -11   54.25    2.45
  -2   3 -11   80.39    3.54
   4   3 -11    2.85    0.60
  -4   3 -11    4.90    0.43
   4   3  11    4.00    0.35
   4  -3 -11    2.67    0.59
   5   3 -11   37.97    2.00
  -5   3 -11   36.48    1.67
   5  -3 -11   35.15    1.95
   6   3 -11   11.50    1.03
  -6   3 -11   10.05    0.65
   6  -3 -11   11.40    1.00
   7   3 -11    4.27    0.81
   7  -3 -11    2.90    0.73
  -7   3 -11    3.78    0.40
   8   3 -11    7.09    1.01
   8  -3 -11    5.80    0.93
   9   3 -11   15.44    1.41
   9  -3 -11   14.56    1.33
  10   3 -11    0.73    0.80
  10  -3 -11   -0.25    0.77
  11   3 -11    0.07    0.89
  11  -3 -11    0.11    0.86
  12   3 -11    4.51    1.11
  12  -3 -11    4.79    1.10
  13   3 -11    2.38    0.98
  13  -3 -11    2.23    1.00
  14   3 -11   -0.16    0.92
   0   4 -11  129.50    5.66
   2   4 -11   34.51    1.66
  -2   4 -11   31.95    1.54
   2  -4 -11   25.56    1.55
   3  -4 -11   28.41    1.51
   4   4 -11    8.00    0.83
  -4   4 -11    7.20    0.60
   4   4  11    6.20    0.53
   4  -4 -11    6.30    0.70
   5   4 -11    4.05    0.73
  -5   4 -11    3.62    0.43
   5  -4 -11    2.50    0.62
   5   4  11    2.95    0.38
   6   4 -11   41.21    2.14
  -6   4 -11   37.07    1.79
   6  -4 -11   36.66    2.07
   7   4 -11   15.21    1.24
   7  -4 -11   13.64    1.21
  -7   4 -11   13.85    0.84
   8   4 -11    7.32    1.00
  -8   4 -11    6.67    0.62
   8  -4 -11    7.19    1.00
   9   4 -11    2.05    0.88
   9  -4 -11    3.83    0.88
  10   4 -11   10.89    1.31
  10  -4 -11   10.31    1.27
  11   4 -11    1.26    0.92
  11  -4 -11   -0.67    0.79
  12   4 -11    2.07    1.00
  12  -4 -11   -0.38    0.86
  13   4 -11    1.13    0.97
  14   4 -11    1.13    1.01
   1   5 -11   70.68    3.24
  -1   5 -11   69.52    3.19
   2   5 -11    5.50    0.67
  -2   5 -11    5.43    0.59
   3  -5 -11   98.44    4.98
  -3   5 -11  126.12    4.95
   4   5 -11   45.10    2.40
  -4   5 -11   48.82    2.25
   4   5  11   49.70    2.20
   4  -5 -11   47.47    2.40
   5   5 -11    9.45    0.99
   5  -5 -11   10.56    0.94
   5   5  11    9.16    0.70
  -5   5 -11    9.47    0.74
   6   5 -11    1.56    0.70
   6  -5 -11    0.18    0.56
   6   5  11    0.49    0.40
  -6   5 -11    1.08    0.41
   7   5 -11   31.11    1.90
   7  -5 -11   30.14    1.85
  -7   5 -11   29.25    1.54
   7   5  11   32.58    1.49
   8   5 -11    3.68    0.85
  -8   5 -11    4.07    0.54
   8  -5 -11    4.79    0.88
   9   5 -11    1.44    0.80
   9  -5 -11    0.98    0.74
  10   5 -11    2.50    0.88
  10  -5 -11    1.52    0.83
  11   5 -11    7.43    1.21
  12   5 -11    1.04    0.92
  13   5 -11   -0.16    0.95
  14   5 -11   -0.99    0.88
   0   6 -11    0.05    0.44
   2   6 -11   92.87    3.96
  -2   6 -11   78.22    3.81
   4   6 -11   26.35    1.59
   4   6  11   26.68    1.39
  -4   6 -11   27.38    1.44
   5   6 -11   66.88    3.35
  -5   6 -11   67.73    3.13
   5   6  11   70.74    3.11
   6   6 -11   18.36    1.42
  -6   6 -11   18.51    1.15
   6   6  11   20.97    1.14
   7   6 -11    6.81    1.02
  -7   6 -11    6.04    0.68
   7   6  11    6.71    0.66
   8   6 -11    2.84    0.88
  -8   6 -11    2.62    0.52
   9   6 -11   20.62    1.66
  10   6 -11    3.79    0.98
  11   6 -11   -0.13    0.79
  12   6 -11    0.14    0.91
  13   6 -11    1.16    0.97
  14   6 -11    0.74    1.00
   0   7 -11   28.87    1.61
   1   7 -11   82.62    3.75
  -1   7 -11   78.38    3.69
   2   7 -11   10.45    0.90
  -2   7 -11    9.65    0.83
  -3   7 -11    0.79    0.29
   4   7 -11   14.59    1.22
   4   7  11   15.23    0.98
   5   7 -11   21.40    1.55
   5   7  11   23.82    1.31
   6   7 -11   10.68    1.16
   6   7  11    9.34    0.83
   7   7 -11    5.81    1.03
   7   7  11    7.83    0.76
   8   7 -11    4.43    0.97
   9   7 -11    1.70    0.87
  10   7 -11    4.64    1.08
  11   7 -11    2.35    0.97
  12   7 -11    1.63    0.98
  13   7 -11   -0.41    0.87
   0   8 -11   35.02    1.88
   1   8 -11    8.78    0.93
  -1   8 -11    9.83    0.90
   2   8 -11    8.10    0.90
  -2   8 -11    9.35    0.88
   4   8 -11   41.34    2.30
  -4   8 -11   40.99    2.14
   4   8  11   43.31    2.11
   5   8 -11   10.07    1.16
   5   8  11   12.49    0.96
  -5   8 -11   10.18    0.94
   6   8 -11   17.35    1.40
   6   8  11   14.63    1.11
  -6   8 -11   15.15    1.09
   7   8 -11   27.18    1.88
  -7   8 -11   28.84    1.60
   7   8  11   28.57    1.61
   8   8 -11   11.74    1.33
  -8   8 -11   10.92    0.97
   8   8  11   12.82    1.00
   9   8 -11   10.89    1.34
  10   8 -11    3.11    1.05
  11   8 -11    7.17    1.29
  12   8 -11   -0.09    0.93
  13   8 -11    0.16    0.97
   0   9 -11    6.59    0.87
   1   9 -11   21.39    1.39
  -1   9 -11   19.18    1.32
   2   9 -11  110.62    5.05
  -2   9 -11  108.60    4.97
   3   9  11   43.97    2.21
  -3   9 -11   42.99    2.25
   4   9 -11   10.60    1.18
  -4   9 -11   10.86    0.98
   4   9  11   10.19    0.91
   5   9 -11    7.02    1.11
   5   9  11    8.29    0.87
  -5   9 -11   10.08    0.91
   6   9 -11   12.74    1.33
  -6   9 -11   11.93    1.05
   6   9  11   13.27    1.10
   7   9 -11    6.39    1.07
  -7   9 -11    4.90    0.77
   7   9  11    6.21    0.82
   8   9 -11    1.57    0.90
  -8   9 -11    1.55    0.63
   8   9  11    1.86    0.68
   9   9 -11    3.64    1.01
  10   9 -11    5.36    1.18
  11   9 -11    0.18    0.94
  12   9 -11    1.08    1.02
  13   9 -11    1.08    1.05
   0  10 -11   10.19    1.05
   1  10 -11    3.79    0.77
  -1  10 -11    4.87    0.78
   2  10 -11   12.46    1.18
  -2  10 -11   10.92    1.08
   3  10  11    2.99    0.66
  -3  10 -11    2.11    0.66
   4  10 -11   42.31    2.50
  -4  10 -11   45.37    2.38
   4  10  11   48.17    2.35
   5  10 -11    8.41    1.16
   5  10  11    7.71    0.94
  -5  10 -11    9.87    0.97
   6  10 -11   13.80    1.44
   6  10  11   14.13    1.18
  -6  10 -11   12.64    1.13
   7  10 -11    0.67    0.82
   7  10  11   -0.43    0.62
  -7  10 -11   -0.48    0.57
   8  10 -11   30.90    2.10
   8  10  11   30.65    1.83
  -8  10 -11   31.03    1.79
   9  10 -11    5.48    1.14
  -9  10 -11    4.16    0.80
  10  10 -11    2.89    1.05
  11  10 -11    1.66    1.04
  12  10 -11    4.93    1.23
  13  10 -11   -0.08    1.01
   0  11 -11   59.20    3.03
   1  11 -11    3.83    0.85
  -1  11 -11    5.24    0.87
   2  11 -11   99.96    4.77
  -2  11 -11  102.16    4.73
   3  11  11   34.24    1.95
  -3  11 -11   34.78    1.97
   4  11  11   22.18    1.43
  -4  11 -11   20.90    1.47
   5  11 -11    7.07    1.11
  -5  11 -11    7.70    0.94
   5  11  11    6.34    0.90
   6  11 -11    8.44    1.25
   6  11  11    7.61    0.96
  -6  11 -11    8.70    0.99
   7  11 -11    2.74    0.99
   7  11  11    3.88    0.81
  -7  11 -11    5.79    0.84
   8  11 -11    3.37    1.01
  -8  11 -11    1.43    0.69
   8  11  11    1.16    0.76
   9  11 -11    9.89    1.45
  -9  11 -11   10.02    1.11
  10  11 -11    3.70    1.11
  11  11 -11   -1.00    0.84
  12  11 -11   -0.05    0.99
  13  11 -11    1.69    1.15
   0  12 -11    8.19    1.07
   1  12 -11    3.09    0.85
  -1  12 -11    3.17    0.84
   2  12 -11    0.52    0.45
  -2  12 -11    3.19    0.79
  -3  12 -11   17.29    1.38
   3  12  11   19.43    1.39
  -4  12 -11   11.36    1.18
   4  12  11   11.28    1.13
   5  12 -11    7.56    1.21
   5  12  11    8.69    1.03
  -5  12 -11    8.23    1.02
   6  12 -11   18.59    1.60
   6  12  11   14.97    1.34
  -6  12 -11   15.71    1.30
   7  12 -11   15.83    1.65
  -7  12 -11   16.08    1.32
   7  12  11   16.67    1.33
   8  12 -11    9.56    1.35
   8  12  11    7.70    1.06
  -8  12 -11    9.51    1.11
   9  12 -11    9.51    1.41
  -9  12 -11   11.27    1.18
  10  12 -11    6.46    1.29
  11  12 -11    3.69    1.18
  12  12 -11   -0.55    1.01
   0  13 -11   12.37    1.30
   1  13 -11   64.14    3.37
  -1  13 -11   65.85    3.35
   2  13  11    3.92    0.90
  -2  13 -11    5.68    0.95
  -3  13 -11   25.26    1.72
   3  13  11   27.12    1.71
   4  13 -11   13.97    1.54
   4  13  11   16.65    1.36
  -4  13 -11   16.91    1.34
   5  13 -11   20.47    1.69
  -5  13 -11   17.76    1.43
   5  13  11   16.57    1.43
   6  13 -11    2.82    1.06
  -6  13 -11    3.34    0.85
   6  13  11    2.34    0.86
   7  13 -11    2.47    1.04
  -7  13 -11    4.89    0.89
   7  13  11    3.76    0.87
   8  13 -11    2.28    1.07
  -8  13 -11    2.84    0.85
   8  13  11    1.07    0.86
   9  13 -11    1.54    1.09
  -9  13 -11    3.17    0.84
  10  13 -11    0.73    0.98
  11  13 -11    3.33    1.19
  12  13 -11    1.13    1.13
   0  14 -11    3.87    0.95
   1  14 -11    8.70    1.19
  -1  14 -11    5.55    1.03
   2  14 -11   25.09    1.74
  -2  14 -11   25.52    1.78
   2  14  11   26.47    1.75
   3  14 -11   11.07    1.32
   3  14  11   11.74    1.28
  -3  14 -11   12.42    1.31
   4  14 -11    4.27    1.08
   4  14  11    3.58    0.92
  -4  14 -11    4.02    0.94
   5  14 -11   29.19    2.05
  -5  14 -11   29.23    1.88
   5  14  11   25.44    1.81
   6  14 -11    9.11    1.39
   6  14  11    9.15    1.16
  -6  14 -11   10.77    1.22
   7  14 -11   15.16    1.70
  -7  14 -11   14.99    1.32
   7  14  11   11.79    1.33
   8  14 -11    1.11    1.04
   8  14  11    0.93    0.83
  -8  14 -11    1.14    0.78
   9  14 -11   10.13    1.55
  -9  14 -11   14.28    1.36
  10  14 -11    0.34    1.10
  11  14 -11    1.66    1.10
   0  15 -11   33.57    2.18
   1  15 -11   28.57    2.03
  -1  15 -11   28.88    2.04
   2  15 -11    8.64    1.26
   2  15  11   11.35    1.27
  -2  15 -11    9.81    1.22
   3  15 -11   25.43    1.93
   3  15  11   26.52    1.82
  -3  15 -11   27.08    1.84
   4  15 -11   21.62    1.84
   4  15  11   22.55    1.66
  -4  15 -11   25.19    1.74
   5  15 -11    5.43    1.17
  -5  15 -11    3.46    0.98
   5  15  11    4.63    0.99
   6  15 -11    3.24    1.13
  -6  15 -11    2.44    0.91
   6  15  11    3.05    0.94
   7  15 -11    5.20    1.32
   7  15  11    6.74    1.07
  -7  15 -11    5.50    1.06
   8  15 -11    1.71    1.15
   8  15  11    0.31    0.79
  -8  15 -11    2.52    0.87
   9  15 -11    0.81    1.03
  -9  15 -11   -0.33    0.71
  10  15 -11    1.43    1.11
  11  15 -11    0.43    1.15
   0  16 -11   14.80    1.53
   1  16 -11    8.19    1.24
   1  16  11    7.55    1.15
  -1  16 -11    7.48    1.21
   2  16 -11    6.01    1.13
   2  16  11    6.98    1.17
  -2  16 -11    6.41    1.15
   3  16 -11   12.39    1.48
   3  16  11   10.95    1.35
  -3  16 -11   10.80    1.36
   4  16 -11    9.99    1.44
   4  16  11   11.32    1.31
  -4  16 -11   13.61    1.42
   5  16 -11    0.60    0.98
   5  16  11    0.23    0.83
  -5  16 -11   -0.92    0.73
   6  16 -11   12.16    1.58
  -6  16 -11   13.43    1.43
   6  16  11   10.80    1.33
   7  16 -11    6.41    1.33
  -7  16 -11    8.08    1.15
   7  16  11    3.62    1.06
   8  16 -11    6.82    1.44
  -8  16 -11    6.28    1.11
   8  16  11    6.05    1.15
   9  16 -11    1.95    1.18
  -9  16 -11    0.14    0.80
  10  16 -11    3.25    1.26
  11  16 -11    2.48    1.20
   0  17 -11   18.13    1.68
   1  17 -11   13.18    1.56
   1  17  11   12.20    1.43
  -1  17 -11   13.13    1.52
   2  17 -11   32.05    2.20
  -2  17 -11   30.94    2.15
   2  17  11   28.64    2.11
   3  17 -11    1.31    0.97
   3  17  11    0.25    0.82
  -3  17 -11    0.30    0.91
   4  17 -11    0.81    1.01
  -4  17 -11    1.77    0.92
   4  17  11    2.31    0.97
   5  17 -11    7.82    1.40
   5  17  11    8.46    1.21
  -5  17 -11    8.43    1.28
   6  17 -11    5.20    1.31
   6  17  11    6.44    1.17
  -6  17 -11    7.02    1.16
   7  17 -11    0.44    1.06
  -7  17 -11    1.51    0.89
   7  17  11   -0.30    0.85
   8  17 -11    0.83    1.19
  -8  17 -11    0.94    0.87
   8  17  11    0.05    0.88
   9  17 -11   -0.03    1.17
  -9  17 -11    2.92    0.98
  10  17 -11   -0.40    1.12
   0  18  11    8.34    1.30
   0  18 -11    8.05    1.33
   1  18 -11    6.45    1.29
  -1  18 -11    5.56    1.27
   1  18  11    6.70    1.21
   2  18 -11    3.05    1.04
   2  18  11    3.74    1.10
  -2  18 -11    2.93    1.05
   3  18 -11    8.61    1.31
  -3  18 -11    6.03    1.19
   3  18  11    9.35    1.33
   4  18 -11    9.54    1.49
  -4  18 -11   11.66    1.47
   4  18  11   10.46    1.41
   5  18 -11    0.23    1.05
  -5  18 -11    0.40    0.87
   5  18  11    0.86    0.94
   6  18 -11    5.49    1.33
  -6  18 -11    6.86    1.21
   6  18  11    4.51    1.12
   7  18 -11    4.52    1.28
  -7  18 -11    4.64    1.10
   7  18  11    2.66    1.04
   8  18 -11    2.93    1.29
   8  18  11    3.41    1.09
  -8  18 -11    6.42    1.17
   9  18 -11    0.30    1.10
  -9  18 -11   -1.64    0.80
   0  19 -11    6.56    1.29
   0  19  11    6.36    1.25
   1  19 -11    8.31    1.36
   1  19  11    7.23    1.31
  -1  19 -11    8.70    1.35
   2  19 -11    2.22    1.02
   2  19  11    1.26    1.01
  -2  19 -11    1.27    0.98
   3  19 -11    9.28    1.46
  -3  19 -11   12.29    1.49
   3  19  11    9.73    1.40
   4  19 -11    2.10    1.14
   4  19  11    3.64    1.11
  -4  19 -11    3.13    1.06
   5  19 -11    2.16    1.21
   5  19  11    3.33    1.08
  -5  19 -11    4.22    1.16
   6  19 -11    1.15    1.18
   6  19  11    1.68    1.01
  -6  19 -11    1.61    1.01
   7  19 -11   -0.73    1.08
   7  19  11    1.30    0.95
  -7  19 -11    1.23    0.98
   8  19 -11   -1.99    1.03
   8  19  11   -0.25    0.90
  -8  19 -11   -0.06    0.94
   9  19 -11    0.92    1.26
  -9  19 -11    1.37    0.99
   0  20  11    0.08    0.94
   0  20 -11   -0.98    0.93
   1  20 -11    0.87    1.06
  -1  20  11    0.62    1.00
  -1  20 -11    2.02    1.07
   1  20  11    2.05    1.05
   2  20 -11    3.80    1.20
   2  20  11    4.42    1.15
  -2  20 -11    3.03    1.17
   3  20 -11    0.82    1.06
  -3  20 -11    1.78    1.01
   3  20  11    0.17    1.02
   4  20 -11   -0.88    0.93
   4  20  11   -1.39    0.92
  -4  20 -11    0.58    1.00
   5  20 -11    7.12    1.46
  -5  20 -11    4.50    1.18
   5  20  11    3.16    1.14
   6  20 -11    0.34    1.13
   6  20  11    1.27    1.02
  -6  20 -11    2.63    1.11
   7  20 -11    1.97    1.23
   7  20  11    2.84    1.07
  -7  20 -11    3.69    1.15
   8  20 -11   -1.30    1.10
  -8  20 -11   -0.73    0.94
   0  21 -11    2.50    1.14
   0  21  11   -0.51    0.91
   1  21 -11    7.49    1.41
  -1  21  11    8.83    1.42
  -1  21 -11    8.21    1.41
   1  21  11    5.94    1.30
   2  21 -11    0.29    1.01
  -2  21  11   -0.50    0.89
   2  21  11    1.01    0.99
  -2  21 -11   -0.40    0.95
   3  21 -11    1.30    1.10
  -3  21 -11   -1.03    0.91
   3  21  11    1.55    1.03
   4  21 -11    1.14    1.13
  -4  21 -11    0.96    0.98
   4  21  11    0.87    1.11
   5  21 -11    1.18    1.18
   5  21  11    2.51    1.11
  -5  21 -11    1.70    1.06
   6  21 -11   -1.19    1.06
   6  21  11   -0.05    1.00
  -6  21 -11    0.77    1.04
   7  21 -11   -0.25    1.16
  -7  21 -11   -0.53    0.97
   7  21  11    1.45    1.06
   0  22  11    1.13    1.04
   0  22 -11    0.72    1.11
   1  22 -11    1.61    1.20
  -1  22  11    2.91    1.18
   1  22  11    1.84    1.09
  -1  22 -11    0.49    1.05
  -2  22  11    1.30    1.09
   2  22 -11    1.88    1.11
   2  22  11    0.17    1.02
  -2  22 -11    1.57    1.13
   3  22 -11    1.91    1.17
   3  22  11    0.38    1.11
  -3  22 -11    0.20    1.01
   4  22 -11    2.20    1.18
  -4  22 -11    0.80    1.07
   4  22  11    0.37    1.12
   5  22 -11    1.33    1.22
  -5  22 -11   -0.87    0.97
   5  22  11   -0.13    1.07
   6  22 -11    1.93    1.28
  -6  22 -11    1.73    1.15
   6  22  11    0.83    1.09
   0  23 -11    3.62    1.32
   0  23  11    3.85    1.29
   1  23 -11    1.41    1.18
  -1  23  11   -1.01    1.01
   1  23  11    0.63    1.08
  -1  23 -11    0.09    1.10
  -2  23  11    2.59    1.26
   2  23 -11    3.28    1.28
  -2  23 -11    2.21    1.19
   2  23  11    2.64    1.19
  -3  23  11   -0.97    0.98
   3  23 -11    2.24    1.28
  -3  23 -11    1.51    1.17
   3  23  11    0.60    1.11
   4  23 -11    0.66    1.24
  -4  23  11    3.53    1.22
   4  23  11    2.60    1.19
  -4  23 -11    1.36    1.20
   5  23 -11    0.52    1.27
  -5  23 -11    1.83    1.13
   5  23  11   -0.60    1.12
   0  24  11   -0.56    1.07
   0  24 -11    1.30    1.25
   1  24 -11    0.69    1.21
  -1  24  11    0.76    1.17
   1  24  11   -0.50    1.10
  -1  24 -11    0.17    1.15
   2  24 -11    2.18    1.26
  -2  24  11    0.67    1.17
  -2  24 -11    1.18    1.21
   2  24  11    0.39    1.17
  -3  24  11    2.22    1.23
   3  24 -11    2.81    1.38
  -3  24 -11    1.76    1.27
   3  24  11   -0.27    1.18
   0   0 -12  127.24    5.50
   1   0 -12   88.80    4.01
  -1   0 -12   92.06    3.94
  -2   0 -12    2.33    0.30
   2   0 -12    0.08    0.22
  -3   0 -12    5.46    0.37
   3   0 -12    4.46    0.59
   4   0 -12   19.55    1.20
   5   0 -12  211.20    9.21
   6   0 -12    4.07    0.76
   7   0 -12   22.05    1.52
   8   0 -12    3.25    0.81
   9   0 -12   42.91    2.47
  10   0 -12    8.67    1.22
  11   0 -12    3.08    1.03
  12   0 -12   -2.13    0.73
  13   0 -12    3.91    1.15
  14   0 -12    1.20    0.96
   0  -1 -12  104.95    4.43
   0   1 -12   97.74    4.43
   1   1 -12  156.75    6.91
  -1  -1 -12  160.29    6.83
  -1   1 -12  162.87    6.85
   1  -1 -12  160.27    6.91
   2   1 -12    0.39    0.26
  -2  -1 -12    3.02    0.32
   2  -1 -12    1.16    0.32
  -2   1 -12    2.59    0.33
   3   1 -12   91.20    4.73
   3  -1 -12  110.90    4.78
  -3   1 -12  117.88    4.57
   4   1 -12   60.96    2.96
   4  -1 -12   62.56    2.96
   5   1 -12   64.78    3.03
   5  -1 -12   58.51    2.97
   6   1 -12   18.33    1.31
   6  -1 -12   18.29    1.26
   7   1 -12    4.04    0.81
   7  -1 -12    4.83    0.84
   8   1 -12   16.70    1.36
   8  -1 -12   16.90    1.36
   9   1 -12    8.61    1.14
   9  -1 -12    8.05    1.09
  10   1 -12    4.66    1.03
  10  -1 -12    5.10    1.04
  11   1 -12    4.03    1.07
  11  -1 -12    5.71    1.09
  12   1 -12    1.68    0.95
  12  -1 -12    0.75    0.88
  13   1 -12    2.77    1.08
  13  -1 -12    0.33    0.95
  14   1 -12    2.46    1.05
  14  -1 -12    1.76    1.00
   0  -2 -12   -0.11    0.29
   0   2 -12   -0.62    0.34
  -1  -2 -12   32.67    1.61
   1  -2 -12   33.81    1.68
  -1   2 -12   36.47    1.67
   2   2 -12   59.41    2.85
   2  -2 -12   54.96    2.82
  -2   2 -12   69.32    2.75
   3   2 -12  103.19    5.16
  -3   2 -12  127.03    5.01
   3  -2 -12  118.78    5.18
   4   2 -12   80.92    3.78
  -4   2 -12   80.42    3.50
   4  -2 -12   84.13    3.78
   5   2 -12   31.34    1.80
   5  -2 -12   31.51    1.78
   6   2 -12   58.46    2.90
   6  -2 -12   57.08    2.89
   7   2 -12   31.08    1.83
   7  -2 -12   28.33    1.79
   8   2 -12   11.88    1.22
   8  -2 -12   12.06    1.23
   9   2 -12    5.48    0.97
   9  -2 -12    4.08    0.92
  10   2 -12   14.41    1.46
  10  -2 -12   12.86    1.40
  11   2 -12    4.38    1.07
  11  -2 -12    4.67    1.06
  12   2 -12    3.19    1.04
  12  -2 -12    2.34    1.04
  13   2 -12    0.21    0.94
  13  -2 -12   -0.08    0.87
  14   2 -12    0.67    0.95
  14  -2 -12    1.38    0.95
   0  -3 -12  113.87    4.92
   0   3 -12  111.55    4.94
   1   3 -12    0.09    0.20
   1  -3 -12    0.12    0.22
  -1   3 -12    1.26    0.38
   2   3 -12  202.09    8.61
  -2   3 -12  196.59    8.48
   2  -3 -12  198.63    8.58
   3   3 -12   35.44    1.98
   3  -3 -12   40.34    2.02
  -3   3 -12   42.55    1.86
   4   3 -12   63.65    2.97
   4  -3 -12   55.76    2.89
   4   3  12   62.53    2.65
  -4   3 -12   61.84    2.70
   5   3 -12    9.47    0.98
   5  -3 -12   10.34    0.93
  -5   3 -12    9.96    0.61
   6   3 -12   29.77    1.79
   6  -3 -12   30.60    1.78
   7   3 -12   23.23    1.54
   7  -3 -12   19.90    1.51
   8   3 -12    2.01    0.80
   8  -3 -12    0.43    0.67
   9   3 -12   13.76    1.36
   9  -3 -12   12.95    1.33
  10   3 -12    3.47    0.95
  10  -3 -12    2.49    0.91
  11   3 -12    8.44    1.31
  11  -3 -12    6.36    1.20
  12   3 -12    7.29    1.24
  12  -3 -12    6.50    1.22
  13   3 -12    0.16    0.95
  13  -3 -12    0.80    0.88
  14   3 -12    0.22    0.93
   0   4 -12    0.16    0.38
   1   4 -12   11.59    0.82
   2   4 -12   18.99    1.19
  -2   4 -12   17.51    1.07
   2  -4 -12   19.02    1.13
   3   4 -12   31.93    1.88
   3  -4 -12   40.75    1.96
  -3   4 -12   40.25    1.82
   4   4 -12   71.35    3.39
   4   4  12   74.38    3.11
  -4   4 -12   72.79    3.16
   4  -4 -12   64.35    3.31
   5   4 -12    1.86    0.63
   5  -4 -12    0.15    0.44
  -5   4 -12    1.26    0.37
   5   4  12    1.81    0.32
   6   4 -12   20.84    1.44
   6  -4 -12   21.10    1.41
  -6   4 -12   19.36    1.06
   7   4 -12    7.29    0.99
   7  -4 -12    9.28    1.05
  -7   4 -12    8.08    0.64
   8   4 -12   27.58    1.80
   8  -4 -12   26.34    1.77
   9   4 -12    4.79    0.98
   9  -4 -12    5.79    1.03
  10   4 -12    1.86    0.86
  10  -4 -12    1.31    0.86
  11   4 -12    2.86    1.04
  11  -4 -12    5.83    1.08
  12   4 -12    4.97    1.19
  12  -4 -12    4.94    1.18
  13   4 -12    2.42    1.06
  14   4 -12   -0.85    0.89
   1   5 -12   28.44    1.46
  -1   5 -12   22.17    1.34
   2   5 -12   17.80    1.21
  -2   5 -12   18.61    1.09
   3   5 -12   13.74    1.07
  -3   5 -12   18.94    1.06
   3  -5 -12   19.70    1.14
   4   5 -12   34.10    1.90
   4   5  12   34.22    1.64
  -4   5 -12   33.67    1.69
   5   5 -12    8.10    0.96
   5  -5 -12    6.44    0.85
   5   5  12    7.88    0.64
  -5   5 -12    8.80    0.70
   6   5 -12    4.15    0.83
   6  -5 -12    4.45    0.78
  -6   5 -12    5.13    0.56
   6   5  12    4.48    0.50
   7   5 -12   16.55    1.36
  -7   5 -12   15.13    0.96
   7  -5 -12   16.52    1.29
   8   5 -12   13.66    1.38
   8  -5 -12   13.91    1.29
   9   5 -12    7.67    1.17
   9  -5 -12    8.30    1.12
  10   5 -12    2.40    0.89
  10  -5 -12    1.63    0.82
  11   5 -12    0.09    0.85
  12   5 -12    4.77    1.10
  13   5 -12    1.30    0.96
  14   5 -12    1.70    1.08
   0   6 -12   46.19    2.30
   1   6 -12   46.69    2.35
   2   6 -12   68.45    3.26
   3   6 -12   23.45    1.38
   4   6 -12   15.97    1.15
  -4   6 -12   14.72    0.99
   4   6  12   14.57    0.93
   5   6 -12   21.84    1.45
  -5   6 -12   17.90    1.14
   5   6  12   19.13    1.10
   6   6 -12   11.11    1.14
  -6   6 -12    9.89    0.80
   6  -6 -12   11.69    0.98
   6   6  12    8.49    0.77
   7   6 -12   19.77    1.50
   7   6  12   18.31    1.10
  -7   6 -12   20.27    1.15
   8   6 -12   -0.16    0.76
  -8   6 -12    1.62    0.49
   9   6 -12   10.67    1.31
  10   6 -12    2.93    0.97
  11   6 -12   10.60    1.40
  12   6 -12    0.95    0.95
  13   6 -12    0.98    0.93
  14   6 -12    1.73    1.08
   0   7 -12    1.68    0.57
   1   7 -12   40.52    2.08
  -1   7 -12   37.99    2.01
   2   7 -12   58.81    2.84
  -2   7 -12   56.02    2.74
  -3   7 -12    2.17    0.45
   4   7 -12    2.81    0.68
   4   7  12    2.16    0.49
   5   7 -12   27.35    1.72
   5   7  12   25.35    1.42
   6   7 -12   21.30    1.58
   6   7  12   22.48    1.29
   7   7 -12    1.33    0.80
   7   7  12    2.08    0.57
   8   7 -12    0.24    0.79
  -8   7 -12    0.67    0.22
   9   7 -12    2.09    0.92
  10   7 -12    9.03    1.32
  11   7 -12    3.55    1.03
  12   7 -12    1.10    0.95
  13   7 -12    1.57    1.04
   0   8 -12   55.56    2.73
   1   8 -12   15.43    1.15
  -1   8 -12   13.27    1.06
   2   8 -12    4.64    0.79
  -2   8 -12    4.94    0.70
   3   8 -12    0.08    0.25
  -3   8 -12   -0.17    0.50
   4   8 -12    8.93    1.03
   4   8  12    9.81    0.85
  -4   8 -12    9.99    0.91
   5   8 -12   38.61    2.20
   5   8  12   37.09    1.95
  -5   8 -12   38.44    2.00
   6   8 -12    8.34    1.09
  -6   8 -12    7.87    0.84
   6   8  12    7.70    0.85
   7   8 -12    3.60    0.95
   7   8  12    2.13    0.66
  -7   8 -12    3.43    0.66
   8   8 -12    2.62    0.90
  -8   8 -12    3.09    0.63
   9   8 -12    6.22    1.15
  10   8 -12   11.80    1.47
  11   8 -12    0.49    0.92
  12   8 -12   -0.17    0.88
  13   8 -12   -0.37    0.95
   0   9 -12  120.48    5.45
   1   9 -12   38.58    2.04
  -1   9 -12   33.90    1.96
   2   9 -12    1.61    0.71
  -2   9 -12    3.30    0.69
  -3   9 -12    5.91    0.81
   4   9 -12   27.66    1.74
   4   9  12   24.75    1.48
  -4   9 -12   25.87    1.55
   5   9 -12    9.13    1.17
  -5   9 -12   10.49    1.01
   5   9  12    9.02    0.92
   6   9 -12    2.53    0.88
   6   9  12    2.29    0.62
  -6   9 -12    2.16    0.65
   7   9 -12    1.96    0.88
   7   9  12    1.92    0.67
  -7   9 -12    2.47    0.67
   8   9 -12    4.08    1.06
  -8   9 -12    7.27    0.83
   9   9 -12    5.84    1.12
  10   9 -12   -0.60    0.91
  11   9 -12    0.42    0.94
  12   9 -12    0.89    1.03
  13   9 -12   -1.26    0.92
   0  10 -12    5.52    0.85
   1  10 -12   19.92    1.42
  -1  10 -12   19.29    1.38
   2  10 -12   32.79    1.95
  -2  10 -12   30.94    1.84
   3  10  12   12.99    1.07
  -3  10 -12   13.00    1.15
  -4  10 -12   15.67    1.24
   4  10  12   17.15    1.23
   5  10 -12    4.22    0.99
  -5  10 -12    3.53    0.76
   5  10  12    3.17    0.69
   6  10 -12    7.37    1.15
  -6  10 -12    7.37    0.92
   6  10  12    7.35    0.90
   7  10 -12    3.59    0.99
  -7  10 -12    5.05    0.79
   7  10  12    2.75    0.74
   8  10 -12    7.91    1.25
  -8  10 -12    7.35    0.90
   9  10 -12    4.56    1.13
  10  10 -12    0.38    0.90
  11  10 -12    0.36    0.92
  12  10 -12    2.79    1.13
  13  10 -12    2.64    1.17
   0  11 -12    1.85    0.74
   1  11 -12   14.67    1.25
  -1  11 -12   12.79    1.26
   2  11 -12   26.43    1.74
  -2  11 -12   24.12    1.63
   3  11  12   12.32    1.05
  -3  11 -12   11.99    1.11
  -4  11 -12    2.03    0.72
   4  11  12    1.14    0.65
   5  11 -12    3.14    0.94
  -5  11 -12    1.60    0.71
   5  11  12    1.67    0.68
   6  11 -12   -0.77    0.81
  -6  11 -12    0.11    0.65
   6  11  12   -0.83    0.62
   7  11 -12    4.34    1.06
  -7  11 -12    4.30    0.83
   7  11  12    3.14    0.80
   8  11 -12    2.47    0.99
  -8  11 -12    2.68    0.77
   9  11 -12    1.56    1.01
  10  11 -12   -0.59    0.93
  11  11 -12   -0.51    0.91
  12  11 -12    1.13    1.04
   0  12 -12   16.96    1.41
   1  12 -12   16.71    1.37
  -1  12 -12   13.78    1.30
   2  12 -12    9.88    1.16
  -2  12 -12    8.70    1.07
   3  12  12   12.07    1.10
  -3  12 -12   12.93    1.24
   4  12 -12    0.40    0.54
   4  12  12    1.87    0.73
  -4  12 -12    2.35    0.78
   5  12 -12    3.12    1.03
  -5  12 -12    4.05    0.84
   5  12  12    3.12    0.80
   6  12 -12    1.54    0.95
  -6  12 -12    1.98    0.73
   6  12  12    1.37    0.75
   7  12 -12    4.86    1.13
  -7  12 -12    4.07    0.85
   7  12  12    3.02    0.83
   8  12 -12    1.26    0.98
  -8  12 -12    2.26    0.80
   9  12 -12    4.17    1.11
  10  12 -12    0.91    1.09
  11  12 -12    2.37    1.17
  12  12 -12   -1.77    0.95
   0  13 -12    4.65    0.99
   1  13 -12   12.28    1.34
  -1  13 -12   12.92    1.30
   2  13 -12    7.84    1.12
  -2  13 -12    6.75    1.06
   3  13  12    1.93    0.75
  -3  13 -12    3.48    0.85
   4  13 -12    2.19    0.95
   4  13  12    3.62    0.83
  -4  13 -12    1.76    0.84
   5  13 -12   22.07    1.78
  -5  13 -12   20.73    1.56
   5  13  12   20.36    1.52
   6  13 -12    7.61    1.30
  -6  13 -12   11.64    1.18
   6  13  12    6.98    1.07
   7  13 -12    0.70    0.97
  -7  13 -12    0.87    0.75
   7  13  12    0.49    0.74
   8  13 -12    1.74    1.06
  -8  13 -12    3.71    0.83
   9  13 -12    2.24    1.07
  10  13 -12    1.32    1.05
  11  13 -12    0.44    1.09
  12  13 -12   -1.32    1.07
   0  14 -12    7.09    1.14
   1  14 -12    2.17    0.92
  -1  14 -12    2.10    0.87
   2  14 -12    0.40    0.86
  -2  14 -12    0.17    0.79
   2  14  12    0.41    0.74
   3  14 -12    0.59    0.87
   3  14  12    0.39    0.73
  -3  14 -12   -0.71    0.71
   4  14 -12    1.82    0.97
   4  14  12    3.31    0.90
  -4  14 -12    1.53    0.85
   5  14 -12    2.54    1.03
   5  14  12    0.94    0.79
  -5  14 -12    2.27    0.81
   6  14 -12    2.25    1.06
  -6  14 -12    1.87    0.84
   6  14  12    1.75    0.79
   7  14 -12    1.79    1.08
  -7  14 -12    2.56    0.83
   7  14  12    2.46    0.90
   8  14 -12    0.40    1.00
  -8  14 -12    2.18    0.86
   9  14 -12   -1.47    0.93
  -9  14 -12    0.43    0.74
  10  14 -12   -0.94    0.99
  11  14 -12    0.77    1.08
   0  15 -12   -0.71    0.79
   1  15 -12    1.16    0.89
  -1  15 -12    0.61    0.89
   2  15 -12    5.28    1.10
   2  15  12    6.45    1.06
  -2  15 -12    6.49    1.12
   3  15 -12    1.09    0.90
  -3  15 -12    1.05    0.83
   3  15  12    1.89    0.88
   4  15 -12    3.41    1.05
   4  15  12    4.73    0.99
  -4  15 -12    3.25    0.98
   5  15 -12    1.34    1.01
   5  15  12    0.44    0.79
  -5  15 -12    1.62    0.84
   6  15 -12    0.76    0.98
   6  15  12    0.17    0.79
  -6  15 -12    1.17    0.82
   7  15 -12    4.44    1.24
  -7  15 -12    5.19    1.02
   7  15  12    3.24    0.99
   8  15 -12    2.63    1.18
  -8  15 -12    0.94    0.83
   9  15 -12    0.16    1.06
  -9  15 -12    1.25    0.83
  10  15 -12    0.81    1.14
  11  15 -12    1.79    1.22
   0  16 -12   -1.18    0.80
   1  16 -12    1.57    0.95
  -1  16 -12    0.24    0.84
   2  16 -12    1.29    0.92
  -2  16 -12    1.54    0.93
   2  16  12    1.13    0.85
   3  16 -12    0.93    0.95
  -3  16 -12    1.51    0.87
   3  16  12    1.46    0.92
   4  16 -12    2.33    1.07
   4  16  12    2.71    0.94
  -4  16 -12    1.74    0.92
   5  16 -12   -0.44    0.92
   5  16  12   -0.67    0.80
  -5  16 -12   -0.16    0.77
   6  16 -12    0.27    1.01
  -6  16 -12    1.33    0.87
   6  16  12    0.46    0.83
   7  16 -12   -0.06    1.06
  -7  16 -12    2.68    0.91
   7  16  12    0.66    0.87
   8  16 -12    2.73    1.17
  -8  16 -12    4.02    1.00
   9  16 -12    2.68    1.17
  -9  16 -12    1.27    0.93
  10  16 -12    0.81    1.09
   0  17 -12    0.09    0.91
   1  17 -12   -0.56    0.86
  -1  17 -12   -0.13    0.85
   1  17  12    1.79    0.95
   2  17 -12    6.08    1.18
   2  17  12    4.56    1.04
  -2  17 -12    5.50    1.14
   3  17 -12    0.90    1.00
  -3  17 -12    0.57    0.92
   3  17  12    1.23    0.88
   4  17 -12    2.45    1.06
  -4  17 -12    1.12    0.87
   4  17  12    0.37    0.88
   5  17 -12    0.96    1.07
   5  17  12    1.79    0.88
  -5  17 -12    1.40    0.96
   6  17 -12    0.81    1.09
   6  17  12    1.29    0.90
  -6  17 -12    2.95    1.00
   7  17 -12    2.29    1.14
   7  17  12    1.32    0.96
  -7  17 -12    1.20    0.90
   8  17 -12    2.13    1.18
  -8  17 -12    0.24    0.90
   9  17 -12    2.07    1.17
  -9  17 -12    0.58    0.94
  10  17 -12   -0.72    1.08
   0  18 -12    0.08    0.94
   1  18 -12   -0.09    0.95
  -1  18 -12    1.20    1.00
   1  18  12    1.19    0.94
   2  18 -12    1.58    0.98
  -2  18 -12    2.80    1.06
   2  18  12    2.43    1.03
   3  18 -12    1.93    1.07
   3  18  12   -0.08    0.92
  -3  18 -12    1.77    0.94
   4  18 -12    0.56    1.01
  -4  18 -12   -0.79    0.79
   4  18  12    0.83    0.93
   5  18 -12    1.90    1.14
  -5  18 -12    1.15    0.95
   5  18  12    2.82    1.01
   6  18 -12    3.34    1.29
   6  18  12    4.08    1.05
  -6  18 -12    5.41    1.14
   7  18 -12   -0.74    1.01
  -7  18 -12    1.39    0.93
   7  18  12    2.18    1.03
   8  18 -12    0.21    1.13
  -8  18 -12   -0.37    0.87
   9  18 -12    0.19    1.18
  -9  18 -12    0.48    0.90
   0  19 -12    2.83    1.13
   0  19  12    2.66    1.03
   1  19 -12    2.72    1.07
  -1  19 -12    2.88    1.08
   1  19  12    4.73    1.17
   2  19 -12    0.03    0.90
  -2  19 -12    0.40    0.91
   2  19  12    0.38    0.96
   3  19 -12    4.58    1.21
   3  19  12    1.82    1.00
  -3  19 -12    3.28    1.06
   4  19 -12    2.38    1.12
   4  19  12    3.18    1.11
  -4  19 -12    2.91    1.08
   5  19 -12    1.89    1.18
  -5  19 -12    1.37    0.95
   5  19  12    1.15    0.93
   6  19 -12   -0.03    1.13
   6  19  12    2.77    1.04
  -6  19 -12    1.93    1.03
   7  19 -12    0.19    1.11
  -7  19 -12    0.20    0.93
   7  19  12    1.10    0.96
   8  19 -12    2.39    1.34
  -8  19 -12    2.34    1.04
   9  19 -12    1.70    1.24
  -9  19 -12    0.36    0.93
   0  20 -12    9.27    1.49
   0  20  12    8.34    1.38
   1  20 -12    0.85    1.02
  -1  20  12    1.20    1.01
   1  20  12    0.84    0.96
  -1  20 -12    2.16    1.07
   2  20 -12    0.81    0.96
  -2  20 -12   -0.35    0.94
   2  20  12    1.17    1.04
   3  20 -12   -0.40    0.94
  -3  20 -12    0.77    1.02
   3  20  12    0.70    0.97
   4  20 -12    3.77    1.23
  -4  20 -12    2.97    1.06
   4  20  12    1.59    1.02
   5  20 -12    4.37    1.35
   5  20  12    5.37    1.19
  -5  20 -12    6.11    1.26
   6  20 -12   -0.52    1.08
  -6  20 -12    0.01    0.93
   6  20  12    0.33    0.99
   7  20 -12    1.39    1.22
  -7  20 -12    0.92    0.98
   7  20  12    1.59    1.05
   8  20 -12   -1.68    1.19
  -8  20 -12    1.61    1.04
   0  21  12    1.42    1.12
   0  21 -12    2.37    1.17
  -1  21  12    3.58    1.14
   1  21 -12    3.61    1.23
  -1  21 -12    3.17    1.14
   1  21  12    2.79    1.13
   2  21 -12    0.39    1.02
  -2  21 -12    0.27    0.98
   2  21  12   -0.09    0.90
   3  21 -12    2.63    1.17
  -3  21 -12    4.11    1.21
   3  21  12    2.60    1.12
   4  21 -12   -0.68    1.07
  -4  21 -12    0.63    0.97
   4  21  12    0.65    1.03
   5  21 -12    1.14    1.18
  -5  21 -12    2.47    1.16
   5  21  12    3.57    1.15
   6  21 -12    0.80    1.22
  -6  21 -12   -0.19    0.93
   6  21  12    1.08    0.98
   7  21 -12    1.24    1.26
  -7  21 -12    0.07    0.99
   7  21  12    0.45    1.03
   0  22 -12    0.63    1.10
   0  22  12    0.79    1.05
  -1  22  12    2.33    1.12
   1  22 -12    1.87    1.17
   1  22  12    1.34    1.12
  -1  22 -12   -0.07    1.04
   2  22 -12    1.67    1.12
  -2  22  12    0.34    1.03
  -2  22 -12    1.95    1.14
   2  22  12    3.80    1.23
   3  22 -12    1.98    1.17
   3  22  12    1.59    1.11
  -3  22 -12    3.19    1.21
   4  22 -12    1.11    1.16
  -4  22 -12    1.04    1.03
   4  22  12   -0.79    0.98
   5  22 -12    2.62    1.33
  -5  22 -12    1.51    1.10
   5  22  12   -1.08    0.95
   6  22 -12    0.95    1.35
  -6  22 -12    0.85    1.09
   6  22  12    0.69    1.09
   0  23  12    2.68    1.24
   0  23 -12    1.50    1.22
   1  23 -12    0.35    1.08
  -1  23  12   -0.08    1.04
   1  23  12    1.10    1.10
  -1  23 -12   -0.56    1.07
  -2  23  12    4.77    1.36
   2  23 -12    6.82    1.48
  -2  23 -12    4.99    1.34
   2  23  12    5.47    1.35
   3  23 -12    4.62    1.40
  -3  23  12    1.99    1.20
   3  23  12    3.66    1.34
  -3  23 -12    1.69    1.27
   4  23 -12    0.28    1.20
  -4  23 -12    0.62    1.13
   4  23  12   -0.09    1.14
   5  23 -12   -0.94    1.21
   0  24 -12    1.37    1.18
   0  24  12   -1.52    1.08
  -1  24  12    1.59    1.20
   1  24 -12    1.83    1.27
   1  24  12    2.67    1.30
  -1  24 -12    4.11    1.39
   2  24 -12    0.43    1.22
  -2  24  12    3.48    1.33
  -2  24 -12    2.31    1.23
   2  24  12    3.40    1.26
   3  24 -12    0.70    1.23
  -3  24 -12    1.38    1.19
   0   0 -13    0.36    0.33
   1   0 -13    2.15    0.38
   2   0 -13    8.18    0.76
  -2   0 -13    7.94    0.56
   3   0 -13   16.83    1.18
  -3   0 -13   20.33    0.93
   5   0 -13    3.05    0.61
   6   0 -13   10.11    1.05
   7   0 -13   11.92    1.18
   8   0 -13    1.01    0.73
   9   0 -13    2.30    0.80
  10   0 -13    0.44    0.78
  11   0 -13    5.88    1.12
  12   0 -13   -0.35    0.92
  13   0 -13    1.07    0.92
  14   0 -13    1.13    1.03
   0   1 -13    7.38    0.59
   0  -1 -13    5.74    0.58
  -1  -1 -13   37.96    1.79
  -1   1 -13   38.77    1.82
  -2  -1 -13   23.19    1.26
   2   1 -13   29.48    1.47
   2  -1 -13   24.71    1.43
  -2   1 -13   29.23    1.29
   3   1 -13   14.06    1.02
   3  -1 -13   15.02    1.04
  -3   1 -13   14.65    0.77
   4   1 -13    0.64    0.37
   4  -1 -13    0.30    0.24
   5   1 -13    2.20    0.60
   5  -1 -13    3.42    0.64
   6   1 -13    1.52    0.70
   6  -1 -13    2.34    0.69
   7   1 -13    0.29    0.64
   7  -1 -13    0.09    0.62
   8   1 -13    9.82    1.15
   8  -1 -13    9.85    1.15
   9   1 -13    5.50    1.01
   9  -1 -13    5.14    1.02
  10   1 -13    0.29    0.82
  10  -1 -13    0.12    0.77
  11   1 -13    1.82    0.93
  11  -1 -13    0.32    0.91
  12   1 -13    3.92    1.12
  12  -1 -13    3.92    1.13
  13   1 -13    1.80    0.99
  13  -1 -13    1.62    1.00
  14   1 -13    0.41    1.01
  14  -1 -13    0.48    0.94
   0   2 -13   -0.41    0.34
   0  -2 -13   -0.03    0.29
   2   2 -13   62.98    2.89
   2  -2 -13   60.92    2.87
  -2   2 -13   60.44    2.74
   3   2 -13   33.31    1.74
   3  -2 -13   31.01    1.70
  -3   2 -13   31.88    1.50
  -4   2 -13   32.28    1.47
   5   2 -13    3.47    0.71
   5  -2 -13    2.71    0.63
   6   2 -13   37.00    2.04
   6  -2 -13   33.90    1.99
   7   2 -13    7.50    1.00
   7  -2 -13    7.21    0.95
   8   2 -13    0.43    0.73
   8  -2 -13    1.12    0.71
   9   2 -13    1.24    0.81
   9  -2 -13    2.49    0.86
  10   2 -13   11.29    1.36
  10  -2 -13   11.63    1.33
  11   2 -13    2.25    1.01
  11  -2 -13    2.67    0.94
  12   2 -13    0.55    0.97
  12  -2 -13   -1.10    0.87
  13   2 -13    1.29    0.97
  13  -2 -13    0.31    0.96
  14   2 -13    1.23    1.03
  14  -2 -13    1.84    1.01
   0   3 -13   13.59    0.89
   0  -3 -13   11.89    0.80
   1   3 -13    7.80    0.71
   2   3 -13    1.11    0.51
  -2   3 -13    2.02    0.44
   2  -3 -13    1.76    0.47
   3   3 -13   35.98    1.94
  -3   3 -13   37.03    1.78
   3  -3 -13   40.05    1.97
   4   3 -13   27.65    1.81
   4   3  13   36.92    1.59
  -4   3 -13   38.52    1.65
   5   3 -13    2.92    0.70
  -5   3 -13    4.73    0.42
   5  -3 -13    2.88    0.65
   6   3 -13   17.74    1.33
   6  -3 -13   17.59    1.31
   7   3 -13   17.84    1.40
   7  -3 -13   18.09    1.38
   8   3 -13    2.66    0.83
   8  -3 -13    2.53    0.81
   9   3 -13    1.90    0.83
   9  -3 -13    1.10    0.79
  10   3 -13    2.82    0.96
  10  -3 -13    2.87    0.91
  11   3 -13    4.79    1.16
  11  -3 -13    5.27    1.14
  12   3 -13    0.12    0.89
  12  -3 -13    1.61    0.97
  13   3 -13    0.02    0.92
  13  -3 -13    0.29    0.87
  14   3 -13    2.67    1.13
   0   4 -13   -0.01    0.19
   1   4 -13   46.78    2.28
   1  -4 -13   44.61    2.21
  -1   4 -13   47.74    2.23
   2   4 -13   87.11    4.00
  -2   4 -13   89.51    3.90
   2  -4 -13   85.65    3.96
   3   4 -13   51.01    2.55
   3  -4 -13   53.42    2.55
  -3   4 -13   51.94    2.40
   4   4 -13   68.44    3.49
  -4   4 -13   77.11    3.32
   4   4  13   77.04    3.27
   5   4 -13   50.22    2.59
   5  -4 -13   45.74    2.53
  -5   4 -13   52.96    2.28
   6   4 -13    1.41    0.70
  -6   4 -13    1.33    0.38
   6  -4 -13    1.40    0.62
   7   4 -13    5.55    0.90
  -7   4 -13    4.78    0.48
   7  -4 -13    4.59    0.88
   8   4 -13    6.04    1.02
   8  -4 -13    5.74    0.97
   9   4 -13    3.80    0.93
   9  -4 -13    2.34    0.90
  10   4 -13    0.25    0.76
  10  -4 -13   -0.66    0.76
  11   4 -13   -0.47    0.82
  11  -4 -13    0.85    0.84
  12   4 -13   -0.15    0.96
  12  -4 -13    1.01    0.93
  13   4 -13   -0.45    0.84
  14   4 -13   -0.49    0.96
   0   5 -13  110.29    4.91
   1   5 -13   82.93    3.82
   2   5 -13    2.82    0.62
  -2   5 -13    2.90    0.52
   2  -5 -13    2.44    0.54
   3   5 -13   30.92    1.71
   3  -5 -13   33.48    1.71
  -3   5 -13   29.32    1.58
   4   5 -13   73.01    3.55
   4   5  13   77.29    3.30
  -4   5 -13   72.55    3.34
   5   5 -13   51.36    2.77
   5  -5 -13   54.57    2.76
   5   5  13   56.00    2.47
  -5   5 -13   54.69    2.51
   6   5 -13    9.38    1.08
   6  -5 -13    8.81    1.02
   6   5  13    9.69    0.67
  -6   5 -13   10.15    0.75
   7   5 -13    1.91    0.78
   7  -5 -13    1.39    0.68
  -7   5 -13    1.59    0.43
   8   5 -13    5.12    0.98
   8  -5 -13    7.82    1.02
   9   5 -13   16.46    1.50
   9  -5 -13   12.86    1.36
  10   5 -13    0.79    0.84
  10  -5 -13    2.60    0.89
  11   5 -13   -0.36    0.80
  11  -5 -13    0.48    0.82
  12   5 -13    2.42    0.98
  13   5 -13    2.71    1.05
  14   5 -13    0.32    0.97
   0   6 -13  124.93    5.56
   1   6 -13   60.42    2.93
  -1   6 -13   61.02    2.87
   2   6 -13    4.98    0.76
   3   6 -13   14.66    1.07
  -3   6 -13   13.52    0.92
   4   6 -13   50.72    2.71
   4   6  13   56.23    2.50
  -4   6 -13   54.36    2.56
   5   6 -13   23.56    1.59
   5  -6 -13   21.76    1.50
   5   6  13   24.07    1.26
  -5   6 -13   22.50    1.31
   6   6 -13    5.70    0.94
   6   6  13    5.03    0.56
   6  -6 -13    2.47    0.76
  -6   6 -13    3.85    0.58
   7   6 -13    9.56    1.15
   7  -6 -13    6.28    0.98
   7   6  13    7.46    0.64
  -7   6 -13    8.10    0.74
   8   6 -13    1.11    0.79
   8  -6 -13    0.28    0.69
   9   6 -13    2.23    0.92
  10   6 -13    7.70    1.23
  11   6 -13    0.30    0.83
  12   6 -13    1.67    0.96
  13   6 -13   -0.33    0.94
   0   7 -13    0.54    0.52
   1   7 -13    9.05    0.94
  -1   7 -13    9.48    0.89
   2   7 -13   77.23    3.55
  -2   7 -13   71.21    3.42
   3   7 -13    9.72    0.99
  -3   7 -13    6.97    0.76
   4   7 -13   29.22    1.85
   4   7  13   33.83    1.65
   5   7 -13   15.78    1.32
   5   7  13   14.36    0.99
   6   7 -13   31.53    1.93
   6   7  13   28.57    1.57
   7   7 -13    2.33    0.87
   7   7  13    2.47    0.56
  -7   7 -13    0.85    0.29
   8   7 -13   17.57    1.57
   9   7 -13    2.14    0.89
  10   7 -13   12.26    1.47
  11   7 -13    3.30    1.06
  12   7 -13    1.08    0.95
  13   7 -13    0.89    1.01
   0   8 -13   55.25    2.74
   1   8 -13   17.82    1.29
  -1   8 -13   18.55    1.23
   2   8 -13   91.40    4.29
  -2   8 -13   91.37    4.20
   3   8 -13   34.05    1.98
  -3   8 -13   34.92    1.86
   4   8 -13    9.96    1.09
  -4   8 -13   13.30    0.98
   4   8  13   10.71    0.91
   5   8 -13    8.55    1.07
  -5   8 -13    7.56    0.84
   5   8  13    7.70    0.79
   6   8 -13   24.20    1.67
  -6   8 -13   22.29    1.40
   6   8  13   22.23    1.35
   7   8 -13    5.46    1.08
  -7   8 -13    8.56    0.84
   7   8  13    8.29    0.83
   8   8 -13    3.41    0.99
  -8   8 -13    3.80    0.69
   9   8 -13    0.63    0.86
  10   8 -13    1.26    0.95
  11   8 -13    3.46    1.09
  12   8 -13    0.44    1.01
  13   8 -13   -0.36    0.91
   0   9 -13    9.28    1.00
   1   9 -13    0.59    0.62
  -1   9 -13    0.21    0.56
   2   9 -13    2.04    0.74
  -2   9 -13    2.22    0.69
   3   9 -13   42.22    2.31
  -3   9 -13   41.70    2.21
  -4   9 -13    9.37    0.95
   4   9  13    8.00    0.87
   5   9 -13   11.73    1.22
  -5   9 -13   10.05    1.00
   5   9  13   10.32    0.96
   6   9 -13   10.03    1.21
   6   9  13   10.73    0.99
  -6   9 -13   13.14    1.04
   7   9 -13   29.53    2.04
   7   9  13   32.82    1.75
  -7   9 -13   31.24    1.75
   8   9 -13    5.58    1.13
  -8   9 -13    7.96    0.88
   9   9 -13   10.58    1.39
  10   9 -13    1.10    0.95
  11   9 -13    4.33    1.16
  12   9 -13    6.25    1.31
  13   9 -13    1.04    1.07
   0  10 -13   16.40    1.28
   1  10 -13   57.54    2.80
  -1  10 -13   48.78    2.70
   2  10 -13    0.43    0.73
  -2  10 -13    0.65    0.66
  -3  10 -13   74.19    3.58
  -4  10 -13    5.41    0.84
   4  10  13    4.50    0.77
   5  10 -13   21.56    1.61
  -5  10 -13   17.81    1.29
   5  10  13   16.48    1.25
   6  10 -13    1.53    0.91
  -6  10 -13    2.90    0.74
   6  10  13    2.94    0.71
   7  10 -13    3.61    1.01
   7  10  13    2.95    0.72
  -7  10 -13    2.16    0.69
   8  10 -13    3.11    1.00
  -8  10 -13    2.96    0.72
   9  10 -13    6.05    1.23
  10  10 -13    1.47    1.04
  11  10 -13   -0.61    0.86
  12  10 -13    0.04    0.96
  13  10 -13    3.43    1.25
   0  11 -13   -1.61    0.61
   1  11 -13    7.85    1.05
  -1  11 -13    7.27    1.02
   2  11 -13    3.14    0.88
  -2  11 -13    1.73    0.77
   3  11  13   14.17    1.17
  -3  11 -13   14.13    1.25
   4  11  13    8.63    0.97
  -4  11 -13    7.15    0.96
   5  11 -13    8.46    1.22
   5  11  13    7.77    0.95
  -5  11 -13    7.67    1.00
   6  11 -13    2.40    0.95
  -6  11 -13    0.48    0.65
   6  11  13    0.59    0.68
   7  11 -13   27.39    2.01
  -7  11 -13   27.33    1.72
   7  11  13   28.79    1.72
   8  11 -13   10.22    1.43
  -8  11 -13   13.41    1.13
   9  11 -13   16.28    1.72
  10  11 -13    0.18    1.02
  11  11 -13    0.46    1.05
  12  11 -13    0.78    1.01
   0  12 -13   13.67    1.34
   1  12 -13   19.53    1.57
  -1  12 -13   23.65    1.66
   2  12 -13   61.91    3.28
  -2  12 -13   64.00    3.21
   3  12  13    7.19    0.97
  -3  12 -13    8.77    1.10
   4  12 -13    0.99    0.55
   4  12  13    7.55    0.93
  -4  12 -13    3.91    0.85
   5  12 -13    7.02    1.19
   5  12  13    5.77    0.90
  -5  12 -13    7.77    1.00
   6  12 -13    8.67    1.29
  -6  12 -13    9.63    1.12
   6  12  13   10.50    1.10
   7  12 -13    2.57    1.01
   7  12  13    1.08    0.76
  -7  12 -13    1.01    0.74
   8  12 -13    2.54    1.09
  -8  12 -13    4.25    0.88
   9  12 -13    0.43    0.99
  10  12 -13    1.04    1.01
  11  12 -13    1.04    1.03
  12  12 -13    1.14    1.09
   0  13 -13    4.82    0.99
   1  13 -13   -0.65    0.74
  -1  13 -13    1.15    0.77
   2  13 -13    6.89    1.10
  -2  13 -13    7.00    1.03
   3  13 -13    0.23    0.71
  -3  13 -13    0.67    0.73
   3  13  13    0.33    0.71
   4  13 -13   32.56    2.14
   4  13  13   31.11    1.92
  -4  13 -13   30.42    1.96
   5  13 -13    7.87    1.24
   5  13  13    5.19    0.93
  -5  13 -13    6.67    1.02
   6  13 -13   28.41    2.09
   6  13  13   26.83    1.75
  -6  13 -13   28.84    1.82
   7  13 -13   -0.33    0.93
  -7  13 -13    0.47    0.69
   7  13  13   -0.02    0.78
   8  13 -13   11.61    1.54
  -8  13 -13   13.32    1.29
   9  13 -13    2.03    1.08
  10  13 -13    7.65    1.42
  11  13 -13    0.66    1.08
  12  13 -13    1.14    1.14
   0  14 -13   72.06    3.71
   1  14 -13    7.02    1.14
  -1  14 -13    8.22    1.18
   2  14 -13   23.83    1.74
  -2  14 -13   22.76    1.71
   3  14 -13    4.89    1.11
   3  14  13    5.36    0.99
  -3  14 -13    5.21    1.04
   4  14 -13   29.26    2.05
  -4  14 -13   28.15    1.89
   4  14  13   27.31    1.83
   5  14 -13    2.22    1.06
  -5  14 -13    3.63    0.89
   5  14  13    4.09    0.89
   6  14 -13   -0.94    0.87
   6  14  13    0.96    0.77
  -6  14 -13   -0.46    0.73
   7  14 -13    5.31    1.24
   7  14  13    2.31    0.89
  -7  14 -13    3.43    0.89
   8  14 -13    0.18    1.00
  -8  14 -13    2.03    0.81
   9  14 -13    1.72    1.04
  10  14 -13   -1.09    1.03
  11  14 -13   -0.49    1.08
   0  15 -13    9.13    1.25
   1  15 -13   17.41    1.58
  -1  15 -13   17.68    1.60
   2  15 -13    0.36    0.93
  -2  15 -13    0.93    0.83
   2  15  13    0.12    0.81
   3  15 -13    0.81    0.91
  -3  15 -13   -1.33    0.82
   3  15  13    0.00    0.78
   4  15 -13   16.06    1.66
  -4  15 -13   14.72    1.46
   4  15  13   15.65    1.41
   5  15 -13   17.89    1.82
  -5  15 -13   20.65    1.59
   5  15  13   17.82    1.50
   6  15 -13    9.30    1.46
   6  15  13   10.21    1.20
  -6  15 -13   10.39    1.29
   7  15 -13    1.65    1.11
   7  15  13    2.56    0.95
  -7  15 -13    2.34    0.87
   8  15 -13    9.83    1.57
  -8  15 -13   11.92    1.31
   9  15 -13    3.63    1.23
  10  15 -13    0.83    1.10
  11  15 -13    0.07    1.12
   0  16 -13    2.09    0.97
   1  16 -13   20.18    1.79
  -1  16 -13   24.17    1.81
   2  16 -13   13.72    1.56
  -2  16 -13   16.01    1.58
   2  16  13   15.10    1.50
   3  16 -13   21.13    1.81
   3  16  13   21.31    1.66
  -3  16 -13   22.29    1.71
   4  16 -13   -1.01    0.91
  -4  16 -13    0.69    0.84
   4  16  13    0.52    0.82
   5  16 -13    7.61    1.36
  -5  16 -13    5.69    1.12
   5  16  13    5.88    1.07
   6  16 -13    3.58    1.19
   6  16  13    4.74    1.00
  -6  16 -13    4.43    1.03
   7  16 -13   -0.70    1.03
  -7  16 -13    1.90    0.88
   7  16  13    0.54    0.82
   8  16 -13   -0.12    1.02
  -8  16 -13    0.52    0.87
   9  16 -13   -0.30    1.06
  10  16 -13    0.24    1.17
   0  17 -13   -1.29    0.85
   1  17 -13    1.85    1.02
  -1  17 -13    1.65    0.95
   1  17  13    2.62    1.02
   2  17 -13    4.06    1.13
  -2  17 -13    6.32    1.20
   2  17  13    2.77    0.97
   3  17 -13   18.17    1.84
  -3  17 -13   19.51    1.66
   3  17  13   18.17    1.59
   4  17 -13    4.34    1.18
  -4  17 -13    2.39    0.95
   4  17  13    2.50    0.97
   5  17 -13    4.00    1.20
  -5  17 -13    2.01    0.98
   5  17  13    3.57    0.95
   6  17 -13    2.01    1.12
  -6  17 -13    1.31    0.90
   6  17  13    0.16    0.83
   7  17 -13   12.43    1.72
  -7  17 -13   13.04    1.48
   7  17  13   14.15    1.48
   8  17 -13    0.27    1.07
  -8  17 -13    1.09    0.89
   9  17 -13    2.11    1.19
  10  17 -13    1.14    1.20
   0  18 -13    1.84    1.06
   1  18 -13   15.41    1.70
  -1  18 -13   15.90    1.71
   1  18  13   17.51    1.73
   2  18 -13    6.91    1.32
   2  18  13    7.25    1.26
  -2  18 -13    6.38    1.28
   3  18 -13   12.68    1.60
   3  18  13   13.85    1.55
  -3  18 -13   14.06    1.59
   4  18 -13   -0.09    0.95
   4  18  13   -0.53    0.83
  -4  18 -13    0.32    0.85
   5  18 -13    2.24    1.15
  -5  18 -13    2.37    0.97
   5  18  13    2.54    1.00
   6  18 -13    0.66    1.08
   6  18  13    0.59    0.90
  -6  18 -13    0.85    0.93
   7  18 -13   -0.07    1.10
  -7  18 -13    1.18    0.96
   7  18  13    0.37    0.90
   8  18 -13    1.31    1.14
  -8  18 -13    0.74    0.92
   9  18 -13    0.25    1.11
   0  19 -13    1.71    1.07
   0  19  13    0.89    1.00
   1  19 -13   -0.43    0.88
   1  19  13    1.96    1.04
  -1  19 -13    0.64    0.98
   2  19 -13    3.78    1.12
  -2  19 -13    3.97    1.12
   2  19  13    2.73    1.08
   3  19 -13    2.55    1.05
   3  19  13   -0.63    0.91
  -3  19 -13    0.43    0.93
   4  19 -13    6.81    1.35
  -4  19 -13    5.27    1.17
   4  19  13    7.18    1.23
   5  19 -13    2.43    1.16
   5  19  13    2.19    1.02
  -5  19 -13    1.87    0.98
   6  19 -13    1.94    1.18
  -6  19 -13    3.29    1.05
   6  19  13    2.57    1.07
   7  19 -13   -0.94    1.06
   7  19  13    1.22    1.00
  -7  19 -13    0.98    0.97
   8  19 -13    2.52    1.35
  -8  19 -13    3.45    1.12
   0  20  13    9.31    1.43
   0  20 -13    8.95    1.45
   1  20 -13    0.95    1.05
  -1  20 -13   -0.55    0.93
   1  20  13   -1.55    0.84
   2  20 -13    5.21    1.27
   2  20  13    4.37    1.18
  -2  20 -13    3.23    1.15
   3  20 -13   -0.33    0.97
  -3  20 -13   -0.41    0.91
   3  20  13   -0.04    0.89
   4  20 -13    3.90    1.27
   4  20  13    4.57    1.16
  -4  20 -13    6.18    1.24
   5  20 -13    0.67    1.16
   5  20  13    1.71    0.95
  -5  20 -13    0.71    0.94
   6  20 -13    0.22    1.12
  -6  20 -13    1.56    1.03
   6  20  13   -1.24    0.86
   7  20 -13    0.57    1.18
   7  20  13    0.27    0.98
  -7  20 -13    2.74    1.09
   8  20 -13    0.29    1.22
  -8  20 -13   -0.55    0.96
   0  21  13    0.54    0.99
   0  21 -13    0.82    1.09
   1  21 -13    0.15    1.02
  -1  21  13   -0.83    0.94
  -1  21 -13   -0.16    1.03
   1  21  13   -0.27    0.97
   2  21 -13    0.67    1.03
  -2  21 -13    0.62    1.01
   2  21  13    2.62    1.15
   3  21 -13   -0.80    1.00
  -3  21 -13    1.05    1.06
   3  21  13    1.50    1.07
   4  21 -13    1.88    1.17
   4  21  13    2.36    1.13
  -4  21 -13    2.50    1.15
   5  21 -13    1.73    1.18
   5  21  13    1.40    1.05
  -5  21 -13    1.94    1.12
   6  21 -13    3.46    1.39
   6  21  13    4.12    1.21
  -6  21 -13    4.91    1.27
   7  21 -13    0.72    1.24
  -7  21 -13    0.33    1.03
   7  21  13    0.72    1.02
   0  22 -13    1.52    1.16
   0  22  13    3.32    1.21
   1  22 -13    1.42    1.18
  -1  22  13    0.38    1.04
   1  22  13    1.27    1.13
  -1  22 -13    1.96    1.18
  -2  22  13    1.41    1.07
   2  22 -13    0.32    1.09
  -2  22 -13    2.02    1.13
   2  22  13   -0.05    1.08
   3  22 -13    0.25    1.11
   3  22  13    2.20    1.19
  -3  22 -13    0.47    1.05
   4  22 -13    1.97    1.24
   4  22  13    1.35    1.15
  -4  22 -13    2.25    1.15
   5  22 -13   -0.43    1.15
   5  22  13    0.81    1.12
  -5  22 -13    0.94    1.11
   6  22 -13   -0.39    1.27
  -6  22 -13   -1.02    0.93
   6  22  13    0.82    1.05
   0  23 -13    1.55    1.24
   0  23  13    0.86    1.12
   1  23 -13    0.70    1.17
  -1  23  13   -0.49    1.02
   1  23  13    0.73    1.11
  -1  23 -13    0.05    1.13
  -2  23  13   -0.26    1.05
   2  23 -13    0.07    1.10
  -2  23 -13    0.15    1.08
   2  23  13    0.95    1.16
  -3  23  13    0.44    1.09
   3  23 -13    1.07    1.20
   3  23  13    1.35    1.15
  -3  23 -13   -0.54    1.11
   4  23 -13   -0.58    1.18
  -4  23 -13    1.45    1.20
   4  23  13    1.06    1.08
   0  24  13   -0.81    1.07
   0  24 -13   -0.46    1.19
   1  24 -13    0.50    1.17
  -1  24  13    0.62    1.13
   1  24  13    0.51    1.13
  -1  24 -13   -0.19    1.10
  -2  24  13   -0.29    1.09
   2  24 -13    0.05    1.19
  -2  24 -13   -1.15    1.17
   2  24  13    0.34    1.20
   0   0 -14  187.17    8.03
  -2   0 -14   47.71    2.13
   2   0 -14   45.24    2.28
  -3   0 -14   56.86    2.49
   3   0 -14   56.51    2.74
   4   0 -14   -0.04    0.11
   5   0 -14   32.69    1.86
   6   0 -14    1.15    0.66
   7   0 -14   63.41    3.22
   8   0 -14    0.16    0.75
   9   0 -14    5.37    1.01
  10   0 -14    1.46    0.86
  11   0 -14    4.43    1.07
  12   0 -14   -0.06    0.86
  13   0 -14   -0.24    0.93
  14   0 -14    0.89    0.96
   0   1 -14   -0.25    0.36
   0  -1 -14    1.47    0.38
  -1  -1 -14  175.95    7.65
  -1   1 -14  182.18    7.67
   2   1 -14  179.27    7.84
  -2  -1 -14  185.13    7.69
   2  -1 -14  177.79    7.83
  -2   1 -14  179.73    7.69
   3   1 -14   79.92    3.70
   3  -1 -14   78.72    3.69
  -3   1 -14   80.94    3.47
   4   1 -14   -0.11    0.10
   4  -1 -14    0.02    0.12
   5   1 -14   47.66    2.52
   5  -1 -14   52.52    2.58
   6   1 -14   51.12    2.64
   6  -1 -14   49.60    2.59
   7   1 -14    8.20    1.05
   7  -1 -14    8.60    1.06
   8   1 -14   15.76    1.37
   8  -1 -14   14.70    1.35
   9   1 -14   11.87    1.32
   9  -1 -14   10.20    1.25
  10   1 -14    6.64    1.13
  10  -1 -14    7.92    1.19
  11   1 -14    0.51    0.86
  11  -1 -14   -0.06    0.82
  12   1 -14    1.49    0.96
  12  -1 -14    1.54    0.94
  13   1 -14    3.50    1.11
  13  -1 -14    4.52    1.15
  14   1 -14    1.75    1.05
  14  -1 -14    0.58    1.01
   0   2 -14    7.42    0.69
   0  -2 -14    8.11    0.64
  -1  -2 -14   94.69    3.90
   1   2 -14   74.89    3.95
  -1   2 -14   95.90    3.94
  -2  -2 -14  100.27    4.16
   2   2 -14   95.65    4.33
  -2   2 -14   90.08    4.18
   2  -2 -14   96.74    4.31
   3   2 -14    8.13    0.82
  -3   2 -14    8.58    0.63
   3  -2 -14    9.80    0.88
   5   2 -14   71.89    3.46
   5  -2 -14   71.09    3.42
   6   2 -14   30.51    1.84
   6  -2 -14   30.18    1.82
   7   2 -14    3.42    0.83
   7  -2 -14    2.71    0.79
   8   2 -14   43.74    2.35
   8  -2 -14   35.16    2.25
   9   2 -14   18.44    1.60
   9  -2 -14   17.96    1.57
  10   2 -14    4.47    1.04
  10  -2 -14    3.62    0.96
  11   2 -14    4.36    1.10
  11  -2 -14    4.00    1.09
  12   2 -14    5.37    1.18
  12  -2 -14    3.98    1.07
  13   2 -14    0.33    0.97
  13  -2 -14   -0.18    0.98
  14   2 -14    2.21    1.10
  14  -2 -14   -0.20    0.95
  -1  -3 -14    8.12    0.68
   1   3 -14    9.19    0.82
  -1   3 -14    8.77    0.72
   1  -3 -14    6.79    0.70
   2   3 -14   34.81    1.77
  -2   3 -14   30.59    1.61
   2  -3 -14   33.88    1.73
   3   3 -14   27.03    1.52
  -3   3 -14   24.66    1.30
   3  -3 -14   25.17    1.44
   5   3 -14   11.01    0.98
  -5   3 -14   11.34    0.69
   5  -3 -14   12.96    1.07
   6   3 -14    3.32    0.80
   6  -3 -14    3.59    0.76
   7   3 -14   24.12    1.62
   7  -3 -14   20.98    1.54
   8   3 -14    7.12    1.11
   8  -3 -14    8.83    1.14
   9   3 -14    3.54    0.94
   9  -3 -14    3.67    0.91
  10   3 -14    5.01    1.06
  10  -3 -14    5.69    1.06
  11   3 -14    5.35    1.15
  11  -3 -14    7.17    1.22
  12   3 -14   -2.13    0.72
  12  -3 -14    1.69    0.98
  13   3 -14    0.19    0.97
  13  -3 -14   -0.25    0.86
  14   3 -14    1.45    1.06
  14  -3 -14    0.89    1.05
   0   4 -14    3.81    0.54
   1   4 -14   50.46    2.35
  -1   4 -14   40.38    2.24
   1  -4 -14   53.12    2.34
   2   4 -14   33.33    1.77
  -2   4 -14   30.86    1.63
   2  -4 -14   33.43    1.72
   3   4 -14   20.67    1.32
  -3   4 -14   18.75    1.12
   3  -4 -14   21.26    1.28
   5   4 -14   10.44    1.06
  -5   4 -14    9.41    0.71
   5  -4 -14    8.28    0.94
   6   4 -14   64.84    3.25
   6  -4 -14   64.73    3.22
  -6   4 -14   64.48    2.86
   7   4 -14   10.06    1.16
   7  -4 -14   10.25    1.13
   8   4 -14    5.72    1.03
   8  -4 -14    5.93    1.00
   9   4 -14   10.44    1.33
   9  -4 -14   12.44    1.36
  10   4 -14   18.47    1.62
  10  -4 -14   21.87    1.75
  11   4 -14   -0.57    0.83
  11  -4 -14   -0.42    0.77
  12   4 -14    1.83    1.03
  12  -4 -14    0.98    0.92
  13   4 -14    2.25    1.02
  14   4 -14    0.93    1.09
   0   5 -14   56.83    2.74
   1   5 -14   60.26    2.90
   2   5 -14   61.36    2.74
  -2   5 -14   53.22    2.58
   2  -5 -14   51.14    2.63
   3   5 -14   32.87    1.83
  -3   5 -14   31.57    1.66
   3  -5 -14   34.01    1.79
   4  -5 -14   20.36    1.26
   5   5 -14   40.69    2.41
  -5   5 -14   48.08    2.19
   5  -5 -14   49.43    2.47
   5   5  14   47.56    2.14
   6   5 -14   13.51    1.25
   6  -5 -14   13.49    1.21
  -6   5 -14   14.04    0.90
   7   5 -14   16.07    1.46
  -7   5 -14   19.07    1.07
   7  -5 -14   21.78    1.50
   8   5 -14   22.27    1.66
   8  -5 -14   22.02    1.63
   9   5 -14    2.33    0.89
   9  -5 -14    2.96    0.86
  10   5 -14   -0.67    0.81
  10  -5 -14   -0.14    0.78
  11   5 -14    2.60    1.03
  11  -5 -14    2.64    0.95
  12   5 -14    6.73    1.27
  13   5 -14   -0.11    0.93
   0   6 -14   15.02    1.12
   1   6 -14    3.31    0.67
  -1   6 -14    2.63    0.61
   2   6 -14   30.17    1.74
   3   6 -14    1.74    0.65
  -3   6 -14    0.31    0.26
   4  -6 -14   24.99    1.66
   4   6  14   35.30    1.59
  -4   6 -14   32.48    1.64
   5   6 -14   21.46    1.43
  -5   6 -14   20.05    1.20
   5  -6 -14   19.13    1.36
   5   6  14   20.64    1.15
   6   6 -14    3.56    0.89
  -6   6 -14    3.94    0.60
   6  -6 -14    4.13    0.83
   6   6  14    4.98    0.54
   7   6 -14    6.51    1.04
   7  -6 -14    6.60    1.00
  -7   6 -14    6.57    0.69
   8   6 -14   15.28    1.41
   8  -6 -14   14.24    1.42
   9   6 -14    9.14    1.22
  10   6 -14   -0.38    0.90
  11   6 -14    4.27    1.13
  12   6 -14    4.18    1.14
  13   6 -14    0.64    1.03
   0   7 -14   10.40    0.98
   1   7 -14   37.15    2.00
  -1   7 -14   36.43    1.94
   2   7 -14    5.21    0.83
  -2   7 -14    5.41    0.70
   3   7 -14   32.48    1.88
  -3   7 -14   30.72    1.71
   5   7 -14    0.32    0.71
  -5   7 -14    0.25    0.20
   5   7  14    0.50    0.46
   6   7 -14   16.54    1.34
   6   7  14   16.16    1.07
   7   7 -14    2.93    0.94
  -7   7 -14    2.46    0.46
   8   7 -14    2.06    0.90
   9   7 -14    4.01    0.99
  10   7 -14    7.27    1.21
  11   7 -14    2.86    1.08
  12   7 -14    0.11    1.00
  13   7 -14    2.41    1.14
   0   8 -14   32.54    1.84
   1   8 -14   14.98    1.18
  -1   8 -14   14.14    1.09
   2   8 -14    0.45    0.62
  -2   8 -14   -0.94    0.46
   3   8 -14   20.93    1.52
  -3   8 -14   21.53    1.37
  -4   8 -14   23.33    1.43
   4   8  14   24.31    1.38
   5   8  14   19.23    1.18
  -5   8 -14   17.46    1.24
   6   8 -14    1.62    0.82
   6   8  14    1.37    0.56
  -6   8 -14    1.19    0.59
   7   8 -14   10.75    1.29
  -7   8 -14   11.79    0.94
   7   8  14    9.43    0.89
   8   8 -14    7.18    1.17
   9   8 -14    3.79    1.06
  10   8 -14    0.68    0.93
  11   8 -14    2.01    1.01
  12   8 -14    1.62    0.99
  13   8 -14   -0.94    0.96
   0   9 -14    2.65    0.71
   1   9 -14   14.92    1.21
  -1   9 -14   11.24    1.07
   2   9 -14   46.89    2.50
  -2   9 -14   45.97    2.42
   3   9 -14    0.68    0.68
  -3   9 -14    0.66    0.62
  -4   9 -14    5.63    0.79
   4   9  14    4.25    0.69
   5   9  14   15.05    1.09
  -5   9 -14   15.67    1.19
   6   9 -14   11.83    1.29
   6   9  14    9.94    0.95
  -6   9 -14    9.81    1.01
   7   9 -14    1.28    0.87
  -7   9 -14    0.28    0.59
   7   9  14    1.19    0.60
   8   9 -14   -1.31    0.81
   9   9 -14    7.68    1.35
  10   9 -14    2.13    0.99
  11   9 -14    1.99    1.05
  12   9 -14    1.59    1.00
  13   9 -14    1.36    1.14
   0  10 -14   10.41    1.11
   1  10 -14   24.23    1.63
  -1  10 -14   22.98    1.59
   2  10 -14    2.38    0.81
  -2  10 -14    1.36    0.69
  -3  10 -14   18.76    1.38
  -4  10 -14    5.62    0.87
   4  10  14    5.56    0.77
   5  10 -14   11.77    1.35
   5  10  14   12.39    1.04
  -5  10 -14   12.77    1.10
   6  10 -14   11.20    1.35
   6  10  14   11.39    1.05
  -6  10 -14   10.71    1.08
   7  10 -14   -0.66    0.83
  -7  10 -14    0.79    0.62
   7  10  14   -0.04    0.60
   8  10 -14    2.36    0.99
  -8  10 -14    4.19    0.78
   9  10 -14    1.53    1.02
  10  10 -14    2.45    1.05
  11  10 -14    0.39    0.92
  12  10 -14   -0.93    0.99
   0  11 -14   36.50    2.12
   1  11 -14    7.95    1.09
  -1  11 -14    8.92    1.09
   2  11 -14    2.70    0.88
  -2  11 -14    2.38    0.83
  -3  11 -14    9.10    1.07
  -4  11 -14   17.79    1.39
   4  11  14   19.45    1.35
   5  11 -14    4.87    1.08
   5  11  14    5.60    0.86
  -5  11 -14    5.99    0.89
   6  11 -14    4.00    1.04
   6  11  14    4.83    0.80
  -6  11 -14    4.37    0.84
   7  11 -14    3.80    1.07
  -7  11 -14    3.36    0.81
   7  11  14    4.22    0.79
   8  11 -14    2.06    1.00
  -8  11 -14    1.02    0.69
   9  11 -14    2.46    1.04
  10  11 -14    3.00    1.14
  11  11 -14    1.10    1.08
  12  11 -14   -0.45    0.96
   0  12 -14    2.70    0.85
   1  12 -14    9.81    1.22
  -1  12 -14   11.68    1.23
   2  12 -14   22.59    1.61
  -2  12 -14   20.43    1.54
   3  12 -14    1.45    0.58
   3  12  14    3.38    0.80
  -3  12 -14    4.28    0.90
   4  12 -14    1.58    0.75
   4  12  14    3.78    0.80
  -4  12 -14    2.67    0.82
   5  12 -14    5.10    1.14
   5  12  14    6.56    0.95
  -5  12 -14    7.78    1.01
   6  12 -14    3.52    1.07
   6  12  14    4.29    0.82
  -6  12 -14    4.43    0.86
   7  12 -14   -0.07    0.91
   7  12  14    0.93    0.72
  -7  12 -14    0.17    0.70
   8  12 -14    0.29    0.97
  -8  12 -14    0.56    0.73
   9  12 -14    1.31    1.09
  10  12 -14   -0.94    0.88
  11  12 -14    0.16    0.99
  12  12 -14    0.29    1.10
   0  13 -14    1.58    0.82
   1  13 -14    2.65    0.91
  -1  13 -14    1.43    0.88
   2  13 -14    2.81    0.95
  -2  13 -14    2.67    0.90
   3  13 -14    1.88    0.92
   3  13  14    1.86    0.78
  -3  13 -14    1.11    0.84
   4  13 -14    2.88    1.03
  -4  13 -14    4.34    0.95
   4  13  14    3.77    0.90
   5  13 -14    5.67    1.19
  -5  13 -14    6.52    1.01
   5  13  14    4.59    0.87
   6  13 -14    1.66    1.02
   6  13  14    1.29    0.77
  -6  13 -14    2.12    0.80
   7  13 -14    0.99    0.96
   7  13  14    1.30    0.82
  -7  13 -14    3.23    0.87
   8  13 -14    3.60    1.12
  -8  13 -14    3.61    0.88
   9  13 -14    0.01    0.97
  10  13 -14    1.32    1.06
  11  13 -14   -0.01    1.09
   0  14 -14    1.01    0.85
   1  14 -14    4.14    1.03
  -1  14 -14    4.07    0.98
   2  14 -14    1.79    0.96
  -2  14 -14    2.28    0.92
   3  14 -14    2.63    1.02
  -3  14 -14    3.68    0.92
   3  14  14    2.37    0.87
   4  14 -14    4.71    1.11
   4  14  14    4.05    0.92
  -4  14 -14    4.87    0.99
   5  14 -14    1.55    0.90
  -5  14 -14    0.61    0.74
   5  14  14    1.36    0.75
   6  14 -14    1.17    1.01
   6  14  14   -0.22    0.73
  -6  14 -14    0.76    0.76
   7  14 -14    6.52    1.28
   7  14  14    5.26    1.01
  -7  14 -14    5.22    1.01
   8  14 -14    0.18    1.03
  -8  14 -14    1.21    0.82
   9  14 -14   -0.70    1.01
  10  14 -14   -0.54    0.98
  11  14 -14   -0.35    1.04
   0  15 -14   -0.43    0.78
   1  15 -14    0.79    0.89
  -1  15 -14    1.35    0.93
   2  15 -14    1.88    0.98
   2  15  14    0.79    0.78
  -2  15 -14    3.83    0.96
   3  15 -14    1.04    0.94
  -3  15 -14   -0.36    0.83
   3  15  14    0.01    0.73
   4  15 -14   -0.51    0.86
   4  15  14    0.77    0.74
  -4  15 -14    0.33    0.85
   5  15 -14    0.60    0.96
  -5  15 -14    2.20    0.92
   5  15  14    0.96    0.80
   6  15 -14    2.45    1.11
   6  15  14    2.02    0.84
  -6  15 -14    4.06    0.96
   7  15 -14   -1.17    0.95
   7  15  14   -0.47    0.76
  -7  15 -14   -0.16    0.79
   8  15 -14    2.22    1.12
  -8  15 -14    0.53    0.82
   9  15 -14    1.69    1.14
  10  15 -14    1.18    1.16
  11  15 -14    0.38    1.16
   0  16 -14    2.24    0.99
   1  16 -14    0.62    0.92
  -1  16 -14   -1.13    0.81
   2  16 -14   -0.14    0.92
  -2  16 -14    1.09    0.87
   2  16  14    0.41    0.86
   3  16 -14    0.59    0.89
   3  16  14    0.09    0.79
  -3  16 -14    1.28    0.89
   4  16 -14    1.34    1.00
  -4  16 -14    2.34    0.96
   4  16  14    1.30    0.87
   5  16 -14    1.80    1.04
   5  16  14   -1.05    0.73
  -5  16 -14    0.17    0.78
   6  16 -14    4.17    1.22
  -6  16 -14    4.26    0.99
   6  16  14    3.81    0.99
   7  16 -14   -1.06    0.98
   7  16  14    0.72    0.87
  -7  16 -14    0.18    0.82
   8  16 -14    1.21    1.09
  -8  16 -14    0.89    0.82
   9  16 -14    1.14    1.15
  10  16 -14    2.50    1.25
   0  17 -14    5.53    1.20
   1  17 -14    3.46    1.08
  -1  17 -14    2.40    1.07
   2  17 -14    2.96    1.08
  -2  17 -14    1.68    0.98
   2  17  14    2.44    0.94
   3  17 -14    0.42    0.96
   3  17  14    0.53    0.86
  -3  17 -14    0.30    0.87
   4  17 -14    0.69    1.01
  -4  17 -14    2.62    0.96
   4  17  14    0.25    0.89
   5  17 -14   -0.64    1.01
   5  17  14    0.30    0.85
  -5  17 -14    2.95    0.95
   6  17 -14    1.01    1.08
  -6  17 -14   -0.53    0.81
   6  17  14   -1.87    0.73
   7  17 -14    2.97    1.22
   7  17  14    3.02    1.01
  -7  17 -14    3.30    0.99
   8  17 -14    0.67    1.12
  -8  17 -14    1.06    0.88
   9  17 -14   -0.07    1.14
  10  17 -14    0.35    1.15
   0  18 -14    1.23    1.01
   1  18 -14    4.29    1.15
  -1  18 -14    4.14    1.16
   1  18  14    3.33    1.06
   2  18 -14    1.06    0.99
   2  18  14    0.66    0.94
  -2  18 -14    1.41    0.97
   3  18 -14    0.23    0.97
   3  18  14    0.01    0.90
  -3  18 -14    2.11    0.96
   4  18 -14    1.97    1.12
   4  18  14    2.40    0.99
  -4  18 -14    3.03    1.01
   5  18 -14    4.28    1.23
  -5  18 -14    3.74    1.07
   5  18  14    4.49    1.09
   6  18 -14    1.00    1.10
  -6  18 -14    0.44    0.89
   6  18  14    1.80    0.92
   7  18 -14   -0.62    1.09
  -7  18 -14    1.03    0.89
   7  18  14    2.00    1.00
   8  18 -14    2.47    1.24
  -8  18 -14    2.21    1.00
   9  18 -14   -0.19    1.13
   0  19 -14    0.26    0.99
   1  19 -14    2.32    1.08
  -1  19 -14    2.88    1.09
   1  19  14    3.90    1.09
   2  19 -14    1.51    1.07
   2  19  14    2.39    1.01
  -2  19 -14    0.76    1.05
   3  19 -14    1.73    1.09
   3  19  14    1.13    0.98
  -3  19 -14    1.52    1.06
   4  19 -14    0.54    1.06
   4  19  14    1.07    0.91
  -4  19 -14    1.99    0.97
   5  19 -14    0.69    1.11
  -5  19 -14   -0.25    0.91
   5  19  14    1.16    0.94
   6  19 -14    0.53    1.21
  -6  19 -14    4.17    1.06
   6  19  14    1.31    0.99
   7  19 -14   -0.37    1.09
   7  19  14   -0.74    0.85
  -7  19 -14    0.38    0.88
   8  19 -14    0.79    1.20
  -8  19 -14   -0.37    0.91
   0  20 -14    3.45    1.20
   0  20  14    4.85    1.24
   1  20 -14    1.33    1.01
   1  20  14    2.11    1.04
  -1  20 -14    1.34    1.15
   2  20 -14    1.78    1.12
   2  20  14    1.95    1.01
  -2  20 -14   -0.14    0.94
   3  20 -14    2.75    1.17
   3  20  14    3.23    1.13
  -3  20 -14    3.61    1.14
   4  20 -14    2.54    1.19
   4  20  14    2.24    1.08
  -4  20 -14    1.89    1.05
   5  20 -14    0.56    1.14
   5  20  14    0.69    0.96
  -5  20 -14    1.28    0.98
   6  20 -14   -1.42    1.06
  -6  20 -14   -0.15    0.98
   6  20  14    3.20    1.12
   7  20 -14    3.59    1.40
  -7  20 -14    6.37    1.28
   7  20  14    3.20    1.16
   0  21  14    1.17    1.02
   0  21 -14    1.15    1.07
   1  21 -14    4.33    1.30
  -1  21  14    8.05    1.38
  -1  21 -14    5.14    1.31
   1  21  14    6.49    1.32
   2  21 -14    4.62    1.25
   2  21  14    3.43    1.16
  -2  21 -14    2.14    1.15
   3  21 -14    2.35    1.23
  -3  21 -14    1.53    1.06
   3  21  14    3.92    1.16
   4  21 -14    0.82    1.15
   4  21  14   -0.01    1.01
  -4  21 -14    0.39    1.00
   5  21 -14    1.84    1.26
  -5  21 -14    0.03    1.00
   5  21  14    0.89    1.03
   6  21 -14    0.40    1.26
  -6  21 -14    2.06    1.12
   6  21  14    0.89    1.03
   7  21 -14    1.13    1.34
  -7  21 -14    1.79    1.05
   0  22  14   -0.57    0.95
   0  22 -14   -0.32    1.01
   1  22 -14    2.72    1.18
  -1  22  14    1.25    1.09
  -1  22 -14    2.02    1.16
   1  22  14    0.58    1.09
   2  22 -14    1.37    1.16
   2  22  14    3.81    1.21
  -2  22 -14    3.86    1.28
   3  22 -14    1.59    1.16
   3  22  14    0.20    1.02
  -3  22 -14   -0.46    0.98
   4  22 -14    1.46    1.32
  -4  22 -14    3.89    1.22
   4  22  14    0.81    1.07
   5  22 -14   -0.09    1.17
  -5  22 -14    2.74    1.22
   5  22  14    0.27    1.08
   0  23  14    2.49    1.24
   0  23 -14    4.09    1.32
  -1  23  14    2.13    1.16
   1  23 -14    0.66    1.16
   1  23  14   -0.61    1.01
  -1  23 -14    1.59    1.23
  -2  23  14    1.40    1.16
   2  23 -14    1.91    1.23
  -2  23 -14    1.77    1.22
   2  23  14    0.33    1.05
   3  23 -14    1.09    1.20
  -3  23 -14    1.83    1.22
   3  23  14    0.88    1.18
   4  23 -14    1.91    1.32
   4  23  14    3.79    1.31
  -4  23 -14    1.57    1.19
   0  24  14    1.49    1.23
   0  24 -14   -1.39    1.06
  -1  24  14    1.46    1.21
   1  24 -14   -0.53    1.18
  -1  24 -14    0.71    1.19
   1  24  14   -0.08    1.17
   0   0 -15    0.79    0.36
   1   0 -15    1.45    0.47
  -1   0 -15    1.55    0.41
  -2   0 -15   33.36    1.60
   2   0 -15   33.01    1.76
   3   0 -15   19.39    1.18
  -3   0 -15   16.10    0.88
   4   0 -15    5.26    0.71
   5   0 -15    0.08    0.56
   6   0 -15    4.73    0.84
   7   0 -15    0.49    0.69
   8   0 -15   -0.70    0.72
   9   0 -15    3.79    0.94
  10   0 -15    6.12    1.10
  11   0 -15    1.15    0.95
  12   0 -15   -0.44    0.88
  13   0 -15    0.29    0.89
  14   0 -15    1.44    1.15
   0   1 -15    3.19    0.46
   0  -1 -15    3.91    0.52
  -1  -1 -15   48.92    2.25
   1   1 -15   49.29    2.35
   1  -1 -15   46.43    2.32
  -1   1 -15   49.35    2.27
  -2  -1 -15    2.10    0.38
   2   1 -15    2.64    0.58
   2  -1 -15    1.95    0.53
  -2   1 -15    2.31    0.43
   3   1 -15    2.95    0.62
  -3  -1 -15    4.39    0.38
   3  -1 -15    3.13    0.58
  -3   1 -15    3.27    0.40
   4   1 -15    6.65    0.78
   4  -1 -15    6.82    0.83
   5   1 -15    4.46    0.74
   5  -1 -15    6.93    0.88
   6   1 -15    6.87    0.92
   6  -1 -15    5.03    0.85
   7   1 -15    3.74    0.86
   7  -1 -15    3.34    0.82
   8   1 -15    4.03    0.92
   8  -1 -15    2.91    0.87
   9   1 -15    4.74    1.05
   9  -1 -15    4.63    1.00
  10   1 -15    2.40    0.95
  10  -1 -15    3.33    0.95
  11   1 -15    3.41    1.04
  11  -1 -15    1.60    0.92
  12   1 -15    2.85    0.99
  12  -1 -15    2.26    1.00
  13   1 -15    1.51    1.02
  13  -1 -15    2.36    1.05
  14   1 -15    0.19    1.06
  14  -1 -15   -1.41    1.01
   0   2 -15    0.16    0.21
  -1  -2 -15   46.04    2.29
   1   2 -15   51.78    2.43
   1  -2 -15   50.84    2.41
  -1   2 -15   51.47    2.36
   2   2 -15   12.58    0.97
  -2  -2 -15   12.24    0.76
   2  -2 -15   12.60    0.93
  -2   2 -15   12.19    0.81
   3   2 -15    5.40    0.69
   3  -2 -15    7.55    0.79
  -3   2 -15    5.91    0.53
   4   2 -15    3.68    0.60
   4  -2 -15    4.08    0.70
  -4   2 -15    4.72    0.42
   5   2 -15   31.43    1.78
   5  -2 -15   27.40    1.71
   6   2 -15   12.80    1.18
   6  -2 -15   12.94    1.17
   7   2 -15    3.16    0.83
   7  -2 -15    4.51    0.87
   8   2 -15    1.93    0.82
   8  -2 -15    2.22    0.81
   9   2 -15    5.71    1.06
   9  -2 -15    5.79    1.07
  10   2 -15    1.62    0.92
  10  -2 -15    1.73    0.87
  11   2 -15    0.26    0.85
  11  -2 -15    2.38    0.95
  12   2 -15    3.02    1.06
  12  -2 -15    2.12    0.96
  13   2 -15    2.48    1.09
  13  -2 -15    2.74    1.07
  14   2 -15   -1.59    1.00
  14  -2 -15   -0.81    0.95
   0  -3 -15   -0.05    0.16
  -1  -3 -15   13.79    0.87
   1   3 -15   13.97    1.01
  -1   3 -15   15.15    0.96
   1  -3 -15   13.87    0.96
   2   3 -15    6.16    0.76
   2  -3 -15    5.98    0.69
  -2   3 -15    5.41    0.60
   3   3 -15    3.47    0.62
   3  -3 -15    3.60    0.63
  -3   3 -15    3.52    0.48
  -4   3 -15   28.75    1.40
   4  -3 -15   27.99    1.65
   5   3 -15   13.93    1.15
   5  -3 -15   12.39    1.11
  -5   3 -15   14.01    0.77
   6   3 -15    7.30    0.98
   6  -3 -15    7.39    0.97
   7   3 -15   10.52    1.18
   7  -3 -15   10.67    1.14
   8   3 -15    4.23    0.96
   8  -3 -15    5.12    0.97
   9   3 -15    3.24    0.93
   9  -3 -15    2.67    0.91
  10   3 -15    4.22    1.03
  10  -3 -15    2.95    0.99
  11   3 -15    2.03    0.99
  11  -3 -15    1.52    0.91
  12   3 -15    0.64    0.90
  12  -3 -15    0.30    0.88
  13   3 -15    0.04    0.91
  13  -3 -15    1.15    1.01
  14   3 -15    0.48    1.08
  14  -3 -15    1.42    1.06
   0  -4 -15    9.75    0.74
   1   4 -15   73.55    3.54
   1  -4 -15   79.33    3.52
   2   4 -15    0.67    0.55
  -2   4 -15    1.45    0.47
   2  -4 -15    3.25    0.59
   3   4 -15   25.24    1.52
  -3   4 -15   25.77    1.33
   3  -4 -15   22.76    1.45
   4  -4 -15   38.84    2.13
  -4   4 -15   41.15    1.93
   5   4 -15    9.59    1.05
  -5   4 -15    8.92    0.70
   5  -4 -15   10.10    1.06
   6   4 -15    9.83    1.12
   6  -4 -15   10.11    1.11
  -6   4 -15   10.40    0.69
   7   4 -15    0.98    0.76
   7  -4 -15    1.11    0.70
   8   4 -15    7.41    1.12
   8  -4 -15    6.45    1.02
   9   4 -15    2.75    0.95
   9  -4 -15    2.33    0.90
  10   4 -15    4.08    1.02
  10  -4 -15    2.75    0.96
  11   4 -15    0.28    0.93
  11  -4 -15    0.26    0.85
  12   4 -15    0.78    0.95
  12  -4 -15    3.54    0.99
  13   4 -15   -0.31    0.88
  13  -4 -15    0.48    0.89
   0   5 -15    0.78    0.53
   1   5 -15   28.70    1.50
  -1   5 -15   21.03    1.34
   2   5 -15   85.62    3.88
   2  -5 -15   80.51    3.82
   3   5 -15   30.80    1.80
   3  -5 -15   33.49    1.78
  -3   5 -15   31.16    1.64
   4   5 -15   -0.33    0.21
  -4   5 -15    3.35    0.52
   4  -5 -15    0.52    0.54
   5   5 -15   15.03    1.26
   5   5  15   15.22    0.88
  -5   5 -15   14.36    0.95
   6   5 -15   30.11    1.85
   6  -5 -15   27.02    1.77
  -6   5 -15   28.25    1.44
   7   5 -15   13.12    1.32
   7  -5 -15   12.07    1.25
   8   5 -15    2.95    0.90
   8  -5 -15    1.29    0.76
   9   5 -15    0.79    0.83
   9  -5 -15    1.27    0.79
  10   5 -15    3.85    1.04
  10  -5 -15    2.06    0.93
  11   5 -15    0.88    0.90
  11  -5 -15    1.36    0.92
  12   5 -15    1.32    1.04
  13   5 -15   -1.32    0.92
   0   6 -15   -0.32    0.48
   1   6 -15   28.22    1.65
  -1   6 -15   28.56    1.60
   2   6 -15   30.13    1.67
  -2   6 -15   25.43    1.51
   4  -6 -15   21.47    1.38
  -4   6 -15   19.54    1.19
   5   6 -15    0.60    0.45
   5  -6 -15   -0.06    0.16
   5   6  15    2.26    0.46
  -5   6 -15    2.29    0.52
   6   6 -15    6.45    1.03
  -6   6 -15    7.95    0.74
   6  -6 -15    6.60    0.95
   6   6  15    7.86    0.68
   7   6 -15   32.36    2.08
   7  -6 -15   33.04    2.05
  -7   6 -15   34.06    1.70
   8   6 -15    7.02    1.12
   8  -6 -15    7.02    1.06
   9   6 -15    2.38    0.90
   9  -6 -15    2.92    0.91
  10   6 -15    4.94    1.11
  11   6 -15    4.66    1.15
  12   6 -15    2.56    1.07
  13   6 -15   -0.99    0.96
   0   7 -15   20.62    1.36
   1   7 -15   47.27    2.42
  -1   7 -15   46.20    2.35
   2   7 -15   43.41    2.41
  -2   7 -15   48.43    2.34
   3   7 -15   78.21    3.73
  -3   7 -15   76.40    3.57
   6   7 -15    4.99    0.95
   6   7  15    5.30    0.63
   7   7 -15   11.21    1.32
  -7   7 -15   11.61    0.88
   8   7 -15    6.00    1.15
   9   7 -15    0.48    0.86
  10   7 -15    0.14    0.85
  11   7 -15   -0.45    0.87
  12   7 -15    1.42    1.01
  13   7 -15    2.01    1.06
   0   8 -15   38.63    2.10
   1   8 -15   19.61    1.41
  -1   8 -15   21.33    1.39
   2   8 -15    1.36    0.70
  -2   8 -15    1.78    0.63
   3   8 -15   10.09    1.13
  -3   8 -15   10.63    0.99
  -4   8 -15   23.61    1.48
   4   8  15   23.96    1.39
   5   8  15   28.21    1.50
  -5   8 -15   25.98    1.57
   6   8 -15    0.36    0.78
  -6   8 -15    0.57    0.56
   6   8  15   -0.41    0.51
   7   8 -15    4.24    0.99
  -7   8 -15    4.76    0.72
   8   8 -15   14.40    1.52
   9   8 -15   24.68    1.97
  10   8 -15    1.34    0.95
  11   8 -15    2.84    1.13
  12   8 -15    0.85    1.03
  13   8 -15    0.04    0.98
   0   9 -15   51.64    2.67
   1   9 -15   37.70    2.12
  -1   9 -15   36.54    2.09
   2   9 -15   39.95    2.19
  -2   9 -15   36.53    2.08
   3   9 -15    9.58    1.15
  -3   9 -15   10.21    1.03
  -4   9 -15   30.36    1.79
   4   9  15   31.74    1.71
   5   9  15   17.88    1.20
  -5   9 -15   18.82    1.30
   6   9 -15    0.31    0.82
  -6   9 -15    1.06    0.65
   6   9  15    1.10    0.58
   7   9 -15    2.42    0.93
  -7   9 -15    3.83    0.73
   8   9 -15    1.89    0.94
   9   9 -15    4.28    1.14
  10   9 -15    2.36    1.03
  11   9 -15    2.01    1.10
  12   9 -15    0.55    1.02
  13   9 -15    2.85    1.13
   0  10 -15    1.16    0.72
   1  10 -15   10.53    1.18
  -1  10 -15   11.83    1.16
   2  10 -15    0.82    0.79
  -2  10 -15    1.49    0.68
   3  10 -15    6.13    0.93
  -3  10 -15    8.04    0.99
   4  10  15    8.75    0.93
  -4  10 -15    9.09    1.01
   5  10 -15    1.35    0.83
  -5  10 -15    0.08    0.64
   5  10  15    1.15    0.61
   6  10 -15   32.22    2.14
  -6  10 -15   30.41    1.85
   6  10  15   34.21    1.82
   7  10 -15    1.02    0.95
  -7  10 -15    2.14    0.72
   8  10 -15   13.57    1.54
   9  10 -15    2.42    1.01
  10  10 -15   12.37    1.57
  11  10 -15   -0.15    0.93
  12  10 -15   -0.40    1.04
   0  11 -15   25.89    1.74
   1  11 -15    4.75    0.95
  -1  11 -15    3.53    0.83
   2  11 -15   45.90    2.54
  -2  11 -15   43.22    2.41
   3  11 -15   10.29    1.22
  -3  11 -15   12.41    1.19
  -4  11 -15   13.54    1.23
   4  11  15   13.87    1.16
   5  11 -15    9.56    1.30
   5  11  15   11.42    1.08
  -5  11 -15   11.11    1.14
   6  11 -15    6.67    1.17
   6  11  15    6.16    0.86
  -6  11 -15    7.70    0.98
   7  11 -15    0.57    0.89
   7  11  15    0.63    0.65
  -7  11 -15    1.14    0.68
   8  11 -15    0.24    0.94
   9  11 -15    3.04    1.08
  10  11 -15    2.63    1.11
  11  11 -15    2.76    1.18
  12  11 -15   -0.41    0.99
   0  12 -15   10.09    1.17
   1  12 -15    8.36    1.14
  -1  12 -15    6.97    1.04
   2  12 -15    5.31    1.07
  -2  12 -15    4.65    0.96
   3  12 -15    3.65    0.99
  -3  12 -15    4.13    0.88
   4  12 -15   15.27    1.40
  -4  12 -15   18.03    1.39
   4  12  15   15.43    1.26
   5  12 -15   15.79    1.60
   5  12  15   15.20    1.26
  -5  12 -15   14.14    1.28
   6  12 -15    4.90    1.10
   6  12  15    3.25    0.78
  -6  12 -15    3.76    0.84
   7  12 -15    3.68    1.16
   7  12  15    5.09    0.89
  -7  12 -15    5.86    0.93
   8  12 -15    5.99    1.23
   9  12 -15    8.04    1.39
  10  12 -15    1.19    1.02
  11  12 -15    2.55    1.14
  12  12 -15    1.17    1.15
   0  13 -15    1.33    0.85
   1  13 -15   38.65    2.35
  -1  13 -15   37.96    2.28
   2  13 -15    5.55    1.02
  -2  13 -15    6.01    1.05
   3  13 -15   30.57    2.04
  -3  13 -15   31.60    2.01
   3  13  15   31.41    1.89
   4  13 -15    3.64    1.05
  -4  13 -15    3.53    0.92
   4  13  15    3.37    0.85
   5  13 -15    2.69    1.04
   5  13  15    4.23    0.87
  -5  13 -15    3.83    0.92
   6  13 -15    5.45    1.19
  -6  13 -15    5.13    0.94
   6  13  15    5.16    0.91
   7  13 -15    3.65    1.17
   7  13  15    5.16    0.96
  -7  13 -15    5.37    0.97
   8  13 -15    3.87    1.18
  -8  13 -15    4.24    0.91
   9  13 -15    0.89    1.03
  10  13 -15   -0.11    1.09
  11  13 -15    1.35    1.10
   0  14 -15   -0.89    0.83
   1  14 -15    0.87    0.87
  -1  14 -15    2.80    0.96
   2  14 -15   16.75    1.60
  -2  14 -15   14.43    1.47
   3  14 -15   32.70    2.24
   3  14  15   32.42    2.06
  -3  14 -15   34.84    2.14
   4  14 -15    0.87    0.97
  -4  14 -15    1.35    0.78
   4  14  15    0.15    0.74
   5  14 -15    4.06    1.15
  -5  14 -15    5.42    1.02
   5  14  15    4.76    0.92
   6  14 -15    3.78    1.17
  -6  14 -15    5.18    0.97
   6  14  15    4.80    0.93
   7  14 -15   21.08    1.88
  -7  14 -15   24.07    1.66
   7  14  15   19.31    1.59
   8  14 -15   -0.92    0.98
  -8  14 -15    3.13    0.91
   9  14 -15    2.85    1.15
  10  14 -15   -1.36    1.06
  11  14 -15    2.65    1.26
   0  15 -15    0.20    0.86
   1  15 -15   18.42    1.70
  -1  15 -15   23.29    1.79
   2  15 -15   37.50    2.41
  -2  15 -15   36.34    2.31
   3  15 -15   13.30    1.57
  -3  15 -15   14.42    1.47
   3  15  15   15.72    1.40
   4  15 -15    0.27    0.92
  -4  15 -15   -0.69    0.75
   4  15  15    0.00    0.75
   5  15 -15    2.23    1.08
   5  15  15    3.18    0.91
  -5  15 -15    2.99    0.90
   6  15 -15    5.35    1.30
   6  15  15    3.57    0.91
  -6  15 -15    6.07    1.07
   7  15 -15   -1.37    0.95
   7  15  15    1.80    0.86
  -7  15 -15    2.73    0.89
   8  15 -15    1.46    1.06
  -8  15 -15    0.04    0.77
   9  15 -15    1.03    1.13
  10  15 -15   -0.37    1.03
   0  16 -15    7.95    1.26
   1  16 -15    7.96    1.27
  -1  16 -15    7.13    1.20
   2  16 -15    5.68    1.16
   2  16  15    5.79    1.12
  -2  16 -15    6.74    1.15
   3  16 -15    0.93    0.95
  -3  16 -15    0.72    0.86
   3  16  15   -0.03    0.76
   4  16 -15    9.78    1.45
   4  16  15   12.05    1.34
  -4  16 -15   12.47    1.40
   5  16 -15    5.85    1.27
  -5  16 -15    4.09    1.07
   5  16  15    5.17    1.01
   6  16 -15    9.56    1.52
  -6  16 -15    9.53    1.23
   6  16  15    5.57    1.08
   7  16 -15   -0.46    1.01
  -7  16 -15    0.09    0.85
   7  16  15   -0.13    0.82
   8  16 -15    8.22    1.45
  -8  16 -15    6.00    1.08
   9  16 -15    1.76    1.16
  10  16 -15    0.98    1.26
   0  17 -15   57.88    3.28
   1  17 -15    1.36    1.02
  -1  17 -15    5.09    1.13
   2  17 -15    7.93    1.32
   2  17  15    6.05    1.15
  -2  17 -15    5.74    1.27
   3  17 -15    0.10    0.94
  -3  17 -15    1.34    0.91
   3  17  15    0.88    0.86
   4  17 -15   24.05    1.95
  -4  17 -15   18.20    1.64
   4  17  15   18.15    1.63
   5  17 -15    4.20    1.22
   5  17  15    3.26    0.98
  -5  17 -15    4.17    1.08
   6  17 -15   -0.78    1.01
   6  17  15   -0.46    0.81
  -6  17 -15   -0.48    0.74
   7  17 -15   -1.12    1.01
  -7  17 -15   -0.13    0.85
   7  17  15    0.00    0.75
   8  17 -15    0.39    1.12
  -8  17 -15    1.26    0.88
   9  17 -15    0.32    1.10
   0  18 -15    1.61    1.00
   1  18 -15    4.32    1.19
  -1  18 -15    6.86    1.26
   1  18  15    6.19    1.17
   2  18 -15    2.18    1.06
   2  18  15    2.77    1.06
  -2  18 -15    3.40    1.05
   3  18 -15   -0.13    0.96
   3  18  15   -0.34    0.82
  -3  18 -15    1.13    0.97
   4  18 -15    5.32    1.30
   4  18  15    5.47    1.10
  -4  18 -15    4.04    1.15
   5  18 -15    5.33    1.32
   5  18  15    5.34    1.15
  -5  18 -15    6.83    1.20
   6  18 -15    3.65    1.31
   6  18  15    6.78    1.18
  -6  18 -15    5.82    1.17
   7  18 -15    0.49    1.14
  -7  18 -15    1.09    0.92
   8  18 -15   -0.70    1.17
  -8  18 -15    2.30    1.00
   9  18 -15    1.92    1.25
   0  19 -15   -0.73    0.94
   1  19 -15   10.73    1.58
  -1  19 -15   11.85    1.59
   1  19  15   11.18    1.48
   2  19 -15    4.90    1.26
  -2  19 -15    4.87    1.23
   2  19  15    6.07    1.20
   3  19 -15    2.14    1.11
   3  19  15    3.61    1.06
  -3  19 -15    3.26    1.09
   4  19 -15    1.25    1.12
  -4  19 -15    0.69    0.98
   4  19  15    1.37    0.97
   5  19 -15    0.89    1.15
   5  19  15    3.17    1.06
  -5  19 -15    3.67    1.14
   6  19 -15    0.96    1.13
  -6  19 -15    0.71    0.92
   6  19  15    0.83    0.90
   7  19 -15    0.60    1.23
  -7  19 -15    0.59    0.94
   8  19 -15   -0.62    1.12
  -8  19 -15    0.83    0.97
   0  20 -15    0.68    1.02
   0  20  15   -1.35    0.89
   1  20 -15    0.92    1.00
  -1  20 -15    0.22    0.99
   1  20  15   -1.48    0.92
   2  20 -15    1.00    1.08
  -2  20 -15    1.66    1.12
   2  20  15    1.95    1.02
   3  20 -15    2.83    1.18
   3  20  15    4.19    1.15
  -3  20 -15    3.10    1.15
   4  20 -15    0.51    1.07
  -4  20 -15    0.65    0.94
   4  20  15   -0.81    0.84
   5  20 -15    1.31    1.20
  -5  20 -15    3.75    1.19
   5  20  15    1.35    1.04
   6  20 -15    0.20    1.19
   6  20  15    0.11    0.93
  -6  20 -15    0.28    0.97
   7  20 -15    5.52    1.51
  -7  20 -15    6.21    1.30
   0  21  15   -0.48    1.01
   0  21 -15   -0.37    0.98
   1  21 -15    4.33    1.29
  -1  21 -15    5.69    1.33
   1  21  15    3.39    1.18
   2  21 -15   -0.13    1.03
   2  21  15    0.93    1.08
  -2  21 -15    2.03    1.13
   3  21 -15    1.71    1.18
   3  21  15    3.74    1.22
  -3  21 -15    2.64    1.17
   4  21 -15    1.41    1.20
   4  21  15    1.37    1.08
  -4  21 -15    0.75    1.04
   5  21 -15    0.27    1.16
  -5  21 -15    0.15    1.05
   5  21  15    1.39    1.06
   6  21 -15    0.50    1.23
   6  21  15   -0.09    1.01
  -6  21 -15    1.66    1.11
   0  22 -15    1.22    1.11
   0  22  15   -1.07    0.97
  -1  22  15   -0.75    1.07
   1  22 -15   -0.05    1.10
   1  22  15    1.36    1.14
  -1  22 -15    0.97    1.13
   2  22 -15    1.77    1.19
   2  22  15   -0.82    1.03
  -2  22 -15    2.55    1.18
   3  22 -15    0.11    1.11
  -3  22 -15    0.92    1.17
   3  22  15    1.71    1.15
   4  22 -15    3.00    1.36
   4  22  15    1.55    1.13
  -4  22 -15    0.73    1.15
   5  22 -15    1.19    1.24
  -5  22 -15    1.73    1.08
   5  22  15    0.79    1.05
   0  23 -15    2.39    1.23
   0  23  15    2.60    1.22
   1  23 -15    0.03    1.17
  -1  23  15    1.74    1.14
  -1  23 -15    0.14    1.10
   1  23  15   -0.05    1.07
  -2  23  15    0.90    1.19
   2  23 -15    1.58    1.24
  -2  23 -15    3.24    1.28
   2  23  15    3.04    1.28
   3  23 -15    0.24    1.25
   3  23  15    1.62    1.14
  -3  23 -15    2.44    1.27
   0   0 -16   -0.16    0.17
  -1   0 -16   41.04    2.03
   1   0 -16   44.00    2.13
  -2   0 -16  396.59   16.41
   2   0 -16  381.14   16.55
  -3   0 -16    4.74    0.45
   3   0 -16    4.00    0.67
   4   0 -16   32.39    1.80
   5   0 -16   -0.68    0.43
   6   0 -16   22.11    1.53
   7   0 -16   27.45    1.82
   8   0 -16    3.97    0.97
   9   0 -16    0.02    0.74
  10   0 -16   -1.16    0.77
  11   0 -16    1.88    1.00
  12   0 -16    5.19    1.17
  13   0 -16    0.53    0.98
   0   1 -16   -0.27    0.19
   0  -1 -16    0.00    0.18
   1   1 -16   25.28    1.44
  -1  -1 -16   27.25    1.36
   1  -1 -16   26.15    1.44
  -1   1 -16   23.80    1.37
   2   1 -16   77.68    3.67
  -2  -1 -16   79.29    3.48
   2  -1 -16   81.76    3.67
  -2   1 -16   77.07    3.50
   3   1 -16   26.58    1.64
  -3  -1 -16   30.26    1.40
   3  -1 -16   30.87    1.68
  -3   1 -16   29.03    1.41
   4   1 -16   36.84    2.06
  -4   1 -16   38.05    1.71
   4  -1 -16   39.91    2.10
   5   1 -16    3.58    0.66
   5  -1 -16    2.32    0.59
   6   1 -16   24.91    1.58
   6  -1 -16   24.81    1.63
   7   1 -16   12.56    1.29
   7  -1 -16   13.28    1.31
   8   1 -16   40.41    2.34
   8  -1 -16   37.12    2.29
   9   1 -16    1.33    0.86
   9  -1 -16    2.51    0.90
  10   1 -16    9.94    1.32
  10  -1 -16   10.52    1.34
  11   1 -16    4.86    1.11
  11  -1 -16    2.72    1.07
  12   1 -16    5.99    1.19
  12  -1 -16    4.32    1.11
  13   1 -16    0.66    0.98
  13  -1 -16    1.34    0.95
   1   2 -16  108.37    4.76
  -1  -2 -16  106.77    4.64
   1  -2 -16  105.58    4.73
  -1   2 -16  102.53    4.66
   2   2 -16   10.88    0.96
  -2  -2 -16    9.24    0.69
  -2   2 -16   11.20    0.78
   2  -2 -16   11.91    0.90
   3   2 -16   31.20    1.74
  -3   2 -16   32.23    1.55
   3  -2 -16   32.81    1.77
   4   2 -16   38.50    2.10
  -4   2 -16   38.52    1.76
   4  -2 -16   38.94    2.08
   5   2 -16   14.23    1.16
   6   2 -16   -0.04    0.58
   6  -2 -16   -1.21    0.52
   7   2 -16    3.37    0.88
   7  -2 -16    5.24    0.92
   8   2 -16    1.03    0.84
   8  -2 -16    2.88    0.85
   9   2 -16    7.55    1.17
   9  -2 -16    8.71    1.20
  10   2 -16    3.59    1.10
  10  -2 -16    3.31    1.05
  11   2 -16   -0.76    0.83
  11  -2 -16   -0.46    0.87
  12   2 -16    1.18    0.97
  12  -2 -16    0.96    0.88
  13   2 -16    1.66    0.99
  13  -2 -16    1.35    1.06
   0  -3 -16   48.80    2.58
   0   3 -16   64.49    2.71
   1   3 -16    9.41    0.90
  -1  -3 -16   12.07    0.78
   1  -3 -16   10.06    0.90
   2   3 -16    7.98    0.85
   2  -3 -16    9.19    0.83
  -2   3 -16    7.46    0.71
   3   3 -16    7.01    0.85
  -3   3 -16    7.41    0.64
   3  -3 -16    8.19    0.85
   4   3 -16   11.28    1.06
   4  -3 -16   11.63    1.01
  -4   3 -16   10.03    0.72
   5   3 -16   66.09    3.28
  -5   3 -16   67.12    2.92
   6   3 -16    5.13    0.90
   7   3 -16   35.19    2.11
   7  -3 -16   34.20    2.04
   8   3 -16    2.87    0.91
   8  -3 -16    1.89    0.82
   9   3 -16   28.30    1.96
   9  -3 -16   27.03    1.92
  10   3 -16    1.50    0.92
  10  -3 -16    0.45    0.85
  11   3 -16    4.56    1.19
  11  -3 -16    4.86    1.14
  12   3 -16   -0.22    0.82
  12  -3 -16    0.88    0.95
  13   3 -16    0.88    0.98
  13  -3 -16    1.77    1.02
   0  -4 -16   54.26    2.43
   0   4 -16   46.32    2.43
   1   4 -16  130.80    5.78
   1  -4 -16  129.05    5.74
   2   4 -16   -0.71    0.49
  -2   4 -16    0.03    0.40
   2  -4 -16   -0.33    0.46
   3   4 -16   36.86    1.93
   3  -4 -16   31.62    1.84
  -3   4 -16   33.84    1.71
   4   4 -16   21.57    1.39
  -4   4 -16   18.93    1.12
   4  -4 -16   20.16    1.35
   5   4 -16   10.11    1.00
   6   4 -16    9.44    1.11
  -6   4 -16   10.06    0.68
   7   4 -16    0.98    0.76
   7  -4 -16    1.22    0.75
   8   4 -16    2.39    0.87
   8  -4 -16    1.55    0.80
   9   4 -16    0.10    0.84
   9  -4 -16   -0.44    0.81
  10   4 -16    7.58    1.24
  10  -4 -16    7.11    1.21
  11   4 -16    4.36    1.13
  11  -4 -16    6.67    1.20
  12   4 -16    1.67    0.99
  12  -4 -16    0.18    0.83
  13   4 -16    0.09    0.98
  13  -4 -16    0.87    0.92
   0   5 -16    1.20    0.57
   1   5 -16   16.95    1.21
  -1   5 -16   15.94    1.14
   2   5 -16    0.64    0.55
   2  -5 -16    1.79    0.53
  -2   5 -16   -0.38    0.20
   3   5 -16   25.56    1.56
  -3   5 -16   22.75    1.34
   3  -5 -16   25.00    1.50
   4   5 -16   15.41    1.18
   4  -5 -16   13.62    1.12
  -4   5 -16   12.30    0.92
   6   5 -16   26.19    1.72
  -6   5 -16   23.53    1.29
   7   5 -16   13.62    1.35
   7  -5 -16   10.33    1.22
   8   5 -16    3.12    0.91
   8  -5 -16    3.35    0.89
   9   5 -16    8.69    1.24
   9  -5 -16    7.88    1.15
  10   5 -16   12.46    1.49
  10  -5 -16   11.88    1.41
  11   5 -16    4.65    1.13
  11  -5 -16    5.90    1.16
  12   5 -16    0.27    0.93
  13   5 -16   -0.06    1.02
   0   6 -16  128.27    5.75
   1   6 -16    3.05    0.71
  -1   6 -16    5.10    0.74
   2   6 -16   21.05    1.38
  -2   6 -16   19.45    1.30
   3   6 -16    5.55    0.87
   4   6 -16   17.53    1.36
   4  -6 -16   20.33    1.39
  -5   6 -16    5.85    0.68
   6   6 -16    5.24    0.94
   6   6  16    6.06    0.57
  -6   6 -16    5.47    0.65
   7   6 -16    2.38    0.90
   7  -6 -16    4.62    0.92
   8   6 -16    2.77    0.91
   8  -6 -16    3.21    0.90
   9   6 -16    5.39    1.10
   9  -6 -16    3.79    0.97
  10   6 -16    4.88    1.08
  11   6 -16   -0.20    0.85
  12   6 -16    0.98    1.02
  13   6 -16    1.09    1.08
   0   7 -16    5.58    0.81
   1   7 -16    6.95    0.91
  -1   7 -16    5.83    0.83
   2   7 -16    5.58    0.88
  -2   7 -16    4.42    0.74
   3   7 -16    9.21    1.02
  -3   7 -16   10.30    0.92
   5   7 -16   -0.04    0.28
  -5   7 -16    0.27    0.23
   5   7  16    0.71    0.47
   6   7 -16    3.19    0.90
   6   7  16    3.85    0.56
   7   7 -16    1.85    0.87
  -7   7 -16    1.52    0.57
   8   7 -16   23.54    1.83
   9   7 -16    2.77    1.02
  10   7 -16    2.92    1.01
  11   7 -16    1.53    0.96
  12   7 -16    2.13    1.05
  13   7 -16    0.49    1.11
   0   8 -16   11.36    1.11
   1   8 -16    8.93    1.04
  -1   8 -16    9.63    1.00
   2   8 -16   28.53    1.80
  -2   8 -16   29.09    1.69
   3   8 -16    6.72    1.01
  -3   8 -16    7.94    0.88
  -4   8 -16    7.87    0.86
   5   8  16    4.67    0.67
  -5   8 -16    3.99    0.73
   6   8 -16    3.32    0.98
   6   8  16    4.31    0.64
  -6   8 -16    5.28    0.76
   7   8 -16    5.52    1.11
  -7   8 -16    6.01    0.75
   8   8 -16    6.79    1.16
   9   8 -16    1.03    0.98
  10   8 -16   -0.42    0.87
  11   8 -16   -0.45    0.95
  12   8 -16    2.56    1.13
  13   8 -16   -0.64    1.02
   0   9 -16   14.56    1.30
   1   9 -16    1.14    0.74
  -1   9 -16    2.04    0.70
   2   9 -16   27.67    1.82
  -2   9 -16   29.25    1.74
   3   9 -16   16.11    1.42
  -3   9 -16   18.36    1.29
   4   9  16    7.56    0.82
  -4   9 -16    7.59    0.92
  -5   9 -16    3.24    0.76
   5   9  16    4.52    0.68
   6   9 -16    6.93    1.13
   6   9  16    5.94    0.78
  -6   9 -16    7.11    0.89
   7   9 -16    8.44    1.26
  -7   9 -16    9.73    0.97
   8   9 -16    1.07    0.90
   9   9 -16    0.98    0.94
  10   9 -16    1.42    1.01
  11   9 -16    2.61    1.10
  12   9 -16    0.30    1.03
   0  10 -16    2.46    0.79
   1  10 -16   45.51    2.45
  -1  10 -16   42.03    2.40
   2  10 -16    7.15    1.06
  -2  10 -16    8.50    1.01
   3  10 -16   23.78    1.72
  -3  10 -16   24.56    1.59
  -4  10 -16    3.89    0.85
   4  10  16    3.99    0.74
   5  10 -16    7.76    1.18
   5  10  16    8.50    0.91
  -5  10 -16    9.80    1.06
   6  10 -16    9.24    1.28
   6  10  16   10.78    0.98
  -6  10 -16   10.10    1.06
   7  10 -16    3.46    1.08
  -7  10 -16    5.66    0.84
   8  10 -16    1.26    0.98
   9  10 -16    1.18    0.96
  10  10 -16    4.18    1.16
  11  10 -16    1.33    1.07
  12  10 -16    1.33    1.11
   0  11 -16   21.39    1.63
   1  11 -16   10.71    1.25
  -1  11 -16   10.34    1.17
   2  11 -16    2.34    0.92
  -2  11 -16    3.29    0.83
   3  11 -16    2.71    0.94
  -3  11 -16    1.29    0.77
   4  11 -16    1.70    0.86
  -4  11 -16    3.26    0.82
   4  11  16    1.41    0.66
   5  11 -16   15.08    1.56
   5  11  16   14.04    1.16
  -5  11 -16   14.48    1.24
   6  11 -16    4.80    1.12
  -6  11 -16    4.11    0.88
   6  11  16    5.31    0.84
   7  11 -16    3.61    1.05
  -7  11 -16    2.53    0.78
   8  11 -16    1.25    1.04
   9  11 -16    2.81    1.10
  10  11 -16    1.43    1.08
  11  11 -16    1.44    1.02
  12  11 -16    0.07    1.08
   0  12 -16   10.48    1.22
   1  12 -16    9.78    1.23
  -1  12 -16    9.35    1.17
   2  12 -16    1.84    0.90
  -2  12 -16    0.00    0.75
   3  12 -16    3.32    1.01
  -3  12 -16    3.59    0.88
   4  12 -16    2.72    0.91
  -4  12 -16    4.04    0.88
   4  12  16    2.38    0.74
   5  12 -16    6.89    1.18
   5  12  16    6.96    0.92
  -5  12 -16    6.83    1.03
   6  12 -16    0.40    0.92
   6  12  16    0.45    0.66
  -6  12 -16   -0.16    0.68
   7  12 -16    4.34    1.12
  -7  12 -16    2.27    0.82
   8  12 -16    2.40    1.07
   9  12 -16    0.93    1.06
  10  12 -16   -0.04    0.98
  11  12 -16   -0.79    1.06
  12  12 -16   -0.23    1.07
   0  13 -16   17.68    1.52
   1  13 -16    3.95    1.02
  -1  13 -16    4.53    0.97
   2  13 -16   -1.54    0.81
  -2  13 -16    0.69    0.85
   3  13 -16    3.87    1.04
  -3  13 -16    4.46    1.01
   4  13 -16    9.49    1.25
  -4  13 -16    9.69    1.19
   4  13  16   10.36    1.14
   5  13 -16    4.11    1.10
   5  13  16    4.56    0.91
  -5  13 -16    5.93    0.99
   6  13 -16    1.21    0.95
  -6  13 -16    0.57    0.75
   6  13  16    1.87    0.75
   7  13 -16    0.81    0.99
  -7  13 -16    1.12    0.79
   8  13 -16    2.13    1.09
   9  13 -16    1.29    1.06
  10  13 -16   -1.09    0.93
  11  13 -16    0.39    1.06
   0  14 -16   -0.80    0.76
   1  14 -16   -0.32    0.80
  -1  14 -16   -0.73    0.74
   2  14 -16    2.84    1.00
  -2  14 -16    2.12    0.89
   3  14 -16    2.50    1.01
   3  14  16    1.34    0.81
  -3  14 -16    1.82    0.93
   4  14 -16    2.28    1.01
  -4  14 -16    0.79    0.77
   4  14  16    4.27    0.89
   5  14 -16    2.43    1.10
  -5  14 -16    4.66    0.97
   5  14  16    3.46    0.84
   6  14 -16    0.76    1.00
  -6  14 -16    2.91    0.91
   6  14  16    1.88    0.81
   7  14 -16    0.58    1.02
  -7  14 -16    2.57    0.84
   8  14 -16   -0.61    0.96
   9  14 -16    2.53    1.19
  10  14 -16    0.30    1.04
  11  14 -16    0.22    1.13
   0  15 -16    1.08    0.90
   1  15 -16   -0.21    0.91
  -1  15 -16    2.00    0.98
   2  15 -16    2.29    1.04
  -2  15 -16    0.68    0.88
   3  15 -16    0.55    0.94
   3  15  16    0.52    0.82
  -3  15 -16    1.56    0.94
   4  15 -16    1.36    0.98
  -4  15 -16    2.49    0.91
   4  15  16    2.14    0.85
   5  15 -16    0.41    0.88
   5  15  16    0.50    0.81
  -5  15 -16    1.56    0.88
   6  15 -16    1.53    1.09
  -6  15 -16    1.66    0.87
   6  15  16    1.05    0.78
   7  15 -16   -1.33    0.90
  -7  15 -16    0.37    0.79
   8  15 -16   -0.49    0.95
   9  15 -16   -0.43    1.03
  10  15 -16    0.83    1.16
   0  16 -16   -0.33    0.86
   1  16 -16    2.77    1.03
  -1  16 -16    3.57    1.08
   2  16 -16    0.91    0.93
  -2  16 -16    0.13    0.86
   3  16 -16   -0.12    0.94
  -3  16 -16    0.85    0.85
   3  16  16    1.03    0.79
   4  16 -16    1.72    1.04
   4  16  16    2.47    0.90
  -4  16 -16    2.77    0.96
   5  16 -16    1.35    1.03
   5  16  16    0.35    0.81
  -5  16 -16    3.18    0.97
   6  16 -16    1.80    1.11
   6  16  16    0.36    0.76
  -6  16 -16    1.33    0.93
   7  16 -16    0.40    1.08
  -7  16 -16    0.59    0.83
   8  16 -16    2.12    1.19
   9  16 -16   -0.02    1.08
  10  16 -16    0.18    1.11
   0  17 -16    9.44    1.40
   1  17 -16    1.86    1.04
  -1  17 -16    1.21    0.97
   2  17 -16    1.75    1.04
   2  17  16   -0.21    0.91
  -2  17 -16    0.91    0.95
   3  17 -16    0.28    0.98
  -3  17 -16    1.65    0.94
   3  17  16    0.18    0.81
   4  17 -16    0.52    0.96
   4  17  16    0.64    0.82
  -4  17 -16    0.94    0.95
   5  17 -16    0.85    1.07
   5  17  16    2.33    0.92
  -5  17 -16    2.32    0.94
   6  17 -16    0.97    1.10
   6  17  16    0.78    0.78
  -6  17 -16    0.59    0.89
   7  17 -16   -1.17    1.00
  -7  17 -16    0.74    0.88
   8  17 -16   -0.36    1.11
   9  17 -16    1.31    1.18
   0  18 -16    6.63    1.26
   1  18 -16    1.31    1.02
  -1  18 -16    1.91    1.00
   2  18 -16   -0.31    1.00
  -2  18 -16    0.74    0.93
   2  18  16    0.35    0.87
   3  18 -16    2.60    1.09
   3  18  16    2.05    0.94
  -3  18 -16    1.63    1.00
   4  18 -16    1.04    1.03
  -4  18 -16    1.37    0.98
   4  18  16    1.20    0.91
   5  18 -16    0.71    1.05
   5  18  16    1.56    0.92
  -5  18 -16    1.44    1.00
   6  18 -16    0.89    1.15
  -6  18 -16    2.33    0.95
   6  18  16    0.40    0.88
   7  18 -16    0.20    1.17
  -7  18 -16    3.10    1.05
   8  18 -16    1.04    1.26
   9  18 -16    1.48    1.28
   0  19 -16   -0.29    1.02
   1  19 -16    1.48    1.06
  -1  19 -16    0.51    0.99
   1  19  16    2.73    1.09
   2  19 -16   -0.03    1.03
   2  19  16    1.75    1.00
  -2  19 -16    3.23    1.16
   3  19 -16   -1.65    0.90
   3  19  16    1.69    0.97
  -3  19 -16    0.55    1.00
   4  19 -16    1.75    1.10
   4  19  16    0.97    0.99
  -4  19 -16    1.92    1.00
   5  19 -16   -0.47    1.04
  -5  19 -16    0.60    0.97
   5  19  16    0.60    0.94
   6  19 -16    2.46    1.28
   6  19  16    2.75    1.01
  -6  19 -16    2.80    1.08
   7  19 -16    0.95    1.28
  -7  19 -16    1.83    1.06
   8  19 -16   -0.62    1.19
   0  20 -16    2.57    1.14
   1  20 -16    1.52    1.09
   1  20  16    1.44    0.97
  -1  20 -16    1.15    1.02
   2  20 -16    7.39    1.43
  -2  20 -16    6.46    1.31
   2  20  16    5.80    1.31
   3  20 -16    2.61    1.23
  -3  20 -16    0.57    1.03
   3  20  16    0.53    0.94
   4  20 -16    1.49    1.15
   4  20  16    1.87    1.01
  -4  20 -16    1.64    1.02
   5  20 -16   -0.52    1.14
   5  20  16    2.00    1.04
  -5  20 -16   -0.01    0.94
   6  20 -16    2.45    1.30
   6  20  16    2.46    1.07
  -6  20 -16    2.81    1.14
   7  20 -16    0.82    1.22
  -7  20 -16   -1.18    0.95
   0  21  16    1.11    1.05
   0  21 -16   -0.18    0.99
   1  21 -16   -0.74    1.09
  -1  21 -16    1.59    1.08
   1  21  16    0.90    1.06
   2  21 -16    1.58    1.23
  -2  21 -16    1.13    1.13
   2  21  16    1.32    1.06
   3  21 -16   -0.02    1.11
  -3  21 -16    0.85    1.08
   3  21  16   -0.12    0.92
   4  21 -16    1.19    1.17
   4  21  16    0.94    0.99
  -4  21 -16    3.90    1.22
   5  21 -16    0.15    1.17
   5  21  16    2.58    1.11
  -5  21 -16    0.36    0.98
   6  21 -16    1.07    1.27
   6  21  16    0.56    0.99
  -6  21 -16    0.11    1.01
   0  22  16    1.69    1.12
   0  22 -16    2.31    1.19
   1  22 -16    6.26    1.43
  -1  22  16    5.60    1.32
  -1  22 -16    2.33    1.20
   1  22  16    4.82    1.30
   2  22 -16    0.80    1.15
   2  22  16    2.00    1.14
  -2  22 -16    1.51    1.15
   3  22 -16    2.22    1.29
   3  22  16    3.36    1.19
  -3  22 -16    2.59    1.28
   4  22 -16    3.45    1.37
  -4  22 -16    3.25    1.28
   4  22  16    2.64    1.20
   5  22 -16    1.43    1.30
  -5  22 -16    1.80    1.09
   5  22  16    1.94    1.11
   0  23  16    1.26    1.15
   0  23 -16    1.36    1.19
  -1  23  16    1.15    1.14
   1  23 -16    1.25    1.20
  -1  23 -16   -0.14    1.05
   1  23  16    2.56    1.28
  -2  23  16    1.65    1.14
   2  23 -16    0.63    1.20
  -2  23 -16   -0.58    1.09
   2  23  16   -0.53    1.12
   3  23 -16    0.37    1.25
   3  23  16   -1.48    1.07
  -3  23 -16    0.39    1.15
   0   0 -17    0.74    0.38
   1   0 -17   96.10    4.38
  -1   0 -17   98.14    4.31
  -3   0 -17    2.50    0.39
   3   0 -17    2.12    0.59
  -4   0 -17    1.82    0.28
   4   0 -17   -0.05    0.49
   5   0 -17   -0.14    0.13
   6   0 -17   -0.23    0.27
   7   0 -17    0.94    0.75
   8   0 -17    3.48    0.90
   9   0 -17    3.03    0.92
  10   0 -17    0.03    0.87
  11   0 -17   -0.28    0.88
  12   0 -17    2.79    1.07
  13   0 -17    1.52    1.06
   0   1 -17   13.56    0.91
   0  -1 -17    9.93    0.83
  -1  -1 -17    4.95    0.56
   1   1 -17    3.25    0.62
  -1   1 -17    3.29    0.54
   1  -1 -17    5.45    0.68
   2   1 -17   20.57    1.27
  -2  -1 -17   19.04    1.06
  -2   1 -17   17.95    1.09
   2  -1 -17   20.46    1.26
   3   1 -17    6.75    0.84
  -3  -1 -17    8.97    0.61
   3  -1 -17    7.10    0.86
  -3   1 -17    7.50    0.62
   4   1 -17    2.48    0.68
  -4   1 -17    4.25    0.40
   4  -1 -17    5.12    0.80
   5   1 -17   -0.13    0.13
   5  -1 -17   -0.17    0.13
   6   1 -17    0.37    0.32
   6  -1 -17   -0.24    0.24
   7   1 -17    0.81    0.72
   7  -1 -17    0.02    0.70
   8   1 -17    2.36    0.85
   8  -1 -17    3.04    0.85
   9   1 -17    4.22    1.02
   9  -1 -17    3.97    0.99
  10   1 -17    6.63    1.18
  10  -1 -17    5.41    1.13
  11   1 -17    1.10    0.91
  11  -1 -17    0.45    0.87
  12   1 -17   -0.14    0.85
  12  -1 -17    0.53    0.88
  13   1 -17    2.44    1.07
  13  -1 -17   -0.13    0.95
   0   2 -17   35.96    1.77
   0  -2 -17   31.61    1.70
   1   2 -17    8.79    0.85
  -1  -2 -17    7.86    0.71
   1  -2 -17   11.20    0.90
   2   2 -17    4.58    0.70
  -2  -2 -17    4.12    0.50
   2  -2 -17    3.78    0.64
  -2   2 -17    4.88    0.57
   3   2 -17    9.42    0.86
  -3   2 -17    8.71    0.68
   3  -2 -17    8.47    0.90
   4   2 -17   20.99    1.41
  -4   2 -17   20.68    1.06
   4  -2 -17   20.03    1.32
   5   2 -17   -0.09    0.16
   5  -2 -17   -0.04    0.15
   6   2 -17   -0.18    0.31
   6  -2 -17    0.06    0.25
   7   2 -17    3.63    0.90
   7  -2 -17    3.42    0.85
   8   2 -17    9.04    1.20
   8  -2 -17    8.73    1.13
   9   2 -17   -0.12    0.82
   9  -2 -17    0.94    0.80
  10   2 -17    2.41    1.01
  10  -2 -17    2.07    0.93
  11   2 -17    3.83    1.07
  11  -2 -17    3.87    1.04
  12   2 -17    1.62    1.01
  12  -2 -17    2.74    1.05
  13   2 -17   -0.07    0.93
  13  -2 -17    0.96    0.98
   0  -3 -17   23.33    1.34
   0   3 -17   24.72    1.42
   1   3 -17   22.51    1.45
   1  -3 -17   28.04    1.46
   2   3 -17   66.13    3.03
   2  -3 -17   58.61    2.97
  -2   3 -17   62.68    2.88
   3   3 -17    7.82    0.89
  -3   3 -17    7.41    0.66
   3  -3 -17    6.33    0.81
   4   3 -17    2.56    0.70
   4  -3 -17    5.01    0.78
  -4   3 -17    3.02    0.47
   6   3 -17    0.68    0.39
   6  -3 -17   -0.08    0.22
   7   3 -17    0.38    0.74
   7  -3 -17    1.23    0.74
   8   3 -17    1.96    0.84
   8  -3 -17    1.66    0.81
   9   3 -17    6.98    1.15
   9  -3 -17    6.92    1.09
  10   3 -17   -0.85    0.83
  10  -3 -17   -0.82    0.82
  11   3 -17   -0.45    0.86
  11  -3 -17    0.09    0.83
  12   3 -17    2.46    1.08
  12  -3 -17    3.13    1.07
  13   3 -17    0.46    1.05
  13  -3 -17   -0.88    0.85
   0   4 -17    0.56    0.52
   0  -4 -17    4.21    0.57
   1   4 -17   67.91    3.20
   1  -4 -17   71.55    3.18
  -1   4 -17   62.21    3.11
   2   4 -17    6.69    0.83
   2  -4 -17    5.77    0.75
   3   4 -17   39.51    2.12
   3  -4 -17   38.62    2.12
  -3   4 -17   41.28    1.97
   4   4 -17    8.72    1.00
  -4   4 -17    7.73    0.70
   4  -4 -17    9.74    0.98
   7   4 -17    6.66    1.04
   7  -4 -17    4.76    0.97
   8   4 -17    0.18    0.76
   8  -4 -17    0.70    0.74
   9   4 -17    0.49    0.82
   9  -4 -17   -0.28    0.74
  10   4 -17    4.06    1.06
  10  -4 -17    2.94    1.00
  11   4 -17    1.58    1.03
  11  -4 -17    0.97    0.87
  12   4 -17    1.14    1.04
  12  -4 -17    1.65    0.98
  13   4 -17   -1.20    0.98
  13  -4 -17    0.26    1.00
   0   5 -17   40.47    2.10
   1   5 -17   11.00    0.96
  -1   5 -17   11.24    0.88
   1  -5 -17    8.45    0.87
   2   5 -17    9.56    0.97
   2  -5 -17    9.19    0.88
  -2   5 -17    6.35    0.72
   3   5 -17   18.64    1.31
   3  -5 -17   19.63    1.31
   4   5 -17   26.93    1.76
   4  -5 -17   30.35    1.74
  -4   5 -17   27.71    1.51
  -5   5 -17    3.22    0.54
   5   5  17    3.70    0.46
   6   5 -17    6.20    0.93
   7   5 -17   12.97    1.32
   7  -5 -17   13.50    1.36
   8   5 -17    4.22    0.99
   8  -5 -17    4.67    0.96
   9   5 -17    0.90    0.87
   9  -5 -17   -0.13    0.77
  10   5 -17    3.28    1.02
  10  -5 -17    2.50    0.92
  11   5 -17    6.48    1.26
  11  -5 -17    5.15    1.14
  12   5 -17    0.44    1.01
  12  -5 -17   -0.34    0.85
  13   5 -17    1.25    1.04
   0   6 -17    3.31    0.73
   1   6 -17   39.71    2.13
  -1   6 -17   39.54    2.09
   2   6 -17   31.13    1.76
  -2   6 -17   27.69    1.63
   3   6 -17    8.71    1.01
  -3   6 -17    7.77    0.82
   3  -6 -17    8.69    0.95
   4   6 -17    2.90    0.77
   4  -6 -17    3.57    0.76
   6   6 -17    1.74    0.73
   6  -6 -17    0.14    0.26
  -6   6 -17    1.13    0.52
   7   6 -17    1.69    0.87
   7  -6 -17    3.25    0.80
   8   6 -17    4.80    1.07
   8  -6 -17    5.32    1.01
   9   6 -17   17.57    1.62
   9  -6 -17   17.61    1.60
  10   6 -17    1.79    0.94
  10  -6 -17   -0.03    0.77
  11   6 -17    0.45    0.97
  12   6 -17    0.82    0.98
  13   6 -17    0.15    1.08
   0   7 -17   12.96    1.10
   1   7 -17   43.95    2.33
  -1   7 -17   42.60    2.24
   2   7 -17   16.11    1.25
  -2   7 -17   14.13    1.13
   3   7 -17   17.12    1.34
  -3   7 -17   15.96    1.17
  -4   7 -17   14.47    1.12
   6   7 -17   17.11    1.52
   6   7  17   19.01    1.11
   7   7 -17    0.41    0.83
   8   7 -17   10.56    1.33
   9   7 -17    1.13    0.96
  10   7 -17    2.31    1.00
  11   7 -17    1.35    1.00
  12   7 -17    3.18    1.15
  13   7 -17    1.41    1.12
   0   8 -17   43.40    2.35
   1   8 -17   17.37    1.35
  -1   8 -17   17.15    1.32
   2   8 -17   15.58    1.28
  -2   8 -17   12.01    1.13
   3   8 -17    9.85    1.15
  -3   8 -17    9.65    0.98
   5   8 -17   -0.34    0.20
  -5   8 -17    0.51    0.59
   5   8  17    0.50    0.52
   6   8 -17   13.85    1.45
  -6   8 -17   16.30    1.14
   6   8  17   15.49    1.06
   7   8 -17   22.12    1.77
   8   8 -17   -0.17    0.81
   9   8 -17    2.55    1.01
  10   8 -17    0.05    0.93
  11   8 -17    0.70    1.03
  12   8 -17   -0.58    0.91
   0   9 -17    9.69    1.10
   1   9 -17    0.48    0.76
  -1   9 -17    0.89    0.68
   2   9 -17   43.57    2.39
  -2   9 -17   40.66    2.24
   3   9 -17   11.14    1.26
  -3   9 -17   12.45    1.12
   4   9 -17   -0.28    0.24
  -4   9 -17    0.57    0.62
   5   9  17    8.14    0.85
  -5   9 -17    7.92    0.95
   6   9 -17    2.98    1.00
   6   9  17    4.74    0.70
  -6   9 -17    5.01    0.80
   7   9 -17    8.38    1.27
  -7   9 -17   10.27    0.99
   8   9 -17    3.60    1.06
   9   9 -17    6.84    1.25
  10   9 -17    3.11    1.14
  11   9 -17    3.16    1.18
  12   9 -17   -0.15    1.01
   0  10 -17   -1.12    0.67
   1  10 -17   34.21    2.07
  -1  10 -17   33.56    2.04
   2  10 -17    2.33    0.78
  -2  10 -17    1.42    0.75
   3  10 -17   19.44    1.57
  -3  10 -17   18.60    1.40
   4  10 -17    3.98    0.91
  -4  10 -17    4.35    0.84
   4  10  17    4.63    0.77
   5  10 -17   10.11    1.25
  -5  10 -17   12.05    1.17
   5  10  17   11.87    1.01
   6  10 -17    3.34    0.99
  -6  10 -17    4.31    0.83
   6  10  17    3.70    0.73
   7  10 -17    1.55    0.96
  -7  10 -17    2.49    0.74
   8  10 -17   18.59    1.83
   9  10 -17   -0.11    0.91
  10  10 -17    1.74    1.07
  11  10 -17    1.87    1.13
  12  10 -17    2.18    1.22
   0  11 -17   19.41    1.52
   1  11 -17    1.47    0.84
  -1  11 -17    3.42    0.84
   2  11 -17   15.64    1.45
  -2  11 -17   16.78    1.33
   3  11 -17    4.48    1.04
  -3  11 -17    5.14    0.92
   4  11 -17   -0.23    0.82
   4  11  17    1.00    0.65
  -4  11 -17    0.70    0.71
   5  11 -17   18.69    1.61
   5  11  17   17.01    1.30
  -5  11 -17   17.55    1.41
   6  11 -17    7.37    1.24
   6  11  17    7.35    0.90
  -6  11 -17    9.42    1.05
   7  11 -17    9.96    1.37
  -7  11 -17    8.89    1.04
   8  11 -17    2.61    1.07
   9  11 -17    6.22    1.29
  10  11 -17    0.74    1.01
  11  11 -17    0.76    1.04
  12  11 -17   -0.20    1.05
   0  12 -17   16.63    1.45
   1  12 -17   11.38    1.35
  -1  12 -17   12.76    1.32
   2  12 -17   12.76    1.46
  -2  12 -17   15.09    1.40
   3  12 -17   24.88    1.85
  -3  12 -17   22.34    1.66
   4  12 -17    5.87    1.16
  -4  12 -17    5.97    1.01
   4  12  17    6.92    0.95
   5  12 -17    4.74    1.10
  -5  12 -17    7.42    1.02
   5  12  17    3.87    0.84
   6  12 -17    7.04    1.26
   6  12  17    5.09    0.87
  -6  12 -17    4.90    0.90
   7  12 -17   10.13    1.44
  -7  12 -17   10.53    1.16
   8  12 -17   -0.70    0.90
   9  12 -17    1.66    1.11
  10  12 -17    1.79    1.16
  11  12 -17    0.44    1.12
   0  13 -17    4.10    1.00
   1  13 -17   14.04    1.48
  -1  13 -17   14.72    1.47
   2  13 -17    1.92    0.96
  -2  13 -17    2.40    0.84
   3  13 -17    5.10    1.13
  -3  13 -17    5.46    1.04
   4  13 -17   11.10    1.41
   4  13  17   10.15    1.16
  -4  13 -17   13.07    1.29
   5  13 -17    5.57    1.18
  -5  13 -17    5.75    1.01
   5  13  17    5.44    0.89
   6  13 -17    4.03    1.13
   6  13  17    5.38    0.89
  -6  13 -17    4.86    0.97
   7  13 -17    0.83    1.00
  -7  13 -17    2.18    0.85
   8  13 -17   11.04    1.57
   9  13 -17    0.00    1.03
  10  13 -17   -0.32    1.06
  11  13 -17    0.55    1.16
   0  14 -17    7.55    1.19
   1  14 -17    7.55    1.25
  -1  14 -17   10.36    1.25
   2  14 -17   29.13    2.11
  -2  14 -17   31.69    2.07
   3  14 -17    0.81    0.93
   3  14  17    1.70    0.77
  -3  14 -17   -0.15    0.78
   4  14 -17    0.68    0.93
   4  14  17    0.48    0.72
  -4  14 -17    1.27    0.87
   5  14 -17   13.71    1.63
   5  14  17   14.81    1.26
  -5  14 -17   14.23    1.42
   6  14 -17    6.05    1.30
  -6  14 -17    8.27    1.11
   6  14  17    6.51    1.03
   7  14 -17   -0.58    0.98
  -7  14 -17   -0.14    0.79
   8  14 -17   -0.46    0.97
   9  14 -17    3.24    1.24
  10  14 -17    0.61    1.15
  11  14 -17    0.21    1.07
   0  15 -17    8.95    1.30
   1  15 -17    7.44    1.24
  -1  15 -17    6.83    1.14
   2  15 -17    0.84    0.95
  -2  15 -17    1.75    0.93
   3  15 -17    6.51    1.25
  -3  15 -17   11.00    1.27
   3  15  17    6.06    1.04
   4  15 -17   14.85    1.67
  -4  15 -17   14.30    1.47
   4  15  17   13.41    1.36
   5  15 -17    1.49    1.04
  -5  15 -17    0.72    0.83
   5  15  17    0.90    0.83
   6  15 -17    4.91    1.26
   6  15  17    4.98    0.98
  -6  15 -17    4.41    1.01
   7  15 -17    5.37    1.30
  -7  15 -17    8.07    1.15
   8  15 -17    1.11    1.09
   9  15 -17    0.91    1.11
  10  15 -17    2.61    1.24
   0  16 -17    5.71    1.22
   1  16 -17   22.10    1.89
  -1  16 -17   24.87    1.85
   2  16 -17    4.30    1.13
  -2  16 -17    2.82    1.06
   3  16 -17   12.37    1.56
  -3  16 -17   13.21    1.51
   3  16  17   12.54    1.38
   4  16 -17    6.34    1.29
   4  16  17    6.86    1.11
  -4  16 -17    5.45    1.16
   5  16 -17    2.19    1.09
  -5  16 -17    2.33    0.96
   5  16  17    2.47    0.92
   6  16 -17    4.38    1.28
  -6  16 -17    3.47    0.98
   6  16  17    4.11    0.95
   7  16 -17    3.68    1.23
  -7  16 -17    3.71    0.99
   8  16 -17    2.74    1.22
   9  16 -17    0.04    1.12
  10  16 -17    0.22    1.07
   0  17 -17    0.49    0.95
   1  17 -17   -0.17    0.96
  -1  17 -17    2.55    1.03
   2  17 -17   21.99    1.87
   2  17  17   18.16    1.68
  -2  17 -17   17.09    1.74
   3  17 -17   -1.57    0.92
  -3  17 -17    0.89    0.89
   3  17  17    0.48    0.88
   4  17 -17   -0.79    0.95
  -4  17 -17   -0.18    0.88
   4  17  17   -0.35    0.80
   5  17 -17    8.85    1.45
   5  17  17    5.34    1.12
  -5  17 -17    6.95    1.21
   6  17 -17    4.33    1.29
   6  17  17    2.89    0.96
  -6  17 -17    3.87    1.05
   7  17 -17    4.04    1.27
  -7  17 -17    1.97    1.02
   8  17 -17   -0.38    1.11
   9  17 -17    5.07    1.43
   0  18 -17    8.02    1.36
   1  18 -17    5.63    1.29
  -1  18 -17    6.31    1.22
   2  18 -17    2.95    1.14
  -2  18 -17    2.52    1.02
   2  18  17    1.79    1.01
   3  18 -17    7.46    1.38
   3  18  17    6.01    1.21
  -3  18 -17    5.24    1.20
   4  18 -17    4.66    1.31
  -4  18 -17    4.05    1.16
   4  18  17    6.54    1.16
   5  18 -17   -1.22    0.97
   5  18  17    1.47    0.94
  -5  18 -17    0.62    0.95
   6  18 -17    1.50    1.16
  -6  18 -17    1.83    0.99
   6  18  17   -0.12    0.88
   7  18 -17    0.62    1.19
  -7  18 -17    3.04    1.05
   8  18 -17    0.47    1.29
   0  19 -17    3.01    1.13
   1  19 -17    2.17    1.11
  -1  19 -17    1.54    1.03
   1  19  17    1.19    0.97
   2  19 -17    0.22    1.04
   2  19  17    0.79    0.92
  -2  19 -17   -0.03    0.96
   3  19 -17    2.29    1.16
   3  19  17    3.42    1.09
  -3  19 -17    1.90    1.06
   4  19 -17    3.80    1.27
  -4  19 -17    5.69    1.21
   4  19  17    2.74    1.08
   5  19 -17   -0.39    1.08
  -5  19 -17   -0.82    0.83
   5  19  17    0.18    0.94
   6  19 -17    0.46    1.16
  -6  19 -17    0.98    1.02
   6  19  17    1.80    0.97
   7  19 -17    0.86    1.30
  -7  19 -17    1.81    1.06
   8  19 -17   -0.06    1.20
   0  20 -17    0.81    1.05
   1  20 -17    2.07    1.11
   1  20  17    3.93    1.17
  -1  20 -17    1.70    1.07
   2  20 -17    2.99    1.16
  -2  20 -17    4.48    1.23
   2  20  17    3.78    1.14
   3  20 -17   -0.83    1.03
  -3  20 -17   -0.45    1.02
   3  20  17    0.89    1.01
   4  20 -17    1.14    1.13
   4  20  17    1.50    0.97
  -4  20 -17    2.08    1.12
   5  20 -17    2.76    1.31
   5  20  17    3.16    1.09
  -5  20 -17    0.68    1.06
   6  20 -17    1.83    1.28
  -6  20 -17    0.52    1.03
   6  20  17    0.58    1.04
   7  20 -17   -0.42    1.30
  -7  20 -17    1.94    1.10
   0  21 -17    0.22    1.04
   0  21  17   -1.07    0.93
   1  21 -17    2.00    1.16
  -1  21 -17    0.02    1.08
   1  21  17    1.83    1.07
   2  21 -17    0.80    1.15
  -2  21 -17    0.28    1.07
   2  21  17    0.86    1.10
   3  21 -17    1.33    1.16
   3  21  17    1.36    1.06
  -3  21 -17    2.00    1.09
   4  21 -17    0.42    1.19
   4  21  17    0.34    1.01
  -4  21 -17    0.92    1.07
   5  21 -17    0.74    1.24
  -5  21 -17    2.44    1.19
   5  21  17    1.14    1.07
   6  21 -17    0.27    1.30
   6  21  17    3.69    1.12
  -6  21 -17    1.89    1.12
   0  22  17    1.02    1.13
   0  22 -17   -0.45    1.09
  -1  22  17    2.06    1.14
   1  22 -17    0.53    1.16
  -1  22 -17    0.12    1.06
   1  22  17    0.42    1.08
   2  22 -17    0.66    1.20
   2  22  17    0.89    1.11
  -2  22 -17    0.09    1.06
   3  22 -17    3.68    1.34
   3  22  17    1.37    1.13
  -3  22 -17    0.84    1.10
   4  22 -17   -1.29    1.12
  -4  22 -17   -0.74    1.01
   4  22  17   -0.92    1.03
   0  23 -17   -0.07    1.17
   0  23  17   -0.28    1.10
   1  23 -17   -2.41    1.03
  -1  23  17    1.45    1.16
  -1  23 -17   -0.51    1.13
   1  23  17    2.60    1.19
   2  23 -17   -0.73    1.10
  -2  23 -17   -0.29    1.08
   2  23  17    0.80    1.13
   0   0 -18    5.82    0.73
   1   0 -18   18.50    1.24
  -2   0 -18    0.48    0.38
   2   0 -18    0.16    0.52
  -3   0 -18    6.19    0.56
   3   0 -18    5.45    0.80
   4   0 -18   18.75    1.30
  -4   0 -18   19.09    0.95
   6   0 -18   -0.22    0.23
   7   0 -18    8.10    1.13
   8   0 -18    0.11    0.76
   9   0 -18   37.84    2.36
  10   0 -18   -0.44    0.83
  11   0 -18    4.08    1.11
  12   0 -18   -1.78    0.81
  13   0 -18    2.62    1.11
   0  -1 -18  172.97    7.45
   0   1 -18  169.73    7.46
   1   1 -18  146.47    6.52
   1  -1 -18  148.96    6.51
  -2  -1 -18    5.47    0.59
   2   1 -18    7.32    0.81
   2  -1 -18    6.19    0.80
  -2   1 -18    6.61    0.64
  -3  -1 -18   51.68    2.37
   3   1 -18   54.66    2.67
   3  -1 -18   51.68    2.65
  -3   1 -18   52.17    2.39
   4   1 -18   30.91    1.73
   4  -1 -18   31.78    1.79
  -4   1 -18   27.69    1.39
   5   1 -18    0.11    0.20
   5  -1 -18    0.71    0.26
   6   1 -18   -0.15    0.24
   6  -1 -18    0.09    0.25
   7   1 -18    7.66    1.11
   7  -1 -18    6.92    1.02
   8   1 -18    9.72    1.23
   8  -1 -18    8.83    1.17
   9   1 -18    1.81    0.91
   9  -1 -18    1.37    0.87
  10   1 -18    0.48    0.88
  10  -1 -18    1.41    0.91
  11   1 -18    1.16    0.93
  11  -1 -18    1.46    0.95
  12   1 -18    0.44    0.95
  12  -1 -18    0.41    0.93
  13   1 -18   -0.35    0.97
  13  -1 -18    1.69    1.11
   0   2 -18    6.14    0.79
   0  -2 -18    9.43    0.80
  -2  -2 -18   11.83    0.84
   2   2 -18   12.68    1.02
   2  -2 -18   12.01    1.04
  -2   2 -18   12.76    0.86
   3   2 -18   33.90    1.85
  -3   2 -18   30.43    1.57
   3  -2 -18   32.27    1.81
   4   2 -18   12.69    1.12
  -4   2 -18   11.13    0.73
   4  -2 -18   11.44    1.06
   5   2 -18   -0.24    0.16
   5  -2 -18   -0.22    0.16
   6   2 -18   -0.19    0.26
   6  -2 -18   -0.03    0.24
   7   2 -18   43.96    2.44
   7  -2 -18   39.05    2.38
   8   2 -18   18.15    1.58
   8  -2 -18   20.07    1.57
   9   2 -18    3.44    1.04
   9  -2 -18    4.17    1.00
  10   2 -18   11.72    1.50
  10  -2 -18   12.51    1.46
  11   2 -18    4.23    1.12
  11  -2 -18    1.82    0.98
  12   2 -18    0.32    0.97
  12  -2 -18   -0.37    0.90
  13   2 -18    1.83    1.07
  13  -2 -18    0.03    1.04
   0  -3 -18   57.14    2.63
   0   3 -18   52.30    2.63
   1   3 -18    6.39    0.79
  -1   3 -18    6.83    0.76
   1  -3 -18    7.86    0.80
   2   3 -18  115.36    5.27
   2  -3 -18  117.47    5.25
   3   3 -18   12.41    1.10
  -3   3 -18   13.04    0.88
   3  -3 -18   12.42    1.06
   4   3 -18   19.05    1.32
   4  -3 -18   16.28    1.27
  -4   3 -18   15.74    0.97
   5   3 -18   -0.19    0.17
   5  -3 -18    0.00    0.18
  -5   3 -18    2.35    0.37
   6   3 -18   -0.33    0.24
   6  -3 -18    0.40    0.28
   7   3 -18    5.37    0.96
   7  -3 -18    3.04    0.91
   8   3 -18    0.59    0.79
   8  -3 -18    1.95    0.84
   9   3 -18    5.13    1.07
   9  -3 -18    4.32    1.00
  10   3 -18   -0.72    0.82
  10  -3 -18    0.28    0.79
  11   3 -18    0.70    0.94
  11  -3 -18    0.36    0.88
  12   3 -18    1.69    1.01
  12  -3 -18    1.60    1.07
  13   3 -18    1.04    1.10
  13  -3 -18    1.11    1.08
   0  -4 -18    5.99    0.68
   0   4 -18    6.03    0.76
   1   4 -18    3.79    0.67
   1  -4 -18    3.38    0.60
  -1   4 -18    3.49    0.64
   2   4 -18    3.57    0.73
   2  -4 -18    3.72    0.67
   3   4 -18    7.30    0.93
   3  -4 -18    5.91    0.83
  -3   4 -18    8.52    0.77
   4   4 -18   43.97    2.39
   4  -4 -18   44.69    2.36
  -4   4 -18   43.64    2.10
   5   4 -18   -0.19    0.16
   5  -4 -18   -0.17    0.18
  -5   4 -18   -0.89    0.37
   6   4 -18   -0.29    0.24
   6  -4 -18    0.11    0.23
   7   4 -18    6.36    1.08
   7  -4 -18    6.68    1.01
   8   4 -18   29.89    2.08
   8  -4 -18   34.68    2.13
   9   4 -18    1.15    0.90
   9  -4 -18    1.32    0.86
  10   4 -18    0.79    0.90
  10  -4 -18    2.05    0.95
  11   4 -18    2.84    1.04
  11  -4 -18    0.95    0.95
  12   4 -18    4.53    1.21
  12  -4 -18    6.32    1.23
  13   4 -18    0.52    1.07
  13  -4 -18    0.62    1.03
   0   5 -18   50.71    2.54
   1   5 -18   40.11    2.10
   1  -5 -18   38.58    2.03
  -1   5 -18   38.31    2.02
   2   5 -18   21.52    1.42
   2  -5 -18   21.56    1.34
  -2   5 -18   19.49    1.29
   3   5 -18   17.81    1.35
   3  -5 -18   17.72    1.27
   4   5 -18   16.64    1.37
   4  -5 -18   18.19    1.34
  -4   5 -18   17.89    1.12
   5   5  18    6.43    0.59
   6   5 -18    0.34    0.45
  -6   5 -18    0.33    0.44
   6  -5 -18    0.26    0.28
   7   5 -18   18.21    1.56
   7  -5 -18   18.39    1.53
   8   5 -18    0.52    0.83
   8  -5 -18   -1.01    0.74
   9   5 -18    0.72    0.88
   9  -5 -18    0.67    0.87
  10   5 -18    3.77    1.05
  10  -5 -18    4.56    1.09
  11   5 -18    0.63    0.93
  11  -5 -18   -0.19    0.81
  12   5 -18    1.38    1.02
  12  -5 -18    1.26    1.00
  13   5 -18    1.52    1.09
   0   6 -18   -0.07    0.57
   1   6 -18    0.21    0.63
  -1   6 -18    1.43    0.64
   2   6 -18   -0.23    0.59
  -2   6 -18    0.82    0.57
   3   6 -18   12.91    1.22
   3  -6 -18   13.22    1.11
  -3   6 -18   11.22    1.01
   4   6 -18    1.79    0.77
   4  -6 -18    2.11    0.70
   6   6 -18    3.41    0.88
  -6   6 -18    4.58    0.64
   7   6 -18   25.58    1.84
   7  -6 -18   24.54    1.78
   8   6 -18    0.67    0.84
   8  -6 -18    1.27    0.81
   9   6 -18   10.51    1.40
   9  -6 -18   11.35    1.39
  10   6 -18    1.31    0.96
  10  -6 -18    1.51    0.89
  11   6 -18    6.01    1.19
  12   6 -18    0.68    1.01
  13   6 -18   -1.38    0.95
   0   7 -18    0.91    0.70
   1   7 -18   51.71    2.63
  -1   7 -18   49.41    2.55
   2   7 -18    7.35    1.00
  -2   7 -18    7.33    0.89
   3   7 -18   23.45    1.60
  -3   7 -18   23.03    1.47
   4   7 -18   -0.10    0.60
  -4   7 -18    0.19    0.57
   6   7 -18    1.85    0.86
  -6   7 -18    0.32    0.31
   7   7 -18    0.67    0.84
   8   7 -18    0.34    0.84
   9   7 -18    1.75    0.93
  10   7 -18    0.93    1.02
  11   7 -18    4.53    1.15
  12   7 -18   -2.24    0.82
  13   7 -18   -0.91    1.05
   0   8 -18    6.16    0.91
   1   8 -18   10.09    1.16
  -1   8 -18   12.21    1.15
   2   8 -18    5.32    0.96
  -2   8 -18    5.40    0.83
   3   8 -18    2.22    0.81
  -3   8 -18   -0.40    0.65
   4   8 -18    6.70    1.00
  -4   8 -18    8.63    0.95
  -5   8 -18   25.84    1.54
   5   8  18   25.01    1.43
   6   8 -18    9.25    1.27
  -6   8 -18   11.60    1.02
   7   8 -18    1.08    0.92
   8   8 -18    0.48    0.85
   9   8 -18    7.86    1.26
  10   8 -18    5.84    1.25
  11   8 -18    0.26    1.00
  12   8 -18   -0.08    0.99
   0   9 -18   53.31    2.81
   1   9 -18    4.61    0.97
  -1   9 -18    5.28    0.88
   2   9 -18    0.94    0.78
  -2   9 -18    0.11    0.67
   3   9 -18   12.25    1.32
  -3   9 -18   11.43    1.13
   4   9 -18   34.53    2.15
  -4   9 -18   34.34    1.98
   5   9 -18   -0.81    0.65
   5   9  18   -0.53    0.52
  -5   9 -18    0.16    0.63
   6   9 -18    0.59    0.86
  -6   9 -18   -0.20    0.61
   6   9  18    0.53    0.53
   7   9 -18    2.48    0.99
   8   9 -18    2.01    1.02
   9   9 -18    1.68    0.99
  10   9 -18    0.46    0.93
  11   9 -18    1.48    1.08
  12   9 -18   -0.38    0.98
   0  10 -18    3.15    0.89
   1  10 -18    6.40    1.04
  -1  10 -18    6.49    0.99
   2  10 -18    0.87    0.83
  -2  10 -18    0.93    0.71
   3  10 -18   14.67    1.44
  -3  10 -18   13.40    1.25
   4  10 -18    3.71    0.98
  -4  10 -18    5.61    0.89
   5  10 -18   11.18    1.36
  -5  10 -18   12.91    1.10
   5  10  18   11.51    1.01
   6  10 -18    4.82    1.10
   6  10  18    7.28    0.84
  -6  10 -18    7.10    0.92
   7  10 -18    0.01    0.91
   8  10 -18    3.43    1.11
   9  10 -18    0.75    0.96
  10  10 -18    1.48    1.01
  11  10 -18   -0.04    1.06
  12  10 -18    1.90    1.22
   0  11 -18    0.56    0.77
   1  11 -18   10.48    1.25
  -1  11 -18    9.19    1.19
   2  11 -18   18.58    1.58
  -2  11 -18   18.70    1.43
   3  11 -18    1.40    0.90
  -3  11 -18    1.63    0.79
   4  11 -18    2.21    0.92
  -4  11 -18    1.75    0.76
   4  11  18    1.30    0.65
   5  11 -18    4.47    1.06
   5  11  18    5.20    0.82
  -5  11 -18    5.19    0.94
   6  11 -18    2.98    1.03
   6  11  18    4.36    0.78
  -6  11 -18    5.12    0.90
   7  11 -18    6.40    1.23
  -7  11 -18    8.47    1.03
   8  11 -18    6.37    1.25
   9  11 -18    0.93    1.01
  10  11 -18   -0.43    0.91
  11  11 -18    0.01    0.94
  12  11 -18    0.05    1.05
   0  12 -18    8.70    1.20
   1  12 -18    3.51    0.97
  -1  12 -18    2.49    0.91
   2  12 -18    2.61    0.97
  -2  12 -18    0.75    0.78
   3  12 -18    6.83    1.20
  -3  12 -18    6.21    1.03
   4  12 -18    3.40    1.06
   4  12  18    5.09    0.84
  -4  12 -18    5.53    0.96
   5  12 -18    1.56    0.97
  -5  12 -18    2.24    0.82
   5  12  18    3.33    0.78
   6  12 -18    0.35    0.91
  -6  12 -18   -0.12    0.70
   6  12  18    0.69    0.69
   7  12 -18    3.28    1.12
  -7  12 -18    3.18    0.85
   8  12 -18    1.06    1.09
   9  12 -18    0.00    0.97
  10  12 -18   -0.32    0.99
  11  12 -18    0.50    1.09
   0  13 -18    4.73    1.02
   1  13 -18    0.93    0.89
  -1  13 -18    2.19    0.88
   2  13 -18    4.28    1.07
  -2  13 -18    5.60    1.00
   3  13 -18    3.07    1.01
  -3  13 -18    1.99    0.87
   4  13 -18    4.79    1.13
   4  13  18    4.06    0.82
  -4  13 -18    2.77    0.91
   5  13 -18    0.67    0.95
  -5  13 -18    2.08    0.85
   5  13  18    2.46    0.78
   6  13 -18    5.55    1.22
  -6  13 -18    8.54    1.12
   6  13  18    5.44    0.96
   7  13 -18    3.11    1.12
  -7  13 -18    2.46    0.88
   8  13 -18    2.00    1.04
   9  13 -18    0.09    0.99
  10  13 -18    2.02    1.16
  11  13 -18   -0.66    1.01
   0  14 -18   14.34    1.51
   1  14 -18    1.04    0.93
  -1  14 -18    1.97    0.91
   2  14 -18    3.02    1.04
  -2  14 -18    4.09    0.99
   3  14 -18    2.67    1.04
  -3  14 -18    2.97    0.97
   4  14 -18    0.34    0.92
  -4  14 -18    0.85    0.83
   4  14  18    0.88    0.72
   5  14 -18    1.25    1.02
  -5  14 -18    2.28    0.90
   5  14  18    2.52    0.81
   6  14 -18    1.36    1.00
  -6  14 -18    1.28    0.84
   6  14  18    0.86    0.80
   7  14 -18    0.23    1.01
  -7  14 -18    1.22    0.79
   8  14 -18    0.57    0.99
   9  14 -18   -1.13    0.98
  10  14 -18    1.66    1.19
   0  15 -18    0.10    0.87
   1  15 -18   -1.04    0.84
  -1  15 -18    0.82    0.86
   2  15 -18    0.04    0.89
  -2  15 -18    1.23    0.92
   3  15 -18    0.72    0.97
   3  15  18    1.67    0.83
  -3  15 -18    2.17    0.92
   4  15 -18    3.18    1.11
   4  15  18    1.86    0.79
  -4  15 -18    0.94    0.90
   5  15 -18    0.36    0.97
   5  15  18   -1.47    0.64
  -5  15 -18    0.53    0.84
   6  15 -18    1.12    1.03
   6  15  18    2.01    0.85
  -6  15 -18    2.17    0.89
   7  15 -18    3.52    1.28
  -7  15 -18    4.51    1.01
   8  15 -18    1.85    1.11
   9  15 -18    0.43    1.09
  10  15 -18    1.84    1.17
   0  16 -18    5.23    1.18
   1  16 -18    1.16    0.99
  -1  16 -18    0.99    0.96
   2  16 -18    1.87    1.02
  -2  16 -18    0.97    0.97
   3  16 -18    0.96    0.92
  -3  16 -18   -0.08    0.89
   3  16  18    0.07    0.84
   4  16 -18   -0.41    0.80
  -4  16 -18   -1.30    0.72
   4  16  18   -0.69    0.73
   5  16 -18    0.95    1.02
  -5  16 -18    1.02    0.88
   5  16  18    0.11    0.75
   6  16 -18    0.13    1.04
   6  16  18    0.83    0.84
  -6  16 -18    0.88    0.87
   7  16 -18   -1.53    0.97
  -7  16 -18    0.22    0.81
   8  16 -18    1.65    1.16
   9  16 -18    1.72    1.27
   0  17 -18    0.17    0.94
   1  17 -18   -0.98    0.88
  -1  17 -18   -0.19    0.85
   2  17 -18    2.02    1.08
   2  17  18    2.97    0.95
  -2  17 -18    0.52    0.88
   3  17 -18   -0.38    0.98
  -3  17 -18    0.54    0.90
   3  17  18    0.01    0.85
   4  17 -18    1.39    1.08
   4  17  18    0.53    0.83
  -4  17 -18    1.24    0.95
   5  17 -18    0.80    1.03
   5  17  18    1.16    0.83
  -5  17 -18    0.25    0.92
   6  17 -18   -0.24    1.09
  -6  17 -18    0.63    0.93
   6  17  18    1.05    0.80
   7  17 -18   -0.09    1.12
  -7  17 -18    0.49    0.87
   8  17 -18    0.27    1.12
   9  17 -18    2.00    1.21
   0  18 -18    1.43    1.02
   1  18 -18   -0.13    0.98
  -1  18 -18   -0.52    0.93
   2  18 -18    1.92    1.09
   2  18  18    1.77    0.98
  -2  18 -18    1.12    1.02
   3  18 -18    2.72    1.16
  -3  18 -18    0.88    0.95
   3  18  18    2.06    0.94
   4  18 -18    0.25    1.05
   4  18  18    1.10    0.88
  -4  18 -18    1.15    1.00
   5  18 -18   -1.63    0.95
   5  18  18   -0.69    0.78
  -5  18 -18    0.42    0.97
   6  18 -18    0.32    1.13
   6  18  18    2.21    0.96
  -6  18 -18    0.21    0.93
   7  18 -18    0.61    1.20
  -7  18 -18    1.32    0.98
   8  18 -18    2.09    1.25
   0  19 -18    4.98    1.24
   1  19 -18    4.38    1.24
  -1  19 -18    2.40    1.11
   2  19 -18    0.46    1.05
  -2  19 -18    1.13    1.00
   2  19  18   -0.99    0.88
   3  19 -18    1.03    1.11
  -3  19 -18    0.43    0.95
   3  19  18    1.47    0.93
   4  19 -18    1.45    1.12
  -4  19 -18    1.55    1.05
   4  19  18    0.19    0.89
   5  19 -18    0.38    1.09
  -5  19 -18    1.40    1.00
   5  19  18    0.23    0.90
   6  19 -18    1.57    1.22
  -6  19 -18   -0.21    0.95
   7  19 -18   -0.02    1.16
  -7  19 -18    0.84    1.01
   0  20 -18    1.79    1.12
   1  20 -18    1.34    1.09
   1  20  18    1.74    1.05
  -1  20 -18    2.09    1.13
   2  20 -18   -0.54    1.05
   2  20  18   -0.15    0.92
  -2  20 -18   -0.26    1.01
   3  20 -18    0.92    1.11
  -3  20 -18   -0.01    0.95
   3  20  18    0.43    1.01
   4  20 -18    1.83    1.18
   4  20  18    1.46    1.03
  -4  20 -18    1.33    1.07
   5  20 -18    3.53    1.35
  -5  20 -18    5.34    1.31
   5  20  18    3.93    1.13
   6  20 -18    0.80    1.21
  -6  20 -18    0.88    1.09
   0  21  18    2.05    1.10
   0  21 -18    1.16    1.12
   1  21 -18    2.49    1.21
  -1  21 -18    2.57    1.19
   1  21  18    2.36    1.16
   2  21 -18   -0.14    1.11
   2  21  18    1.86    1.10
  -2  21 -18   -0.43    0.97
   3  21 -18    0.35    1.16
  -3  21 -18    0.67    1.11
   3  21  18    0.93    1.08
   4  21 -18    2.12    1.31
   4  21  18    1.10    1.02
  -4  21 -18    2.78    1.20
   5  21 -18    1.42    1.28
  -5  21 -18    1.10    1.06
   5  21  18    0.11    1.02
   0  22 -18    1.36    1.17
   0  22  18    0.24    1.04
   1  22 -18    1.29    1.18
  -1  22 -18    0.90    1.12
   1  22  18   -0.58    1.07
   2  22 -18    0.37    1.17
  -2  22 -18    2.10    1.15
   2  22  18    1.71    1.19
   3  22 -18    1.56    1.29
  -3  22 -18    0.70    1.08
   3  22  18    2.58    1.19
   4  22 -18    2.70    1.34
  -4  22 -18   -1.76    1.04
   4  22  18    0.52    1.07
   0  23  18    2.90    1.29
   0  23 -18   -0.65    1.10
  -1  23  18    1.78    1.23
   1  23 -18   -1.97    1.10
  -1  23 -18    0.33    1.19
   1  23  18   -0.68    1.02
   0   0 -19    0.45    0.50
  -1   0 -19   -0.08    0.26
   1   0 -19   -0.09    0.46
  -2   0 -19    2.17    0.50
   2   0 -19    2.75    0.64
   3   0 -19   -0.16    0.55
  -3   0 -19   -0.62    0.32
  -4   0 -19    5.60    0.53
   4   0 -19    8.00    0.92
   5   0 -19   -0.20    0.22
   6   0 -19   -0.38    0.21
   7   0 -19    0.93    0.81
   8   0 -19   11.33    1.34
   9   0 -19    1.82    0.88
  10   0 -19    0.37    0.83
  11   0 -19    0.93    0.91
  12   0 -19    3.36    1.08
  13   0 -19   -0.74    0.94
   0  -1 -19    3.22    0.61
   0   1 -19    3.92    0.64
  -1  -1 -19    0.48    0.27
   1   1 -19    1.34    0.55
  -1   1 -19    0.21    0.34
  -2  -1 -19   11.58    0.86
   2   1 -19   14.18    1.08
  -2   1 -19   14.31    0.91
   2  -1 -19   14.17    1.08
  -3  -1 -19    8.60    0.68
   3   1 -19    9.48    0.98
  -3   1 -19   11.03    0.74
   3  -1 -19    9.96    1.01
   4   1 -19    1.80    0.67
  -4   1 -19    0.17    0.32
   4  -1 -19    0.39    0.60
   5   1 -19   -0.31    0.20
   5  -1 -19    0.09    0.27
   6   1 -19   -0.24    0.22
   6  -1 -19   -0.16    0.21
   7   1 -19    4.65    0.99
   7  -1 -19    3.34    0.92
   8   1 -19    3.18    1.00
   8  -1 -19    5.60    1.06
   9   1 -19    1.25    0.91
   9  -1 -19    1.75    0.91
  10   1 -19    0.31    0.81
  10  -1 -19   -0.19    0.78
  11   1 -19    1.35    0.95
  11  -1 -19    2.35    1.02
  12   1 -19    0.30    0.95
  12  -1 -19   -0.01    0.96
  13   1 -19    0.54    1.03
  13  -1 -19    0.15    0.99
   0  -2 -19    0.74    0.49
   0   2 -19    0.85    0.54
   1   2 -19   21.61    1.38
   1  -2 -19   23.16    1.35
  -1   2 -19   21.59    1.27
   2   2 -19    2.44    0.65
  -2  -2 -19    3.44    0.53
   2  -2 -19    2.26    0.63
  -2   2 -19    1.66    0.45
   3   2 -19   16.77    1.24
   3  -2 -19   16.17    1.22
  -3   2 -19   16.09    1.00
   4   2 -19    0.42    0.56
  -4   2 -19   -0.09    0.35
   4  -2 -19    0.04    0.59
   5   2 -19   -0.15    0.20
   5  -2 -19   -0.05    0.25
   6   2 -19   -0.43    0.19
   6  -2 -19    0.06    0.24
   7   2 -19   19.00    1.58
   7  -2 -19   20.60    1.60
   8   2 -19    0.07    0.80
   8  -2 -19   -0.21    0.78
   9   2 -19    2.20    0.95
   9  -2 -19    1.08    0.89
  10   2 -19    3.13    1.02
  10  -2 -19    0.33    0.86
  11   2 -19    0.75    0.90
  11  -2 -19   -0.06    0.86
  12   2 -19   -0.11    0.93
  12  -2 -19    1.27    0.98
  13   2 -19   -0.33    1.04
  13  -2 -19   -0.43    0.99
   0   3 -19   10.70    0.96
   0  -3 -19    9.14    0.80
  -1  -3 -19    3.01    0.54
   1   3 -19    2.79    0.65
  -1   3 -19    2.14    0.62
   1  -3 -19    3.04    0.61
   2   3 -19   16.12    1.21
   2  -3 -19   15.67    1.16
   3   3 -19   10.95    1.07
  -3   3 -19    9.77    0.81
   3  -3 -19   10.40    1.04
   4   3 -19    7.10    0.97
   4  -3 -19    6.72    0.94
  -4   3 -19    7.94    0.68
   6   3 -19   -0.13    0.26
   6  -3 -19   -0.07    0.19
   7   3 -19    2.84    0.92
   7  -3 -19    2.76    0.92
   8   3 -19    2.77    0.95
   8  -3 -19    2.90    0.92
   9   3 -19    2.99    0.98
   9  -3 -19    2.46    0.92
  10   3 -19    2.07    1.01
  10  -3 -19    1.85    0.96
  11   3 -19    1.00    0.94
  11  -3 -19    1.14    1.00
  12   3 -19    1.12    0.98
  12  -3 -19   -0.50    0.86
  13   3 -19    0.19    1.07
  13  -3 -19   -0.45    1.00
   0   4 -19    2.02    0.61
   0  -4 -19    1.07    0.46
   1   4 -19   47.44    2.40
   1  -4 -19   45.85    2.32
  -1   4 -19   44.38    2.30
   2   4 -19   18.74    1.28
   2  -4 -19   16.10    1.18
  -2   4 -19   16.16    1.10
   3   4 -19   24.36    1.61
   3  -4 -19   25.96    1.59
   4   4 -19    0.26    0.69
  -4   4 -19    1.44    0.48
   4  -4 -19    0.65    0.61
   6   4 -19    0.38    0.31
   6  -4 -19   -0.30    0.20
   7   4 -19    3.84    0.96
   7  -4 -19    3.51    0.90
   8   4 -19    4.69    1.04
   8  -4 -19    4.06    0.97
   9   4 -19    7.12    1.22
   9  -4 -19    8.00    1.21
  10   4 -19    4.47    1.10
  10  -4 -19    5.33    1.15
  11   4 -19   -0.96    0.82
  11  -4 -19   -1.52    0.84
  12   4 -19    0.82    0.98
  12  -4 -19   -0.09    0.88
  13   4 -19    0.38    1.02
  13  -4 -19   -0.53    1.01
   0   5 -19   50.84    2.57
   1   5 -19    2.97    0.74
  -1   5 -19    3.31    0.69
   1  -5 -19    6.24    0.76
   2   5 -19    4.12    0.76
   2  -5 -19    3.91    0.71
  -2   5 -19    4.62    0.70
   3   5 -19    4.84    0.90
   3  -5 -19    6.19    0.85
   4   5 -19   42.27    2.34
  -4   5 -19   40.40    2.06
   4  -5 -19   42.45    2.30
   6   5 -19    4.60    0.86
   6  -5 -19    3.83    0.70
   7   5 -19    1.17    0.78
   7  -5 -19    2.36    0.84
   8   5 -19    9.33    1.27
   8  -5 -19    6.70    1.13
   9   5 -19    6.72    1.19
   9  -5 -19    6.03    1.14
  10   5 -19    1.71    0.96
  10  -5 -19    1.44    0.89
  11   5 -19    1.18    0.95
  11  -5 -19    0.27    0.93
  12   5 -19    1.08    1.06
  12  -5 -19   -1.01    0.88
  13   5 -19    0.13    1.12
   0   6 -19   14.21    1.14
   1   6 -19   19.43    1.37
  -1   6 -19   19.23    1.32
   2   6 -19   10.45    1.11
  -2   6 -19   11.42    1.00
   3   6 -19   18.54    1.39
   3  -6 -19   15.17    1.25
  -3   6 -19   16.45    1.18
   4   6 -19   10.05    1.16
   4  -6 -19   10.34    1.08
   5  -6 -19   14.03    1.26
  -5   6 -19   19.72    1.18
   5   6  19   22.60    1.13
   6   6 -19    7.31    1.10
   6  -6 -19    4.09    0.90
  -6   6 -19    6.27    0.71
   7   6 -19    4.54    1.00
   7  -6 -19    2.33    0.85
   8   6 -19    1.34    0.89
   8  -6 -19    0.82    0.81
   9   6 -19    4.41    1.08
   9  -6 -19    2.99    1.02
  10   6 -19    2.47    1.01
  10  -6 -19    3.34    1.02
  11   6 -19    0.01    0.87
  12   6 -19   -0.49    0.91
  13   6 -19    0.50    1.14
   0   7 -19   10.59    1.09
   1   7 -19   15.94    1.29
  -1   7 -19   16.18    1.22
   2   7 -19   20.28    1.48
  -2   7 -19   20.40    1.40
   3   7 -19    2.29    0.79
  -3   7 -19    1.16    0.64
   4   7 -19   10.88    1.24
  -4   7 -19   11.08    1.00
  -5   7 -19    5.72    0.76
   5   7  19    6.55    0.68
   6   7 -19   19.31    1.62
   7   7 -19    0.34    0.83
   8   7 -19    8.50    1.26
   9   7 -19    0.76    0.97
  10   7 -19    6.08    1.23
  11   7 -19    0.93    0.97
  12   7 -19    0.15    0.95
   0   8 -19    0.86    0.73
   1   8 -19   18.78    1.45
  -1   8 -19   20.37    1.45
   2   8 -19   25.83    1.69
  -2   8 -19   24.00    1.60
   3   8 -19   18.38    1.44
  -3   8 -19   15.56    1.29
   4   8 -19    5.09    1.03
  -4   8 -19    7.26    0.89
   5   8 -19    3.00    0.91
   5   8  19    1.84    0.57
  -5   8 -19    2.28    0.73
   6   8 -19    5.01    1.04
  -6   8 -19    4.31    0.76
   7   8 -19   19.57    1.71
   8   8 -19    0.78    0.93
   9   8 -19   -0.10    0.87
  10   8 -19    0.71    0.97
  11   8 -19    4.68    1.26
  12   8 -19    1.16    1.06
   0   9 -19   -0.04    0.72
   1   9 -19    9.68    1.17
  -1   9 -19   10.17    1.15
   2   9 -19   14.66    1.36
  -2   9 -19   14.70    1.27
   3   9 -19    1.08    0.85
  -3   9 -19    2.90    0.79
   4   9 -19    2.02    0.93
  -4   9 -19    3.71    0.82
   5   9 -19    4.84    1.06
  -5   9 -19    6.23    0.88
   5   9  19    6.13    0.78
   6   9 -19    4.64    1.08
  -6   9 -19    4.34    0.78
   7   9 -19    8.84    1.33
   8   9 -19    8.69    1.32
   9   9 -19    2.56    1.05
  10   9 -19   -0.17    0.92
  11   9 -19    1.88    1.11
  12   9 -19    0.89    1.08
   0  10 -19    1.28    0.81
   1  10 -19   22.47    1.66
  -1  10 -19   23.20    1.61
   2  10 -19    8.35    1.18
  -2  10 -19    7.99    1.05
   3  10 -19   26.48    1.77
  -3  10 -19   24.04    1.67
   4  10 -19   11.35    1.33
  -4  10 -19   12.95    1.22
   5  10 -19    5.75    1.13
   5  10  19    8.75    0.89
  -5  10 -19    7.08    0.99
   6  10 -19    0.52    0.88
  -6  10 -19    0.76    0.68
   7  10 -19    4.55    1.12
   8  10 -19   10.97    1.44
   9  10 -19   -0.02    0.94
  10  10 -19   -1.49    0.84
  11  10 -19   -0.55    0.97
  12  10 -19   -0.66    1.04
   0  11 -19   12.94    1.34
   1  11 -19    4.15    0.99
  -1  11 -19    4.70    0.97
   2  11 -19   15.68    1.54
  -2  11 -19   15.48    1.34
   3  11 -19   10.69    1.32
  -3  11 -19   13.10    1.29
   4  11 -19    3.90    1.02
  -4  11 -19    5.53    0.93
   5  11 -19   13.02    1.48
  -5  11 -19   13.22    1.24
   5  11  19   14.22    1.13
   6  11 -19    4.33    1.11
  -6  11 -19    5.95    0.95
   7  11 -19    5.32    1.17
   8  11 -19    4.18    1.17
   9  11 -19    5.32    1.24
  10  11 -19   -1.01    0.97
  11  11 -19    2.13    1.16
   0  12 -19    7.11    1.14
   1  12 -19   12.29    1.41
  -1  12 -19   14.37    1.41
   2  12 -19   18.37    1.62
  -2  12 -19   18.00    1.46
   3  12 -19    9.73    1.36
  -3  12 -19    9.11    1.16
   4  12 -19    4.90    1.14
  -4  12 -19    6.55    1.01
   4  12  19    4.78    0.86
   5  12 -19    4.70    1.13
   5  12  19    5.37    0.88
  -5  12 -19    6.41    1.01
   6  12 -19    8.81    1.36
  -6  12 -19   10.44    1.14
   7  12 -19    0.39    0.99
   8  12 -19   -0.04    0.94
   9  12 -19    0.75    1.01
  10  12 -19    2.34    1.20
  11  12 -19   -0.38    1.00
   0  13 -19    1.96    0.91
   1  13 -19    3.14    1.00
  -1  13 -19    2.37    0.92
   2  13 -19    4.00    1.06
  -2  13 -19    4.19    1.04
   3  13 -19    8.98    1.31
  -3  13 -19    6.02    1.03
   4  13 -19    6.35    1.26
   4  13  19    6.57    0.97
  -4  13 -19    8.56    1.13
   5  13 -19    6.44    1.22
  -5  13 -19    6.80    1.11
   5  13  19    5.87    0.94
   6  13 -19   10.96    1.47
  -6  13 -19   10.31    1.20
   7  13 -19    0.87    1.01
   8  13 -19    6.55    1.35
   9  13 -19    0.22    1.08
  10  13 -19    3.21    1.26
  11  13 -19   -0.38    1.04
   0  14 -19   14.10    1.53
   1  14 -19    6.63    1.22
  -1  14 -19    6.78    1.18
   2  14 -19   11.55    1.45
  -2  14 -19    9.93    1.31
   3  14 -19    0.69    0.92
  -3  14 -19   -0.84    0.73
   4  14 -19   10.37    1.43
   4  14  19   10.36    1.20
  -4  14 -19    9.18    1.23
   5  14 -19    7.47    1.31
  -5  14 -19    9.68    1.21
   5  14  19    9.64    1.09
   6  14 -19    2.19    1.06
  -6  14 -19    2.58    0.93
   7  14 -19    0.47    1.02
   8  14 -19    0.92    1.11
   9  14 -19    1.52    1.13
  10  14 -19   -0.19    1.04
   0  15 -19   18.01    1.66
   1  15 -19    3.56    1.12
  -1  15 -19    4.18    1.06
   2  15 -19    5.69    1.24
  -2  15 -19    7.48    1.16
   3  15 -19    1.82    1.06
  -3  15 -19    1.66    0.95
   3  15  19    1.96    0.86
   4  15 -19    9.25    1.42
  -4  15 -19    7.33    1.20
   4  15  19    9.59    1.19
   5  15 -19    5.29    1.24
  -5  15 -19    4.98    1.07
   5  15  19    3.53    0.89
   6  15 -19    3.79    1.20
  -6  15 -19    4.62    1.02
   7  15 -19    0.73    1.07
   8  15 -19    3.50    1.24
   9  15 -19    0.42    1.15
  10  15 -19    0.27    1.14
   0  16 -19    1.91    1.04
   1  16 -19   19.20    1.77
  -1  16 -19   17.70    1.75
   2  16 -19    3.45    1.12
  -2  16 -19    3.39    1.07
   3  16 -19    9.85    1.43
   3  16  19    8.86    1.25
  -3  16 -19   10.01    1.34
   4  16 -19    0.15    0.98
   4  16  19    1.37    0.85
  -4  16 -19    0.80    0.88
   5  16 -19    2.05    1.13
   5  16  19    2.54    0.85
  -5  16 -19    2.51    0.99
   6  16 -19    0.42    1.05
  -6  16 -19    3.27    1.03
   7  16 -19    2.31    1.24
  -7  16 -19    1.36    0.92
   8  16 -19    0.06    1.09
   9  16 -19   -0.35    1.07
   0  17 -19   -0.65    0.94
   1  17 -19   -0.86    0.89
  -1  17 -19   -0.35    0.90
   2  17 -19   12.75    1.62
  -2  17 -19   12.52    1.48
   3  17 -19    3.76    1.21
   3  17  19    4.27    1.01
  -3  17 -19    3.73    1.03
   4  17 -19   -0.12    0.98
  -4  17 -19    0.05    0.92
   4  17  19    0.48    0.85
   5  17 -19    0.34    1.05
   5  17  19    2.52    0.92
  -5  17 -19    1.73    0.98
   6  17 -19    2.43    1.17
  -6  17 -19    2.22    0.98
   7  17 -19    5.86    1.46
  -7  17 -19    9.89    1.37
   8  17 -19    0.32    1.18
   9  17 -19    1.40    1.28
   0  18 -19    3.25    1.14
   1  18 -19    4.92    1.26
  -1  18 -19    7.42    1.30
   2  18 -19    2.75    1.13
   2  18  19    2.89    1.03
  -2  18 -19    1.86    1.01
   3  18 -19    4.86    1.31
  -3  18 -19    5.93    1.25
   3  18  19    6.87    1.20
   4  18 -19    0.77    1.03
  -4  18 -19    1.83    1.01
   4  18  19    1.19    0.91
   5  18 -19    0.55    1.11
   5  18  19    1.63    0.93
  -5  18 -19    1.25    0.97
   6  18 -19   -0.99    1.10
  -6  18 -19    1.33    1.00
   7  18 -19    1.79    1.25
  -7  18 -19    2.90    1.09
   8  18 -19    1.25    1.20
   0  19 -19    0.32    1.01
   1  19 -19    3.27    1.20
  -1  19 -19    2.32    1.09
   2  19 -19    1.64    1.10
   2  19  19    0.11    0.88
  -2  19 -19    2.33    1.04
   3  19 -19    3.30    1.22
   3  19  19    1.91    1.00
  -3  19 -19    2.09    1.10
   4  19 -19    1.39    1.14
   4  19  19    2.41    1.00
  -4  19 -19    2.25    1.09
   5  19 -19    1.87    1.22
   5  19  19    1.49    0.94
  -5  19 -19    2.12    1.06
   6  19 -19    2.13    1.28
  -6  19 -19    2.55    1.13
   7  19 -19    0.74    1.23
  -7  19 -19    2.76    1.10
   0  20 -19    6.56    1.39
   1  20 -19    0.79    1.10
   1  20  19    2.64    1.09
  -1  20 -19    2.62    1.10
   2  20 -19    4.04    1.33
   2  20  19    2.46    1.13
  -2  20 -19    0.51    1.01
   3  20 -19   -0.34    1.12
   3  20  19   -0.55    0.92
  -3  20 -19    0.18    1.01
   4  20 -19    1.33    1.18
  -4  20 -19    3.85    1.20
   4  20  19    3.00    1.08
   5  20 -19   -0.06    1.20
  -5  20 -19    1.64    1.11
   5  20  19    1.66    0.99
   6  20 -19   -2.09    1.09
  -6  20 -19    0.02    1.00
   0  21 -19    1.69    1.14
   1  21 -19   -1.17    1.06
  -1  21 -19    1.44    1.10
   1  21  19    1.32    1.15
   2  21 -19    2.29    1.25
   2  21  19   -0.64    0.92
  -2  21 -19    0.83    1.01
   3  21 -19    0.18    1.15
  -3  21 -19   -0.13    1.04
   3  21  19   -0.79    0.91
   4  21 -19    2.05    1.29
   4  21  19   -0.20    0.91
  -4  21 -19    0.33    1.03
   5  21 -19   -0.53    1.17
  -5  21 -19    1.07    1.11
   5  21  19    0.86    1.04
   0  22 -19    0.45    1.12
   0  22  19    0.34    1.07
   1  22 -19    2.08    1.28
   1  22  19    0.07    1.03
  -1  22 -19    0.50    1.11
   2  22 -19    1.17    1.28
   2  22  19    1.49    1.20
  -2  22 -19    1.18    1.17
   3  22 -19   -0.46    1.13
   3  22  19    1.47    1.12
  -3  22 -19   -0.10    1.10
   0   0 -20  254.88   10.97
   1   0 -20    3.05    0.68
  -1   0 -20    2.33    0.57
  -2   0 -20   25.47    1.35
   3   0 -20   17.25    1.28
  -3   0 -20   16.59    0.99
  -4   0 -20   44.86    2.04
   4   0 -20   44.61    2.43
   5   0 -20    0.17    0.37
   6   0 -20   -0.30    0.18
   7   0 -20   18.84    1.49
   8   0 -20    0.71    0.87
   9   0 -20    0.16    0.81
  10   0 -20    1.84    0.96
  11   0 -20    2.51    1.07
  12   0 -20    2.53    1.14
  13   0 -20    0.00    0.98
   0  -1 -20   40.97    2.09
   0   1 -20   40.63    2.12
  -1  -1 -20   21.47    1.27
   1   1 -20   22.04    1.40
   1  -1 -20   20.82    1.38
  -1   1 -20   21.43    1.28
  -2  -1 -20   24.70    1.51
   2   1 -20   35.06    1.80
   2  -1 -20   35.16    1.79
  -3  -1 -20    8.21    0.69
   3   1 -20    9.81    1.02
  -3   1 -20    9.98    0.74
   3  -1 -20    7.91    0.97
   4   1 -20   34.80    1.98
  -4   1 -20   32.32    1.58
   4  -1 -20   32.95    1.96
   5   1 -20    0.77    0.38
   5  -1 -20    2.59    0.57
   6   1 -20   -0.39    0.20
   6  -1 -20    0.01    0.22
   7   1 -20   -0.67    0.72
   7  -1 -20    0.00    0.73
   8   1 -20   24.59    1.87
   8  -1 -20   22.82    1.79
   9   1 -20    5.21    1.10
   9  -1 -20    4.69    1.07
  10   1 -20    5.57    1.17
  10  -1 -20    6.73    1.19
  11   1 -20   -0.57    0.96
  11  -1 -20    1.20    0.97
  12   1 -20    3.72    1.14
  12  -1 -20    2.35    1.10
  13   1 -20   -0.72    1.01
  13  -1 -20    0.90    1.05
   0   2 -20    7.92    0.87
   0  -2 -20    7.87    0.80
   1   2 -20   91.86    4.34
  -1  -2 -20   96.27    4.26
  -1   2 -20   96.32    4.28
   1  -2 -20   93.62    4.33
   2   2 -20   26.44    1.64
   2  -2 -20   28.05    1.65
   3   2 -20   33.92    2.00
  -3   2 -20   35.45    1.76
   3  -2 -20   35.73    1.99
   4   2 -20    1.94    0.75
  -4   2 -20    2.67    0.48
   4  -2 -20    2.88    0.78
   5  -2 -20    6.20    0.84
   6   2 -20    0.09    0.27
   6  -2 -20   -0.01    0.26
   7   2 -20    0.05    0.76
   7  -2 -20    0.54    0.77
   8   2 -20    7.52    1.19
   8  -2 -20    7.78    1.25
   9   2 -20    2.84    1.02
   9  -2 -20    3.87    1.03
  10   2 -20   -0.43    0.89
  10  -2 -20   -0.66    0.80
  11   2 -20   -0.03    0.91
  11  -2 -20    1.55    0.99
  12   2 -20    2.30    1.15
  12  -2 -20    1.75    1.03
  13   2 -20    0.51    1.09
  13  -2 -20    1.35    1.06
   0   3 -20   14.49    1.05
   0  -3 -20   11.97    0.96
  -1  -3 -20   -0.33    0.47
   1   3 -20    0.77    0.60
   1  -3 -20    0.57    0.55
  -1   3 -20    1.00    0.57
   2   3 -20    1.70    0.65
   2  -3 -20    1.07    0.57
  -2   3 -20    0.70    0.43
   3   3 -20   29.27    1.77
   3  -3 -20   30.89    1.77
  -3   3 -20   27.27    1.50
   4   3 -20    7.66    0.99
   4  -3 -20    9.24    1.05
  -4   3 -20    9.34    0.74
  -5   3 -20   10.46    0.68
   5  -3 -20    7.55    0.98
   6   3 -20    0.06    0.37
   6  -3 -20    0.13    0.38
   7   3 -20   24.97    1.89
   7  -3 -20   29.76    1.93
   8   3 -20    0.90    0.85
   8  -3 -20    1.93    0.82
   9   3 -20    8.54    1.26
   9  -3 -20    6.58    1.20
  10   3 -20   -1.07    0.81
  10  -3 -20    0.45    0.86
  11   3 -20    7.27    1.33
  11  -3 -20    8.55    1.37
  12   3 -20   -0.39    1.02
  12  -3 -20   -0.31    0.88
  13   3 -20    2.34    1.17
  13  -3 -20    0.15    0.97
   0   4 -20    9.42    0.96
   0  -4 -20    9.44    0.90
   1   4 -20   67.05    3.18
  -1   4 -20   64.12    3.10
   1  -4 -20   63.89    3.14
   2   4 -20   11.97    1.15
  -2   4 -20   12.20    1.00
   2  -4 -20   13.53    1.11
   3   4 -20   39.42    2.19
   3  -4 -20   38.15    2.13
   4   4 -20    0.26    0.69
   4  -4 -20    1.48    0.70
  -4   4 -20    1.56    0.50
   5  -4 -20    6.88    0.94
  -5   4 -20    7.02    0.66
   6   4 -20   11.37    1.24
   6  -4 -20   11.75    1.20
   7   4 -20    3.74    1.00
   7  -4 -20    3.52    0.90
   8   4 -20    0.68    0.87
   8  -4 -20   -0.16    0.77
   9   4 -20    2.59    0.94
   9  -4 -20    1.89    0.93
  10   4 -20    3.90    1.12
  10  -4 -20    2.29    1.02
  11   4 -20   -0.50    0.89
  11  -4 -20    0.59    0.94
  12   4 -20   -0.67    0.93
  12  -4 -20   -0.35    0.91
  13   4 -20    1.93    1.17
  13  -4 -20    1.12    1.03
   0   5 -20   10.36    1.04
   1   5 -20    1.96    0.70
   1  -5 -20    1.83    0.62
  -1   5 -20    2.12    0.66
   2   5 -20    5.58    0.88
  -2   5 -20    6.64    0.81
   2  -5 -20    5.08    0.79
   3   5 -20    7.05    1.00
   3  -5 -20    8.08    0.98
  -3   5 -20    9.20    0.86
   4   5 -20    4.48    0.87
   4  -5 -20    4.98    0.88
   5  -5 -20   10.56    1.20
  -5   5 -20    9.62    0.83
   6   5 -20    7.55    1.11
   6  -5 -20    9.50    1.14
   7   5 -20    7.80    1.17
   7  -5 -20    7.18    1.12
   8   5 -20    5.85    1.14
   8  -5 -20    6.94    1.14
   9   5 -20    5.52    1.14
   9  -5 -20    6.71    1.16
  10   5 -20    2.71    1.05
  10  -5 -20    0.77    0.89
  11   5 -20    0.66    1.01
  11  -5 -20    1.77    1.03
  12   5 -20    1.09    1.05
  12  -5 -20    0.97    0.94
   0   6 -20   49.34    2.56
   1   6 -20    3.42    0.80
  -1   6 -20    2.89    0.73
   2   6 -20   34.90    2.07
  -2   6 -20   35.99    1.96
   3   6 -20    1.40    0.76
   3  -6 -20    1.32    0.65
  -3   6 -20    0.74    0.59
   4   6 -20   13.75    1.31
   4  -6 -20   11.53    1.15
  -4   6 -20    9.73    0.91
   5   6 -20    9.53    1.18
   5   6  20   10.04    0.79
   5  -6 -20   10.26    1.16
   6   6 -20    1.09    0.87
   6  -6 -20    0.19    0.68
   7   6 -20    3.36    0.98
   7  -6 -20    4.05    0.97
   8   6 -20    6.45    1.17
   8  -6 -20    5.79    1.07
   9   6 -20    2.34    0.97
   9  -6 -20    0.58    0.84
  10   6 -20    0.73    0.93
  10  -6 -20    0.14    0.83
  11   6 -20    1.08    0.97
  12   6 -20    3.51    1.23
   0   7 -20    0.43    0.64
   1   7 -20   -0.19    0.67
  -1   7 -20    1.32    0.70
   2   7 -20   11.51    1.20
  -2   7 -20   10.91    1.09
   3   7 -20    3.52    0.90
  -3   7 -20    3.25    0.73
   4   7 -20   19.90    1.56
  -4   7 -20   17.97    1.28
   5   7 -20    0.52    0.79
   5   7  20    1.43    0.50
  -5   7 -20    1.52    0.64
   6   7 -20   33.91    2.19
   7   7 -20    8.29    1.25
   8   7 -20    3.36    1.02
   9   7 -20    1.30    0.95
  10   7 -20    5.51    1.20
  11   7 -20    1.36    1.04
  12   7 -20    0.74    1.04
   0   8 -20   18.13    1.43
   1   8 -20   28.65    1.82
  -1   8 -20   28.78    1.76
   2   8 -20    6.56    1.04
  -2   8 -20    8.33    1.01
   3   8 -20   24.88    1.75
  -3   8 -20   24.83    1.61
   4   8 -20   19.93    1.59
  -4   8 -20   18.79    1.37
   5   8 -20    2.59    0.91
  -5   8 -20    4.47    0.81
   5   8  20    5.23    0.68
   6   8 -20    1.46    0.89
  -6   8 -20    3.00    0.70
   7   8 -20    3.64    1.01
   8   8 -20    3.26    1.04
   9   8 -20   -0.60    0.82
  10   8 -20    0.33    0.98
  11   8 -20    3.44    1.21
  12   8 -20    0.43    1.04
   0   9 -20    3.83    0.91
   1   9 -20    9.68    1.17
  -1   9 -20    9.77    1.16
   2   9 -20   16.13    1.45
  -2   9 -20   18.90    1.40
   3   9 -20    1.07    0.89
  -3   9 -20    3.15    0.82
   4   9 -20    3.91    1.00
  -4   9 -20    3.59    0.80
   5   9 -20   10.00    1.26
  -5   9 -20   11.60    1.11
   5   9  20   11.00    0.94
   6   9 -20    5.84    1.11
  -6   9 -20    5.20    0.84
   7   9 -20    2.25    0.98
   8   9 -20    0.35    0.92
   9   9 -20    3.26    1.08
  10   9 -20    0.55    0.98
  11   9 -20    0.97    1.03
  12   9 -20   -0.20    1.04
   0  10 -20    6.33    1.06
   1  10 -20    9.28    1.21
  -1  10 -20    8.54    1.16
   2  10 -20   -0.07    0.82
  -2  10 -20   -0.22    0.70
   3  10 -20    0.33    0.85
  -3  10 -20    3.04    0.84
   4  10 -20    8.52    1.24
  -4  10 -20    9.50    1.12
   5  10 -20    9.82    1.30
  -5  10 -20    8.78    1.07
   5  10  20   10.56    1.00
   6  10 -20    0.26    0.88
  -6  10 -20    1.16    0.73
   7  10 -20    0.08    0.92
   8  10 -20    2.37    1.03
   9  10 -20    1.47    1.01
  10  10 -20   -0.07    0.96
  11  10 -20   -0.76    0.96
   0  11 -20    8.23    1.15
   1  11 -20   -1.16    0.84
  -1  11 -20    0.86    0.84
   2  11 -20   10.41    1.36
  -2  11 -20   13.39    1.35
   3  11 -20    4.85    1.05
  -3  11 -20    2.43    0.88
   4  11 -20    5.49    1.12
  -4  11 -20    6.64    1.03
   5  11 -20    1.54    0.89
   5  11  20    0.77    0.62
  -5  11 -20    1.06    0.77
   6  11 -20    7.51    1.25
  -6  11 -20    6.07    0.96
   7  11 -20    2.58    1.03
   8  11 -20    2.90    1.10
   9  11 -20   -0.24    0.94
  10  11 -20    0.96    1.04
  11  11 -20    0.52    1.13
   0  12 -20   -1.45    0.76
   1  12 -20    6.25    1.14
  -1  12 -20    7.87    1.14
   2  12 -20    3.55    1.08
  -2  12 -20    2.21    0.93
   3  12 -20    3.04    1.03
  -3  12 -20    3.99    0.95
   4  12 -20    1.15    0.95
  -4  12 -20   -0.10    0.76
   4  12  20    0.52    0.69
   5  12 -20    4.20    1.13
   5  12  20    5.67    0.87
  -5  12 -20    4.00    0.93
   6  12 -20    5.85    1.19
  -6  12 -20    3.62    0.89
   7  12 -20    3.58    1.14
   8  12 -20    0.44    1.03
   9  12 -20   -0.38    0.95
  10  12 -20    1.05    1.12
  11  12 -20    1.89    1.17
   0  13 -20    1.50    0.89
   1  13 -20    2.10    0.99
  -1  13 -20    4.51    1.01
   2  13 -20    4.38    1.15
  -2  13 -20    7.65    1.17
   3  13 -20    3.00    1.09
  -3  13 -20    2.68    0.93
   4  13 -20    2.08    1.03
  -4  13 -20    2.27    0.91
   4  13  20    3.89    0.84
   5  13 -20    0.48    0.96
   5  13  20    0.49    0.69
  -5  13 -20    0.05    0.77
   6  13 -20    0.98    0.99
  -6  13 -20    0.97    0.81
   7  13 -20    0.18    0.99
   8  13 -20    0.38    1.00
   9  13 -20   -0.10    1.07
  10  13 -20    0.80    1.09
   0  14 -20   -1.47    0.76
   1  14 -20    3.76    1.10
  -1  14 -20    4.09    1.03
   2  14 -20   -0.63    0.88
  -2  14 -20    0.39    0.85
   3  14 -20    2.28    1.03
  -3  14 -20    1.76    0.91
   4  14 -20    1.37    1.01
   4  14  20    3.54    0.87
  -4  14 -20    2.44    0.92
   5  14 -20   -0.35    0.92
  -5  14 -20    2.09    0.87
   5  14  20    1.05    0.71
   6  14 -20   -0.69    0.92
  -6  14 -20    0.47    0.83
   7  14 -20    1.89    1.09
   8  14 -20    0.28    1.09
   9  14 -20   -0.57    1.06
  10  14 -20   -0.02    1.11
   0  15 -20    0.20    0.94
   1  15 -20    1.41    0.99
  -1  15 -20    0.54    0.91
   2  15 -20    0.85    0.99
  -2  15 -20    0.88    0.90
   3  15 -20    1.62    1.06
  -3  15 -20    0.90    0.87
   4  15 -20    0.88    1.05
   4  15  20   -0.26    0.73
  -4  15 -20    1.51    0.90
   5  15 -20   -0.89    0.90
   5  15  20    1.68    0.81
  -5  15 -20    0.93    0.83
   6  15 -20   -0.69    0.90
  -6  15 -20   -0.89    0.71
   7  15 -20   -0.67    1.00
   8  15 -20    1.01    1.16
   9  15 -20   -0.40    1.05
   0  16 -20    1.72    1.01
   1  16 -20    2.06    1.03
  -1  16 -20    1.73    1.04
   2  16 -20    1.80    1.09
  -2  16 -20    1.60    0.99
   3  16 -20    0.97    1.00
  -3  16 -20    0.02    0.87
   3  16  20   -0.36    0.76
   4  16 -20    0.31    1.01
   4  16  20    0.39    0.77
  -4  16 -20    0.54    0.87
   5  16 -20    0.87    1.04
  -5  16 -20    1.59    0.91
   5  16  20    1.57    0.86
   6  16 -20    2.27    1.15
  -6  16 -20    0.97    0.88
   7  16 -20   -0.54    1.05
   8  16 -20    0.31    1.11
   9  16 -20    1.24    1.23
   0  17 -20    0.99    0.99
   1  17 -20    1.03    1.04
  -1  17 -20    1.05    1.01
   2  17 -20    0.44    1.05
  -2  17 -20    0.83    0.99
   3  17 -20   -0.20    1.01
  -3  17 -20    0.59    0.87
   3  17  20   -0.92    0.81
   4  17 -20    3.03    1.15
  -4  17 -20    1.65    0.98
   4  17  20    0.17    0.83
   5  17 -20    0.91    1.08
   5  17  20    2.01    0.88
  -5  17 -20   -1.25    0.85
   6  17 -20   -0.37    1.05
  -6  17 -20    0.92    0.91
   7  17 -20    2.13    1.20
   8  17 -20   -2.43    1.02
   0  18 -20    0.32    1.02
   1  18 -20    2.81    1.21
  -1  18 -20    4.63    1.18
   2  18 -20    1.33    1.09
   2  18  20    0.17    0.94
  -2  18 -20    0.24    0.92
   3  18 -20    3.55    1.26
  -3  18 -20    1.58    1.05
   3  18  20    1.84    0.91
   4  18 -20   -0.65    1.04
   4  18  20    2.05    0.93
  -4  18 -20    0.86    0.94
   5  18 -20    1.53    1.13
   5  18  20    4.17    1.01
  -5  18 -20    1.64    1.02
   6  18 -20    1.37    1.20
  -6  18 -20    1.96    1.05
   7  18 -20    0.07    1.14
   8  18 -20    1.60    1.25
   0  19 -20   -0.88    0.98
   1  19 -20    4.05    1.25
  -1  19 -20    1.22    1.05
   2  19 -20    0.31    1.02
  -2  19 -20    2.44    1.10
   2  19  20   -0.15    0.93
   3  19 -20    2.67    1.19
  -3  19 -20    1.12    1.01
   3  19  20    1.19    0.97
   4  19 -20   -1.06    1.00
   4  19  20    0.78    0.92
  -4  19 -20    0.58    1.02
   5  19 -20    0.55    1.17
  -5  19 -20    0.92    1.02
   5  19  20    1.53    0.98
   6  19 -20    2.43    1.29
  -6  19 -20    2.13    1.10
   7  19 -20    0.85    1.23
   0  20 -20    1.79    1.15
   1  20 -20   -0.33    1.08
   1  20  20   -0.29    1.01
  -1  20 -20   -0.13    1.01
   2  20 -20    1.84    1.20
  -2  20 -20    1.66    1.08
   2  20  20    3.77    1.10
   3  20 -20    1.95    1.23
  -3  20 -20    3.15    1.11
   3  20  20    3.57    1.16
   4  20 -20    2.07    1.29
   4  20  20    2.32    1.07
  -4  20 -20    1.12    1.08
   5  20 -20    1.57    1.26
   5  20  20    1.45    1.00
  -5  20 -20    1.10    1.01
   6  20 -20   -1.20    1.12
  -6  20 -20   -0.58    0.95
   0  21 -20   -0.44    1.05
   1  21 -20    0.18    1.17
  -1  21 -20   -0.44    1.05
   1  21  20    0.36    1.10
   2  21 -20    1.39    1.18
   2  21  20    2.27    1.16
  -2  21 -20    3.36    1.25
   3  21 -20   -0.66    1.14
  -3  21 -20    0.36    1.03
   3  21  20   -0.01    1.02
   4  21 -20   -0.02    1.18
   4  21  20   -0.65    0.95
  -4  21 -20    1.18    1.11
   0  22  20    1.69    1.14
   0  22 -20    0.75    1.15
   1  22 -20   -0.73    1.12
   1  22  20    0.74    1.11
  -1  22 -20    3.19    1.27
   2  22 -20    2.33    1.32
  -2  22 -20    2.03    1.22
   2  22  20    0.88    1.08
  -1   0 -21    1.02    0.54
   1   0 -21    0.71    0.57
   2   0 -21    3.59    0.73
  -3   0 -21    0.08    0.39
   3   0 -21   -0.17    0.62
   4   0 -21    8.03    1.00
  -4   0 -21    7.59    0.62
   5   0 -21    2.09    0.79
   6   0 -21    3.35    0.82
   7   0 -21    6.88    1.12
   8   0 -21    1.04    0.84
   9   0 -21    0.60    0.85
  10   0 -21    4.07    1.13
  11   0 -21    0.43    0.91
  12   0 -21   -0.36    0.98
  13   0 -21   -0.86    0.93
   0   1 -21   50.26    2.52
   0  -1 -21   51.86    2.53
   1   1 -21    7.90    0.91
  -1  -1 -21    7.44    0.80
  -1   1 -21    7.73    0.81
   1  -1 -21    7.99    0.88
  -2  -1 -21    0.16    0.20
   2   1 -21    0.97    0.60
   2  -1 -21    0.33    0.56
  -2   1 -21   -0.01    0.21
   3   1 -21    1.11    0.67
  -3  -1 -21    0.54    0.40
  -3   1 -21    0.97    0.45
   3  -1 -21    0.57    0.65
   4   1 -21    5.55    0.93
   4  -1 -21    7.14    0.97
  -4   1 -21    7.38    0.62
   5   1 -21    3.97    0.87
   5  -1 -21    3.90    0.86
   6   1 -21    0.93    0.69
   6  -1 -21   -0.04    0.56
   7   1 -21    5.54    1.09
   7  -1 -21    7.38    1.12
   8   1 -21    6.18    1.14
   8  -1 -21    5.94    1.11
   9   1 -21    4.91    1.10
   9  -1 -21    6.61    1.17
  10   1 -21    2.13    1.04
  10  -1 -21    0.35    0.90
  11   1 -21    1.49    0.99
  11  -1 -21   -1.71    0.87
  12   1 -21    0.78    1.04
  12  -1 -21    0.67    0.98
  13   1 -21    0.37    1.11
  13  -1 -21    0.28    1.02
   0  -2 -21   10.45    0.98
   0   2 -21   14.54    1.08
   1   2 -21   44.16    2.22
  -1  -2 -21   40.01    2.06
   1  -2 -21   40.13    2.17
  -1   2 -21   39.96    2.09
   2   2 -21    8.06    0.92
   2  -2 -21    5.67    0.81
  -2   2 -21    4.49    0.61
   3   2 -21    2.83    0.77
  -3   2 -21    4.01    0.58
   3  -2 -21    3.12    0.75
   4   2 -21    0.81    0.72
  -4   2 -21    2.05    0.45
   4  -2 -21    1.00    0.68
   5   2 -21    0.88    0.74
   5  -2 -21    1.59    0.77
   6   2 -21    2.35    0.74
   6  -2 -21    5.35    0.91
   7   2 -21    1.44    0.85
   7  -2 -21    0.31    0.76
   8   2 -21    2.10    0.91
   8  -2 -21    1.06    0.84
   9   2 -21    3.54    1.05
   9  -2 -21    4.91    1.07
  10   2 -21    1.64    0.99
  10  -2 -21    0.30    0.87
  11   2 -21   -0.79    0.85
  11  -2 -21    0.01    0.90
  12   2 -21    1.16    1.00
  12  -2 -21    2.02    1.06
  13   2 -21   -0.09    1.01
  13  -2 -21   -1.42    0.97
   0  -3 -21   42.19    2.05
   0   3 -21   36.46    2.06
   1   3 -21    1.75    0.67
  -1  -3 -21    2.01    0.57
   1  -3 -21    1.63    0.62
  -1   3 -21    2.25    0.64
   2   3 -21    3.56    0.75
  -2   3 -21    3.25    0.64
   2  -3 -21    3.15    0.71
   3   3 -21    4.68    0.86
   3  -3 -21    4.48    0.82
   4   3 -21   17.08    1.39
   4  -3 -21   18.88    1.37
  -4   3 -21   16.57    1.04
   5   3 -21    1.94    0.80
  -5   3 -21    2.08    0.42
   5  -3 -21    1.12    0.75
   6   3 -21    2.57    0.86
   6  -3 -21    2.16    0.78
   7   3 -21    3.22    0.95
   7  -3 -21    5.21    0.93
   8   3 -21    2.39    0.93
   8  -3 -21    1.66    0.87
   9   3 -21   -0.81    0.80
   9  -3 -21    1.05    0.87
  10   3 -21    4.62    1.18
  10  -3 -21    3.93    1.09
  11   3 -21    3.11    1.11
  11  -3 -21    1.97    0.96
  12   3 -21    0.67    0.97
  12  -3 -21   -0.51    0.92
  13   3 -21    1.14    1.14
  13  -3 -21   -0.23    1.00
   0  -4 -21    0.84    0.53
   0   4 -21    2.58    0.72
   1   4 -21   19.29    1.37
  -1   4 -21   19.48    1.32
   1  -4 -21   20.73    1.33
   2   4 -21    5.00    0.85
  -2   4 -21    5.18    0.74
   2  -4 -21    3.30    0.78
   3   4 -21    8.43    1.03
   3  -4 -21    8.75    1.00
   4   4 -21    4.55    0.92
  -4   4 -21    7.94    0.75
   4  -4 -21    6.94    0.97
   5   4 -21   20.67    1.54
  -5   4 -21   18.63    1.11
   5  -4 -21   18.40    1.49
   6   4 -21    3.86    0.95
   6  -4 -21    3.76    0.88
   7   4 -21    5.91    1.11
   7  -4 -21    5.66    1.04
   8   4 -21    7.80    1.27
   8  -4 -21    9.99    1.29
   9   4 -21    0.35    0.88
   9  -4 -21    2.17    0.93
  10   4 -21    0.14    0.89
  10  -4 -21    1.47    0.94
  11   4 -21    1.44    1.00
  11  -4 -21    1.64    0.99
  12   4 -21    0.04    1.02
  12  -4 -21    3.40    1.10
   0   5 -21    3.88    0.80
   1   5 -21    6.88    0.97
  -1   5 -21    8.18    0.92
   1  -5 -21    7.26    0.88
   2   5 -21   76.08    3.62
  -2   5 -21   73.46    3.47
   2  -5 -21   71.32    3.54
   3   5 -21    5.40    0.92
  -3   5 -21    5.74    0.76
   3  -5 -21    5.99    0.89
   4   5 -21    4.43    0.90
   4  -5 -21    3.53    0.82
   5   5 -21    2.65    0.86
  -5   5 -21    2.64    0.58
   5  -5 -21    1.41    0.78
   6   5 -21   13.47    1.40
   6  -5 -21   15.47    1.40
   7   5 -21   -0.28    0.78
   7  -5 -21   -0.01    0.73
   8   5 -21    1.28    0.89
   8  -5 -21    0.50    0.80
   9   5 -21    1.92    0.97
   9  -5 -21    2.23    0.93
  10   5 -21    2.60    1.02
  10  -5 -21    1.87    0.94
  11   5 -21    3.24    1.14
  11  -5 -21    0.29    0.92
  12   5 -21    3.51    1.21
  12  -5 -21    1.71    1.02
   0   6 -21    3.09    0.77
   1   6 -21   13.30    1.18
  -1   6 -21   13.09    1.09
   2   6 -21    2.54    0.80
  -2   6 -21    2.94    0.76
   3   6 -21   46.58    2.49
  -3   6 -21   43.97    2.28
   3  -6 -21   42.97    2.40
   4   6 -21    1.45    0.79
   4  -6 -21    1.99    0.75
  -4   6 -21    1.92    0.65
   5   6 -21    1.90    0.84
   5  -6 -21    1.63    0.77
   6   6 -21    1.81    0.89
   6  -6 -21    2.13    0.81
   7   6 -21   18.67    1.66
   7  -6 -21   22.06    1.65
   8   6 -21    0.11    0.86
   8  -6 -21    2.11    0.87
   9   6 -21    0.15    0.85
   9  -6 -21    0.81    0.81
  10   6 -21    1.01    0.94
  10  -6 -21    0.02    0.87
  11   6 -21    3.33    1.16
  12   6 -21    0.11    1.00
   0   7 -21    9.34    1.06
   1   7 -21   26.13    1.69
  -1   7 -21   26.00    1.66
   2   7 -21   10.82    1.18
  -2   7 -21    9.17    1.03
   3   7 -21   17.62    1.45
  -3   7 -21   16.89    1.29
   4   7 -21   24.04    1.68
  -4   7 -21   23.38    1.49
   5   7 -21    1.40    0.83
   5   7  21    1.26    0.51
  -5   7 -21    0.18    0.60
   6   7 -21    2.22    0.88
   6  -7 -21    2.46    0.83
   7   7 -21    5.65    1.12
   7  -7 -21    4.56    0.98
   8   7 -21    9.06    1.32
   9   7 -21    0.54    0.90
  10   7 -21    0.91    0.97
  11   7 -21    0.90    0.99
  12   7 -21    0.19    1.10
   0   8 -21    4.02    0.84
   1   8 -21   11.26    1.23
  -1   8 -21   13.02    1.25
   2   8 -21    6.43    1.05
  -2   8 -21    7.46    0.99
   3   8 -21    2.85    0.90
  -3   8 -21    2.96    0.79
   4   8 -21    6.81    1.12
  -4   8 -21    6.29    0.92
   5   8 -21   11.43    1.37
  -5   8 -21   14.51    1.15
   5   8  21   13.68    0.99
   6   8 -21    0.22    0.82
   7   8 -21    3.06    0.97
   8   8 -21    4.58    1.13
   9   8 -21    9.77    1.41
  10   8 -21    0.67    0.96
  11   8 -21    1.33    1.05
  12   8 -21    1.16    1.13
   0   9 -21   60.85    3.15
   1   9 -21    7.94    1.12
  -1   9 -21    9.09    1.10
   2   9 -21   10.45    1.27
  -2   9 -21   11.64    1.21
   3   9 -21    7.24    1.13
  -3   9 -21    7.89    1.03
   4   9 -21   18.51    1.65
  -4   9 -21   24.68    1.55
   5   9 -21    1.62    0.91
   5   9  21    2.16    0.61
  -5   9 -21    2.46    0.74
   6   9 -21    0.77    0.80
   7   9 -21    0.08    0.85
   8   9 -21    1.15    0.97
   9   9 -21   -0.59    0.89
  10   9 -21    1.24    1.03
  11   9 -21    0.35    1.02
   0  10 -21    1.28    0.87
   1  10 -21    1.32    0.85
  -1  10 -21    1.23    0.80
   2  10 -21    8.95    1.22
  -2  10 -21    7.62    1.11
   3  10 -21    3.65    1.02
  -3  10 -21    5.58    0.99
   4  10 -21    6.86    1.19
  -4  10 -21    7.73    1.06
   5  10 -21    1.26    0.89
   5  10  21    1.75    0.66
  -5  10 -21    1.86    0.79
   6  10 -21   22.71    1.87
  -6  10 -21   22.86    1.53
   7  10 -21   -0.30    0.89
   8  10 -21    3.56    1.11
   9  10 -21    1.68    1.01
  10  10 -21    4.70    1.25
  11  10 -21    0.25    1.01
   0  11 -21   30.49    2.00
   1  11 -21    3.77    1.02
  -1  11 -21    3.78    0.99
   2  11 -21   15.10    1.56
  -2  11 -21   17.80    1.47
   3  11 -21    0.92    0.88
  -3  11 -21    2.15    0.84
   4  11 -21   18.04    1.61
  -4  11 -21   15.05    1.37
   5  11 -21    1.92    0.96
  -5  11 -21    3.16    0.90
   5  11  21    3.04    0.74
   6  11 -21    1.17    0.94
  -6  11 -21    2.65    0.82
   7  11 -21   -0.05    0.89
   8  11 -21    1.94    1.01
   9  11 -21    0.80    1.05
  10  11 -21   -0.19    0.95
  11  11 -21   -0.24    1.07
   0  12 -21    1.33    0.90
   1  12 -21    2.77    0.97
  -1  12 -21    4.20    0.97
   2  12 -21    2.59    1.00
  -2  12 -21    3.28    0.93
   3  12 -21    2.64    1.01
  -3  12 -21    6.12    1.04
   4  12 -21    6.46    1.18
  -4  12 -21    6.33    1.07
   5  12 -21   10.98    1.43
   5  12  21   11.93    1.15
  -5  12 -21   10.49    1.21
   6  12 -21    1.46    0.99
  -6  12 -21    1.33    0.83
   7  12 -21    4.13    1.14
   8  12 -21    8.33    1.45
   9  12 -21    4.03    1.23
  10  12 -21   -0.66    1.05
  11  12 -21   -0.37    1.03
   0  13 -21    1.58    0.92
   1  13 -21   26.82    1.94
  -1  13 -21   25.72    1.87
   2  13 -21    9.65    1.36
  -2  13 -21    9.10    1.25
   3  13 -21   12.22    1.53
  -3  13 -21   12.16    1.36
   4  13 -21    0.29    0.95
  -4  13 -21   -0.70    0.79
   4  13  21   -1.17    0.67
   5  13 -21    3.20    1.08
  -5  13 -21    3.26    0.91
   5  13  21    3.61    0.82
   6  13 -21    1.97    1.03
  -6  13 -21    1.52    0.85
   7  13 -21    0.31    1.02
   8  13 -21   -0.68    0.99
   9  13 -21    0.17    1.06
  10  13 -21   -0.73    1.11
   0  14 -21    5.33    1.12
   1  14 -21    2.75    1.04
  -1  14 -21    1.64    0.94
   2  14 -21    2.20    1.01
  -2  14 -21    2.04    0.96
   3  14 -21   16.68    1.72
  -3  14 -21   17.22    1.48
   4  14 -21   -0.33    0.97
   4  14  21    1.47    0.76
  -4  14 -21    2.49    0.93
   5  14 -21    0.58    0.95
   5  14  21    2.23    0.81
  -5  14 -21    2.19    0.86
   6  14 -21   -0.50    0.88
  -6  14 -21    0.41    0.79
   7  14 -21   13.30    1.69
   8  14 -21    0.75    1.07
   9  14 -21    0.25    1.14
  10  14 -21   -1.63    1.00
   0  15 -21    1.40    0.97
   1  15 -21    8.68    1.39
  -1  15 -21    9.25    1.34
   2  15 -21   14.80    1.68
  -2  15 -21   13.51    1.50
   3  15 -21    5.04    1.20
  -3  15 -21    3.60    1.07
   4  15 -21    0.40    0.98
   4  15  21   -1.36    0.65
  -4  15 -21   -1.54    0.78
   5  15 -21    2.51    1.11
  -5  15 -21    2.69    0.94
   5  15  21    3.56    0.92
   6  15 -21    1.13    1.05
  -6  15 -21    4.19    1.00
   7  15 -21   -0.04    1.05
   8  15 -21   -0.11    1.10
   9  15 -21    0.06    1.08
   0  16 -21    0.05    0.97
   1  16 -21    2.80    1.11
  -1  16 -21    1.91    1.00
   2  16 -21    3.61    1.19
  -2  16 -21    4.11    1.13
   3  16 -21    1.62    1.06
   3  16  21    0.84    0.84
  -3  16 -21    0.46    0.85
   4  16 -21    5.28    1.27
   4  16  21    3.82    0.97
  -4  16 -21    4.76    1.08
   5  16 -21    1.55    1.13
   5  16  21    3.34    0.90
  -5  16 -21    3.70    1.06
   6  16 -21    5.48    1.33
  -6  16 -21    5.70    1.10
   7  16 -21   -0.36    1.07
   8  16 -21    3.43    1.30
   9  16 -21    2.38    1.28
   0  17 -21   25.44    2.04
   1  17 -21   -0.70    0.93
  -1  17 -21   -1.04    0.91
   2  17 -21    3.59    1.18
  -2  17 -21    0.74    0.92
   3  17 -21   -0.56    0.98
  -3  17 -21    0.24    0.87
   3  17  21    0.56    0.86
   4  17 -21   11.05    1.62
  -4  17 -21   11.20    1.42
   4  17  21   12.26    1.43
   5  17 -21   -0.82    0.94
  -5  17 -21   -0.41    0.85
   5  17  21   -0.32    0.82
   6  17 -21    0.07    1.05
  -6  17 -21    0.59    0.87
   7  17 -21    1.01    1.19
   8  17 -21   -1.08    1.10
   0  18 -21    0.43    0.97
   1  18 -21    1.72    1.07
  -1  18 -21    4.81    1.19
   2  18 -21    0.42    1.04
  -2  18 -21    0.73    1.02
   3  18 -21   -0.06    1.01
  -3  18 -21    2.03    0.97
   3  18  21    0.30    0.86
   4  18 -21    0.97    1.09
  -4  18 -21    2.07    1.06
   4  18  21    0.10    0.91
   5  18 -21    2.93    1.27
  -5  18 -21    3.87    1.12
   5  18  21    2.60    0.96
   6  18 -21    2.51    1.31
  -6  18 -21    3.64    1.12
   7  18 -21    0.23    1.15
   0  19 -21    1.60    1.16
   1  19 -21    2.47    1.18
  -1  19 -21    3.78    1.23
   2  19 -21    5.78    1.34
   2  19  21    3.21    1.11
  -2  19 -21    3.95    1.20
   3  19 -21    1.77    1.18
  -3  19 -21    2.34    1.13
   3  19  21    2.27    1.02
   4  19 -21   -0.23    1.04
   4  19  21   -0.47    0.89
  -4  19 -21   -0.06    0.93
   5  19 -21   -0.76    1.14
   5  19  21    2.62    1.02
  -5  19 -21    1.30    1.06
   6  19 -21    0.08    1.16
  -6  19 -21    0.91    1.04
   0  20 -21    1.11    1.12
   1  20 -21    0.10    1.06
  -1  20 -21    0.74    1.06
   2  20 -21    0.32    1.09
   2  20  21    1.59    1.03
  -2  20 -21    0.62    1.09
   3  20 -21    2.90    1.26
   3  20  21    1.49    1.04
  -3  20 -21    2.07    1.13
   4  20 -21    0.04    1.14
  -4  20 -21    0.91    1.02
   4  20  21    0.78    1.00
   5  20 -21   -0.75    1.08
  -5  20 -21    1.83    1.09
   0  21 -21    0.67    1.13
   1  21 -21    1.23    1.20
   1  21  21    1.35    1.15
  -1  21 -21    1.89    1.17
   2  21 -21   -1.00    1.08
   2  21  21    0.94    1.08
  -2  21 -21    1.23    1.17
   3  21 -21    5.26    1.43
  -3  21 -21    1.85    1.17
   3  21  21    2.25    1.14
   4  21 -21   -0.43    1.16
  -4  21 -21    0.58    1.04
   4  21  21    0.76    1.01
   0  22  21    2.23    1.15
   0  22 -21   -0.73    1.15
   1  22 -21    0.53    1.24
   1  22  21    1.33    1.15
  -1  22 -21    0.79    1.16
   0   0 -22    3.52    0.70
  -1   0 -22   16.36    1.15
   1   0 -22   15.77    1.24
   2   0 -22   29.05    1.62
  -2   0 -22   21.69    1.32
  -3   0 -22   46.98    2.21
   3   0 -22   45.41    2.48
   4   0 -22   12.25    1.25
  -4   0 -22   12.31    0.80
   5   0 -22    0.37    0.73
   6   0 -22   22.83    1.71
   7   0 -22   52.72    2.95
   8   0 -22    0.00    0.79
   9   0 -22    0.73    0.90
  10   0 -22   -1.67    0.81
  11   0 -22    2.64    1.13
  12   0 -22    1.40    1.01
   0  -1 -22    1.16    0.59
   0   1 -22    1.33    0.60
  -1  -1 -22   26.00    1.51
   1   1 -22   26.19    1.64
   1  -1 -22   26.21    1.60
  -1   1 -22   28.51    1.55
  -2  -1 -22   38.95    2.21
   2   1 -22   49.93    2.48
   2  -1 -22   53.91    2.53
  -2   1 -22   48.00    2.29
  -3  -1 -22   36.35    1.70
   3   1 -22   30.97    1.95
  -3   1 -22   32.60    1.71
   3  -1 -22   33.72    1.98
   4   1 -22    8.12    1.04
  -4   1 -22    7.31    0.65
   4  -1 -22    6.07    0.98
   5   1 -22    3.87    0.90
   5  -1 -22    3.45    0.88
   6   1 -22   27.40    1.86
   6  -1 -22   24.70    1.80
   7   1 -22    9.01    1.24
   7  -1 -22    7.09    1.12
   8   1 -22    7.12    1.22
   8  -1 -22    5.07    1.08
   9   1 -22   -0.04    0.87
   9  -1 -22    0.79    0.96
  10   1 -22    0.92    0.93
  10  -1 -22   -0.75    0.82
  11   1 -22   -1.23    0.90
  11  -1 -22    0.68    0.96
  12   1 -22    3.45    1.14
  12  -1 -22    2.62    1.09
   0  -2 -22   28.94    1.66
   0   2 -22   30.36    1.72
   1   2 -22   36.55    2.05
  -1  -2 -22   37.61    1.96
  -1   2 -22   37.48    1.99
   1  -2 -22   38.99    2.05
   2   2 -22    2.44    0.74
  -2  -2 -22    1.68    0.50
  -2   2 -22    3.04    0.64
   2  -2 -22    2.23    0.71
   3   2 -22   20.16    1.46
   3  -2 -22   19.58    1.42
   4   2 -22   24.29    1.67
  -4   2 -22   24.34    1.30
   4  -2 -22   23.73    1.64
   5   2 -22   24.32    1.62
   5  -2 -22   21.19    1.62
   6   2 -22   11.33    1.30
   6  -2 -22   10.14    1.23
   7   2 -22   -0.44    0.78
   7  -2 -22    0.96    0.79
   8   2 -22   14.54    1.55
   8  -2 -22   14.83    1.53
   9   2 -22    3.39    1.10
   9  -2 -22    3.05    1.03
  10   2 -22   -0.51    0.89
  10  -2 -22    1.44    0.93
  11   2 -22   -0.10    0.90
  11  -2 -22   -0.12    0.95
  12   2 -22    3.27    1.12
  12  -2 -22    3.42    1.16
   0  -3 -22   87.85    4.00
   0   3 -22   84.51    4.02
  -1  -3 -22    9.82    0.90
   1   3 -22    8.92    1.02
   1  -3 -22   10.14    1.02
  -1   3 -22   10.10    0.96
  -2  -3 -22   13.37    0.92
   2   3 -22   11.18    1.11
  -2   3 -22   10.38    0.94
   2  -3 -22   10.82    1.11
   3   3 -22    4.05    0.84
   3  -3 -22    4.08    0.80
   4   3 -22   26.72    1.77
  -4   3 -22   26.73    1.43
   4  -3 -22   26.68    1.74
   5   3 -22   12.99    1.31
   5  -3 -22    9.79    1.21
   6   3 -22    1.03    0.80
   6  -3 -22    0.71    0.76
   7   3 -22    2.03    0.87
   7  -3 -22    1.41    0.82
   8   3 -22    0.51    0.87
   8  -3 -22    1.32    0.86
   9   3 -22    4.61    1.12
   9  -3 -22    7.99    1.24
  10   3 -22    0.89    0.94
  10  -3 -22    0.58    0.91
  11   3 -22    0.65    1.05
  11  -3 -22    0.94    0.98
  12   3 -22    1.28    1.06
  12  -3 -22    1.07    1.03
   0  -4 -22   -0.82    0.46
   0   4 -22   -0.37    0.61
   1   4 -22   12.79    1.13
   1  -4 -22   11.43    1.05
  -1   4 -22   14.58    1.09
   2   4 -22    4.43    0.84
   2  -4 -22    4.29    0.84
  -2   4 -22    4.86    0.77
   3   4 -22    9.57    1.09
   3  -4 -22    7.50    1.00
  -3   4 -22   10.38    0.86
   4   4 -22    0.11    0.68
  -4   4 -22   -0.20    0.43
   4  -4 -22    0.58    0.68
   5   4 -22   24.85    1.73
  -5   4 -22   22.07    1.25
   5  -4 -22   23.53    1.68
   6   4 -22   10.90    1.31
   6  -4 -22   11.91    1.28
   7   4 -22    1.49    0.89
   7  -4 -22    0.39    0.77
   8   4 -22    1.70    0.91
   8  -4 -22    1.72    0.88
   9   4 -22    1.09    0.91
   9  -4 -22    1.13    0.89
  10   4 -22    3.85    1.15
  10  -4 -22    5.57    1.22
  11   4 -22    0.55    1.02
  11  -4 -22   -1.80    0.87
  12   4 -22    1.32    1.07
  12  -4 -22    0.39    0.96
   0   5 -22    5.57    0.84
   1   5 -22   24.00    1.58
   1  -5 -22   22.98    1.49
  -1   5 -22   24.31    1.52
   2   5 -22   22.10    1.52
   2  -5 -22   20.00    1.46
  -2   5 -22   20.65    1.36
   3   5 -22    2.58    0.80
   3  -5 -22    0.38    0.64
  -3   5 -22    1.22    0.61
   4   5 -22    3.07    0.87
  -4   5 -22    1.29    0.39
   4  -5 -22    3.38    0.84
   5   5 -22   27.69    1.96
  -5   5 -22   29.77    1.59
   5  -5 -22   32.35    1.97
   6   5 -22    1.33    0.77
   6  -5 -22    3.05    0.86
   7   5 -22    5.43    1.10
   7  -5 -22    3.89    0.99
   8   5 -22    1.86    0.94
   8  -5 -22    1.11    0.84
   9   5 -22    3.80    1.08
   9  -5 -22    3.04    1.01
  10   5 -22    1.57    1.00
  10  -5 -22    1.43    0.95
  11   5 -22    1.25    1.04
  11  -5 -22    2.89    1.08
  12   5 -22    0.07    1.04
  12  -5 -22    0.78    1.01
   0   6 -22    5.66    0.89
   1   6 -22    4.47    0.91
  -1   6 -22    4.66    0.84
   2   6 -22   15.64    1.32
  -2   6 -22   15.93    1.23
   2  -6 -22   14.54    1.22
   3   6 -22    1.68    0.81
  -3   6 -22    2.83    0.72
   3  -6 -22    3.01    0.78
   4   6 -22   14.40    1.46
  -4   6 -22   15.84    1.18
   4  -6 -22   18.57    1.41
   5   6 -22   10.45    1.27
   5  -6 -22   11.04    1.22
   6   6 -22    2.31    0.89
   6  -6 -22    3.52    0.87
   7   6 -22    8.89    1.24
   7  -6 -22    7.09    1.11
   8   6 -22    4.33    1.09
   8  -6 -22    5.78    1.08
   9   6 -22    4.76    1.14
   9  -6 -22    5.56    1.11
  10   6 -22   -0.71    0.92
  10  -6 -22    1.39    0.94
  11   6 -22    1.97    1.08
  12   6 -22    1.91    1.19
   0   7 -22   12.63    1.21
   1   7 -22   17.08    1.39
  -1   7 -22   19.37    1.40
   2   7 -22    6.77    1.03
  -2   7 -22    6.40    0.91
   3   7 -22   14.07    1.36
  -3   7 -22   11.89    1.08
   4   7 -22    7.50    1.19
  -4   7 -22   11.00    1.04
   5   7 -22    1.12    0.85
  -5   7 -22    0.81    0.62
   6   7 -22    8.44    1.22
   6  -7 -22    9.61    1.23
   7   7 -22    0.31    0.85
   7  -7 -22    1.76    0.85
   8   7 -22    4.49    1.11
   9   7 -22    3.27    1.08
  10   7 -22    0.99    0.99
  11   7 -22    2.13    1.08
  12   7 -22   -0.21    1.11
   0   8 -22   13.83    1.27
   1   8 -22    4.31    0.92
  -1   8 -22    4.67    0.87
   2   8 -22   22.64    1.65
  -2   8 -22   22.35    1.55
   3   8 -22   25.24    1.82
  -3   8 -22   26.43    1.69
   4   8 -22    8.03    1.21
  -4   8 -22   10.09    1.06
   5   8 -22    0.28    0.86
  -5   8 -22    0.89    0.69
   6   8 -22   10.72    1.37
   7   8 -22    4.64    1.05
   8   8 -22    3.52    1.06
   9   8 -22    0.67    0.96
  10   8 -22   -1.70    0.88
  11   8 -22   -1.03    0.92
  12   8 -22    1.93    1.20
   0   9 -22    1.26    0.78
   1   9 -22   -0.46    0.78
  -1   9 -22   -0.31    0.76
   2   9 -22   17.98    1.56
  -2   9 -22   21.12    1.51
   3   9 -22    0.77    0.86
  -3   9 -22    1.08    0.76
   4   9 -22    0.72    0.87
  -4   9 -22    0.31    0.76
   5   9 -22    0.51    0.84
  -5   9 -22    0.02    0.72
   6   9 -22    8.59    1.30
   7   9 -22    1.90    0.95
   8   9 -22    1.51    0.96
   9   9 -22    0.09    0.88
  10   9 -22   -1.22    0.95
  11   9 -22    2.35    1.18
   0  10 -22    0.99    0.87
   1  10 -22   11.04    1.29
  -1  10 -22    9.48    1.17
   2  10 -22   -0.66    0.81
  -2  10 -22   -0.16    0.77
   3  10 -22    8.22    1.25
  -3  10 -22    8.55    1.10
   4  10 -22    2.21    0.99
  -4  10 -22    1.20    0.78
   5  10 -22    4.04    1.09
  -5  10 -22    4.19    0.90
   5  10  22    5.03    0.76
   6  10 -22    3.19    1.04
   7  10 -22    6.69    1.26
   8  10 -22   -0.45    0.88
   9  10 -22   -0.84    0.87
  10  10 -22    2.06    1.15
  11  10 -22   -0.14    1.12
   0  11 -22    9.11    1.20
   1  11 -22    4.02    1.02
  -1  11 -22    2.61    0.91
   2  11 -22    8.07    1.23
  -2  11 -22    9.13    1.15
   3  11 -22    3.56    1.02
  -3  11 -22    2.17    0.90
   4  11 -22    8.47    1.30
  -4  11 -22    9.35    1.17
   5  11 -22    3.26    1.04
  -5  11 -22    2.11    0.86
   5  11  22    1.90    0.72
   6  11 -22    3.12    1.06
   7  11 -22   -0.32    0.91
   8  11 -22    0.35    0.99
   9  11 -22    0.45    1.03
  10  11 -22    0.54    1.01
  11  11 -22   -1.49    1.00
   0  12 -22    0.72    0.91
   1  12 -22   11.16    1.37
  -1  12 -22   11.09    1.35
   2  12 -22    3.15    1.04
  -2  12 -22    2.14    0.92
   3  12 -22    1.93    0.98
  -3  12 -22    0.94    0.85
   4  12 -22    1.79    0.94
  -4  12 -22    0.63    0.82
   5  12 -22    5.33    1.17
   5  12  22    3.69    0.83
  -5  12 -22    6.78    1.07
   6  12 -22   -0.25    0.82
   7  12 -22   -0.17    0.94
   8  12 -22    1.71    1.09
   9  12 -22    1.17    1.12
  10  12 -22   -0.21    1.08
   0  13 -22    9.11    1.31
   1  13 -22    0.18    0.92
  -1  13 -22    1.06    0.96
   2  13 -22    2.51    1.04
  -2  13 -22    1.63    0.94
   3  13 -22    0.84    0.96
  -3  13 -22    1.92    0.87
   4  13 -22    3.30    1.09
  -4  13 -22    3.35    0.96
   4  13  22    3.28    0.83
   5  13 -22    1.83    0.99
   5  13  22    2.92    0.80
  -5  13 -22    1.93    0.91
   6  13 -22   -1.25    0.84
  -6  13 -22   -0.42    0.77
   7  13 -22    0.95    1.04
   8  13 -22    2.79    1.17
   9  13 -22    0.67    1.09
  10  13 -22   -1.79    1.00
   0  14 -22    0.85    0.94
   1  14 -22    1.15    1.04
  -1  14 -22   -0.10    0.84
   2  14 -22   -0.05    0.93
  -2  14 -22   -0.21    0.83
   3  14 -22    1.84    1.02
  -3  14 -22    0.33    0.88
   4  14 -22    0.16    0.92
   4  14  22    0.87    0.73
  -4  14 -22   -0.45    0.82
   5  14 -22    1.69    1.02
   5  14  22   -0.66    0.69
  -5  14 -22    0.22    0.80
   6  14 -22    1.56    1.06
  -6  14 -22    2.13    0.90
   7  14 -22    0.16    0.97
   8  14 -22    0.09    1.04
   9  14 -22    0.32    1.15
   0  15 -22    0.25    0.93
   1  15 -22    0.54    0.97
  -1  15 -22    0.92    1.00
   2  15 -22    3.65    1.15
  -2  15 -22    2.94    1.03
   3  15 -22    0.33    0.99
  -3  15 -22   -0.02    0.86
   4  15 -22    0.74    0.99
  -4  15 -22   -1.42    0.80
   4  15  22    0.10    0.76
   5  15 -22   -0.73    0.95
  -5  15 -22    2.09    0.93
   5  15  22    1.22    0.79
   6  15 -22    0.04    1.01
  -6  15 -22    1.03    0.88
   7  15 -22    1.19    1.11
   8  15 -22    0.90    1.16
   9  15 -22    0.65    1.15
   0  16 -22   -1.07    0.86
   1  16 -22    0.05    0.92
  -1  16 -22   -0.49    0.89
   2  16 -22    0.11    0.97
  -2  16 -22    0.18    0.93
   3  16 -22    0.43    1.04
   3  16  22    0.59    0.83
  -3  16 -22   -0.92    0.81
   4  16 -22   -0.40    0.99
   4  16  22   -0.14    0.77
  -4  16 -22    0.48    0.91
   5  16 -22    1.05    1.04
   5  16  22   -0.40    0.77
  -5  16 -22    1.75    1.01
   6  16 -22    1.34    1.11
  -6  16 -22    2.16    0.93
   7  16 -22   -0.17    1.08
   8  16 -22    1.45    1.21
   0  17 -22    2.30    1.16
   1  17 -22    2.23    1.09
  -1  17 -22    1.49    1.09
   2  17 -22   -0.61    1.05
  -2  17 -22    0.51    0.94
   3  17 -22    1.39    1.10
   3  17  22    0.59    0.86
  -3  17 -22    2.02    1.04
   4  17 -22    2.89    1.22
  -4  17 -22    1.01    1.01
   4  17  22    2.78    0.95
   5  17 -22   -0.33    1.00
  -5  17 -22    0.24    0.90
   6  17 -22    2.33    1.19
  -6  17 -22    0.44    0.91
   7  17 -22    1.26    1.22
   8  17 -22   -0.07    1.16
   0  18 -22   -0.33    1.02
   1  18 -22    2.30    1.12
  -1  18 -22    1.01    1.07
   2  18 -22   -0.31    1.04
  -2  18 -22    1.04    1.00
   3  18 -22    0.50    1.10
  -3  18 -22    0.54    0.97
   3  18  22    0.22    0.84
   4  18 -22    2.79    1.24
  -4  18 -22    3.12    1.12
   4  18  22    1.85    0.92
   5  18 -22   -1.86    1.01
  -5  18 -22   -0.78    0.92
   6  18 -22   -0.97    1.07
  -6  18 -22    0.65    0.97
   7  18 -22   -0.28    1.14
   0  19 -22    0.80    1.13
   1  19 -22    1.61    1.13
  -1  19 -22   -0.80    0.98
   2  19 -22    4.20    1.31
   2  19  22    5.81    1.19
  -2  19 -22    5.04    1.29
   3  19 -22    0.52    1.14
  -3  19 -22   -0.69    1.01
   3  19  22    0.68    0.95
   4  19 -22    0.72    1.22
  -4  19 -22    1.97    1.11
   4  19  22    0.20    0.90
   5  19 -22   -0.73    1.13
  -5  19 -22   -0.01    0.99
   6  19 -22    1.11    1.19
  -6  19 -22    1.72    1.08
   0  20 -22    2.41    1.17
   1  20 -22   -0.89    1.08
  -1  20 -22   -1.85    1.00
   2  20 -22    0.81    1.15
   2  20  22    1.31    1.04
  -2  20 -22   -0.02    1.00
   3  20 -22    1.80    1.23
  -3  20 -22    0.20    1.03
   3  20  22    1.46    1.04
   4  20 -22    0.88    1.23
   4  20  22   -0.52    0.92
  -4  20 -22    0.54    1.08
   5  20 -22   -0.69    1.15
  -5  20 -22    0.06    1.04
   0  21 -22   -0.26    1.13
   1  21 -22   -1.21    1.15
  -1  21 -22   -0.69    1.04
   1  21  22   -1.78    0.90
   2  21 -22    2.08    1.26
  -2  21 -22    0.83    1.09
   2  21  22    1.79    1.12
   3  21 -22    2.18    1.26
   3  21  22    2.09    1.13
  -3  21 -22    0.80    1.12
   0   0 -23   -0.10    0.57
  -1   0 -23    2.32    0.61
   1   0 -23    2.59    0.69
   2   0 -23    0.92    0.64
  -2   0 -23    0.27    0.49
  -3   0 -23    2.75    0.49
   3   0 -23    5.03    0.89
   4   0 -23    0.13    0.70
  -4   0 -23    0.49    0.40
   5   0 -23   -1.14    0.71
   6   0 -23    5.61    1.02
   7   0 -23    2.59    0.91
   8   0 -23    1.36    0.86
   9   0 -23    1.10    0.90
  10   0 -23    4.20    1.14
  11   0 -23   -0.62    0.93
  12   0 -23    1.29    1.05
   0  -1 -23    2.59    0.62
   0   1 -23    2.62    0.67
  -1  -1 -23    2.34    0.61
   1   1 -23    2.79    0.72
   1  -1 -23    2.14    0.66
  -1   1 -23    3.35    0.66
  -2  -1 -23    0.36    0.49
   2   1 -23    0.34    0.61
  -2   1 -23    0.88    0.53
   2  -1 -23    0.57    0.62
  -3  -1 -23    1.24    0.42
   3   1 -23    1.59    0.73
  -3   1 -23    0.09    0.28
   3  -1 -23    0.79    0.68
   4   1 -23    3.21    0.86
  -4   1 -23    3.23    0.51
   4  -1 -23    3.47    0.86
   5   1 -23    4.92    0.99
   5  -1 -23    7.08    1.06
   6   1 -23    4.10    0.93
   6  -1 -23    3.51    0.92
   7   1 -23    6.43    1.14
   7  -1 -23    7.26    1.15
   8   1 -23    0.52    0.86
   8  -1 -23    0.44    0.83
   9   1 -23    1.48    0.92
   9  -1 -23    1.04    0.91
  10   1 -23    1.47    0.95
  10  -1 -23    1.45    0.97
  11   1 -23    0.48    0.98
  11  -1 -23    0.11    0.96
  12   1 -23    0.42    0.96
  12  -1 -23   -0.61    0.92
   0   2 -23    1.99    0.64
   0  -2 -23    2.44    0.64
  -1  -2 -23    6.28    0.76
   1   2 -23    6.17    0.87
   1  -2 -23    6.35    0.86
  -1   2 -23    7.53    0.84
  -2  -2 -23    7.58    0.78
   2   2 -23    6.68    0.94
   2  -2 -23    7.26    0.94
  -2   2 -23    7.14    0.81
   3   2 -23    2.59    0.80
   3  -2 -23    2.90    0.78
   4   2 -23   11.65    1.25
  -4   2 -23   11.70    0.86
   4  -2 -23   10.73    1.20
   5   2 -23    1.86    0.84
   5  -2 -23    2.87    0.86
   6   2 -23    2.92    0.90
   6  -2 -23    2.38    0.85
   7   2 -23    1.84    0.90
   7  -2 -23    0.35    0.77
   8   2 -23    5.11    1.10
   8  -2 -23    5.73    1.11
   9   2 -23    1.78    0.96
   9  -2 -23    3.34    1.01
  10   2 -23    0.31    0.90
  10  -2 -23    0.93    0.90
  11   2 -23    2.09    1.06
  11  -2 -23   -0.97    0.85
  12   2 -23    0.05    1.00
  12  -2 -23    0.45    0.98
   0  -3 -23   20.41    1.32
   0   3 -23   18.45    1.34
  -1  -3 -23    2.96    0.63
   1   3 -23    4.51    0.79
   1  -3 -23    2.60    0.67
  -1   3 -23    5.00    0.75
   2   3 -23   14.42    1.23
  -2  -3 -23   14.26    1.01
   2  -3 -23   13.83    1.18
  -2   3 -23   13.57    1.07
   3   3 -23    3.56    0.84
  -3   3 -23    4.44    0.64
   3  -3 -23    4.21    0.86
   4   3 -23    1.37    0.79
  -4   3 -23    2.75    0.54
   4  -3 -23    2.10    0.78
   5   3 -23   -0.03    0.73
   5  -3 -23    0.28    0.76
   6   3 -23   14.35    1.43
   6  -3 -23   10.75    1.31
   7   3 -23   -0.40    0.74
   7  -3 -23   -0.24    0.76
   8   3 -23    3.80    1.02
   8  -3 -23    4.47    1.04
   9   3 -23    3.12    1.04
   9  -3 -23    2.34    0.92
  10   3 -23    1.73    1.02
  10  -3 -23    1.75    0.95
  11   3 -23   -0.97    0.90
  11  -3 -23    0.58    0.99
  12   3 -23    0.83    1.05
  12  -3 -23    1.46    1.10
   0   4 -23    0.39    0.61
   0  -4 -23   -0.18    0.54
  -1  -4 -23   16.25    1.08
   1   4 -23   12.91    1.17
   1  -4 -23   14.15    1.17
  -1   4 -23   11.06    1.07
   2   4 -23   -0.09    0.64
  -2   4 -23   -0.22    0.59
   2  -4 -23   -0.26    0.60
   3   4 -23   22.76    1.60
  -3   4 -23   22.86    1.38
   3  -4 -23   23.19    1.62
   4   4 -23    0.01    0.72
  -4   4 -23   -0.41    0.22
   4  -4 -23   -0.58    0.67
   5   4 -23    0.84    0.82
   5  -4 -23    2.25    0.83
   6   4 -23    1.81    0.87
   6  -4 -23    0.31    0.68
   7   4 -23   11.01    1.36
   7  -4 -23   10.29    1.31
   8   4 -23    1.42    0.86
   8  -4 -23    1.29    0.84
   9   4 -23    0.48    0.90
   9  -4 -23    0.36    0.81
  10   4 -23   -0.11    0.89
  10  -4 -23    0.63    0.91
  11   4 -23    1.37    1.06
  11  -4 -23    0.62    0.96
  12   4 -23    1.46    1.13
  12  -4 -23    0.44    1.01
   0   5 -23    2.51    0.75
   1   5 -23    3.44    0.79
  -1   5 -23    2.25    0.73
   1  -5 -23    1.89    0.68
   2   5 -23   19.42    1.41
  -2   5 -23   16.87    1.26
   2  -5 -23   15.05    1.33
   3   5 -23    4.31    0.93
   3  -5 -23    4.57    0.87
  -3   5 -23    4.78    0.76
   4   5 -23   27.39    1.83
  -4   5 -23   25.26    1.49
   4  -5 -23   26.49    1.80
   5   5 -23    2.13    0.88
   5  -5 -23    1.82    0.82
   6   5 -23    6.37    1.11
   6  -5 -23    6.53    1.07
   7   5 -23    6.15    1.14
   7  -5 -23    6.91    1.14
   8   5 -23    2.21    0.98
   8  -5 -23    2.41    0.93
   9   5 -23    3.14    1.07
   9  -5 -23    1.63    0.96
  10   5 -23    0.49    0.96
  10  -5 -23   -0.32    0.78
  11   5 -23    2.16    1.10
  11  -5 -23    3.76    1.10
  12   5 -23   -0.90    1.07
  12  -5 -23    0.88    1.05
   0   6 -23    4.27    0.83
   1   6 -23   19.28    1.46
  -1   6 -23   21.17    1.44
   2   6 -23    9.85    1.17
  -2   6 -23   10.05    1.06
   2  -6 -23   12.48    1.18
   3   6 -23    5.97    1.04
  -3   6 -23    6.42    0.87
   3  -6 -23    5.44    0.94
   4   6 -23   10.42    1.26
   4  -6 -23    9.51    1.13
  -4   6 -23    9.39    0.98
   5   6 -23    3.61    0.94
  -5   6 -23    1.41    0.45
   5  -6 -23    4.45    0.89
   6   6 -23    1.21    0.83
   6  -6 -23    1.88    0.83
   7   6 -23    2.78    0.97
   7  -6 -23    3.35    0.91
   8   6 -23    0.50    0.86
   8  -6 -23   -0.52    0.73
   9   6 -23    2.69    1.03
   9  -6 -23    2.88    1.01
  10   6 -23   -0.82    0.85
  10  -6 -23   -0.71    0.82
  11   6 -23    1.35    1.07
  11  -6 -23    0.79    0.97
  12   6 -23    0.40    1.07
   0   7 -23   33.11    1.96
   1   7 -23    2.62    0.81
  -1   7 -23    1.59    0.75
   2   7 -23    7.04    1.08
  -2   7 -23    5.83    0.92
   3   7 -23    0.14    0.77
  -3   7 -23    1.19    0.72
   4   7 -23   21.31    1.69
  -4   7 -23   21.52    1.42
   5   7 -23   -0.02    0.82
   5  -7 -23    1.13    0.78
  -5   7 -23    1.04    0.65
   6   7 -23    6.48    1.16
   6  -7 -23    9.30    1.22
   7   7 -23    0.16    0.82
   7  -7 -23    0.54    0.75
   8   7 -23    2.86    1.02
   9   7 -23    0.26    0.94
  10   7 -23    3.64    1.14
  11   7 -23   -0.50    0.96
   0   8 -23   38.14    2.24
   1   8 -23   17.50    1.48
  -1   8 -23   16.06    1.37
   2   8 -23    9.61    1.26
  -2   8 -23   11.63    1.18
   3   8 -23    3.33    0.98
  -3   8 -23    4.38    0.88
   4   8 -23    4.35    1.01
  -4   8 -23    4.88    0.88
   5   8 -23    2.43    0.98
  -5   8 -23    1.46    0.72
   6   8 -23    5.64    1.13
   7   8 -23    0.39    0.88
   8   8 -23    0.90    0.90
   9   8 -23    0.67    0.96
  10   8 -23   -0.52    0.92
  11   8 -23    0.19    1.07
   0   9 -23    1.94    0.82
   1   9 -23    3.13    0.92
  -1   9 -23    2.46    0.88
   2   9 -23    5.34    1.04
  -2   9 -23    6.03    1.00
   3   9 -23   20.71    1.66
  -3   9 -23   19.35    1.49
   4   9 -23    6.26    1.13
  -4   9 -23    6.03    0.98
   5   9 -23    9.28    1.31
  -5   9 -23   10.74    1.11
   6   9 -23    2.56    0.97
   7   9 -23    4.65    1.12
   8   9 -23    0.49    0.90
   9   9 -23    2.65    1.10
  10   9 -23    0.15    1.10
  11   9 -23    0.34    1.10
   0  10 -23    4.19    0.97
   1  10 -23   16.84    1.54
  -1  10 -23   17.75    1.50
   2  10 -23    1.12    0.88
  -2  10 -23    0.19    0.80
   3  10 -23   11.77    1.42
  -3  10 -23   14.81    1.31
   4  10 -23    2.69    1.00
  -4  10 -23    3.05    0.89
   5  10 -23    5.03    1.12
  -5  10 -23    5.78    0.98
   6  10 -23    1.15    0.95
   7  10 -23    2.75    1.05
   8  10 -23    1.87    1.06
   9  10 -23    0.10    0.96
  10  10 -23    0.00    1.03
  11  10 -23   -0.41    1.03
   0  11 -23   -0.28    0.81
   1  11 -23   -0.12    0.82
  -1  11 -23    0.46    0.82
   2  11 -23    3.15    1.01
  -2  11 -23    2.66    0.92
   3  11 -23   14.47    1.57
  -3  11 -23   14.86    1.43
   4  11 -23    0.40    0.91
  -4  11 -23    1.69    0.86
   5  11 -23    5.66    1.21
  -5  11 -23    6.10    0.98
   6  11 -23    0.33    0.92
   7  11 -23    9.78    1.43
   8  11 -23    0.93    0.99
   9  11 -23    3.83    1.23
  10  11 -23   -0.66    0.97
   0  12 -23   16.81    1.65
   1  12 -23    6.07    1.15
  -1  12 -23    6.93    1.19
   2  12 -23    7.21    1.26
  -2  12 -23    9.24    1.26
   3  12 -23   11.05    1.46
  -3  12 -23   13.09    1.36
   4  12 -23    4.97    1.14
  -4  12 -23    3.89    0.98
   5  12 -23    1.32    0.95
  -5  12 -23    1.85    0.86
   6  12 -23    1.54    0.98
   7  12 -23    1.78    1.04
   8  12 -23    0.57    1.03
   9  12 -23    0.78    1.05
  10  12 -23   -0.79    1.07
   0  13 -23    2.30    0.97
   1  13 -23    0.57    0.98
  -1  13 -23    1.02    0.94
   2  13 -23    6.17    1.23
  -2  13 -23    5.46    1.11
   3  13 -23    1.03    0.98
  -3  13 -23    1.35    0.88
   4  13 -23    5.27    1.21
  -4  13 -23    6.31    1.13
   5  13 -23   -0.08    0.92
  -5  13 -23    0.06    0.86
   6  13 -23    6.55    1.27
   7  13 -23    1.09    1.02
   8  13 -23    4.55    1.29
   9  13 -23    1.57    1.14
  10  13 -23    0.08    1.11
   0  14 -23   10.13    1.43
   1  14 -23    8.39    1.35
  -1  14 -23    8.42    1.34
   2  14 -23   12.27    1.57
  -2  14 -23    9.07    1.31
   3  14 -23    0.88    1.00
  -3  14 -23    1.44    0.92
   4  14 -23    6.44    1.25
  -4  14 -23    6.56    1.16
   4  14  23    6.98    1.06
   5  14 -23    1.34    1.02
  -5  14 -23    1.67    0.90
   6  14 -23    2.83    1.11
   7  14 -23    0.30    0.99
   8  14 -23    0.80    1.09
   9  14 -23    0.84    1.16
   0  15 -23    1.52    0.98
   1  15 -23    0.41    0.95
  -1  15 -23    1.08    0.99
   2  15 -23    2.40    1.09
  -2  15 -23    1.58    0.96
   3  15 -23    1.24    1.05
  -3  15 -23    0.56    0.95
   4  15 -23    2.90    1.18
   4  15  23    4.08    0.91
  -4  15 -23    5.35    1.12
   5  15 -23    0.52    1.03
  -5  15 -23    0.41    0.93
   6  15 -23    4.60    1.23
   7  15 -23    1.29    1.14
   8  15 -23    3.36    1.26
   9  15 -23    1.09    1.14
   0  16 -23    0.20    1.00
   1  16 -23   12.96    1.59
  -1  16 -23   11.82    1.54
   2  16 -23    0.13    0.99
  -2  16 -23   -0.27    0.89
   3  16 -23    8.45    1.46
  -3  16 -23    9.42    1.36
   4  16 -23    1.28    1.08
   4  16  23    0.61    0.87
  -4  16 -23    0.73    0.92
   5  16 -23    3.86    1.25
  -5  16 -23    4.05    1.08
   6  16 -23    0.80    1.10
   7  16 -23    2.05    1.23
   8  16 -23   -1.06    1.07
   0  17 -23    1.08    1.03
   1  17 -23   -0.22    1.00
  -1  17 -23   -0.34    0.90
   2  17 -23    2.42    1.18
  -2  17 -23    2.54    1.11
   3  17 -23    1.49    1.12
  -3  17 -23    1.42    1.01
   3  17  23    1.25    0.91
   4  17 -23    3.22    1.21
   4  17  23    1.18    0.85
  -4  17 -23    0.11    0.96
   5  17 -23    4.54    1.29
  -5  17 -23    5.92    1.21
   6  17 -23    2.33    1.22
   7  17 -23    2.89    1.27
   0  18 -23    2.14    1.13
   1  18 -23    4.06    1.26
  -1  18 -23    4.37    1.21
   2  18 -23    1.41    1.14
  -2  18 -23    1.51    1.10
   3  18 -23    1.63    1.15
  -3  18 -23    1.80    1.11
   3  18  23    2.41    1.01
   4  18 -23   -0.17    1.09
  -4  18 -23    1.94    1.09
   4  18  23    1.92    0.95
   5  18 -23    0.74    1.16
  -5  18 -23    0.29    1.01
   6  18 -23   -0.83    1.13
   0  19 -23    0.39    1.02
   1  19 -23    1.66    1.14
  -1  19 -23   -0.01    1.02
   2  19 -23    0.26    1.13
  -2  19 -23    0.44    1.03
   2  19  23    0.88    0.95
   3  19 -23    0.90    1.14
   3  19  23    0.23    0.92
  -3  19 -23    0.21    0.97
   4  19 -23    2.50    1.27
   4  19  23    3.10    1.06
  -4  19 -23    2.83    1.15
   5  19 -23   -0.17    1.13
  -5  19 -23    0.63    1.05
   0  20 -23    3.59    1.29
   1  20 -23   -0.11    1.14
  -1  20 -23   -0.80    1.09
   2  20 -23    2.48    1.28
   2  20  23    3.42    1.18
  -2  20 -23    5.53    1.37
   3  20 -23   -0.21    1.17
   3  20  23   -0.80    0.94
  -3  20 -23    0.34    1.09
   4  20 -23   -1.27    1.11
   4  20  23    0.79    0.98
  -4  20 -23    0.03    1.06
   0  21 -23    0.92    1.14
   1  21 -23   -0.13    1.16
   1  21  23    1.74    1.19
  -1  21 -23    0.03    1.08
   2  21 -23   -2.51    1.11
  -2  21 -23   -0.34    1.04
   2  21  23    1.90    1.11
   0   0 -24    0.15    0.61
  -1   0 -24   36.48    1.88
   1   0 -24   31.77    1.93
  -2   0 -24   10.28    0.90
   2   0 -24   10.78    1.12
  -3   0 -24   -0.20    0.18
   3   0 -24    0.30    0.67
   4   0 -24    0.03    0.73
  -4   0 -24   -0.41    0.44
   5   0 -24   59.12    3.18
   6   0 -24    5.05    1.05
   7   0 -24    2.12    0.90
   8   0 -24   -0.40    0.74
   9   0 -24    8.85    1.34
  10   0 -24    0.83    1.01
  11   0 -24    1.10    0.95
  12   0 -24   -0.46    1.07
   0  -1 -24   46.70    2.40
   0   1 -24   46.26    2.42
   1   1 -24   31.36    1.84
  -1  -1 -24   31.23    1.74
   1  -1 -24   29.74    1.81
  -1   1 -24   29.81    1.74
  -2  -1 -24    1.83    0.57
   2   1 -24    1.65    0.75
  -2   1 -24    2.63    0.63
   2  -1 -24    2.07    0.72
   3   1 -24   14.49    1.30
   3  -1 -24   11.80    1.21
   4   1 -24   33.66    2.14
   4  -1 -24   34.27    2.12
  -4   1 -24   37.01    1.77
   5   1 -24    4.21    0.98
   5  -1 -24    5.09    1.01
   6   1 -24    3.51    0.96
   6  -1 -24    3.43    0.94
   7   1 -24    3.29    0.99
   7  -1 -24    3.77    1.03
   8   1 -24    5.00    1.09
   8  -1 -24    3.74    0.99
   9   1 -24    1.08    0.90
   9  -1 -24   -0.70    0.85
  10   1 -24    2.05    1.00
  10  -1 -24    2.13    1.00
  11   1 -24    1.33    1.03
  11  -1 -24    1.54    0.99
  12   1 -24   -0.07    1.02
  12  -1 -24   -2.34    0.86
   0  -2 -24    0.72    0.60
   0   2 -24    0.11    0.64
   1   2 -24   11.12    1.15
  -1  -2 -24   12.03    0.97
  -1   2 -24   11.25    1.07
   1  -2 -24   10.81    1.07
  -2  -2 -24    5.42    0.76
   2   2 -24    7.60    0.98
  -2   2 -24    7.10    0.82
   2  -2 -24    6.02    0.93
   3   2 -24   25.00    1.64
   3  -2 -24   24.68    1.61
  -3   2 -24   21.38    1.31
   4   2 -24    1.45    0.84
   4  -2 -24    2.68    0.81
  -4   2 -24    3.23    0.59
   5   2 -24   -0.66    0.66
   5  -2 -24   -0.39    0.72
   6   2 -24   14.11    1.46
   6  -2 -24   12.84    1.39
   7   2 -24   16.94    1.54
   7  -2 -24   13.71    1.50
   8   2 -24    3.04    0.99
   8  -2 -24    2.97    0.93
   9   2 -24    0.73    0.89
   9  -2 -24    0.76    0.89
  10   2 -24    5.13    1.18
  10  -2 -24    5.83    1.22
  11   2 -24    2.97    1.06
  11  -2 -24    3.01    1.15
  12   2 -24   -2.06    0.93
  12  -2 -24    0.75    1.06
   0  -3 -24   12.25    1.05
   0   3 -24   11.53    1.05
   1   3 -24    1.90    0.71
  -1  -3 -24    2.08    0.60
  -1   3 -24    0.53    0.62
   1  -3 -24    1.61    0.67
  -2  -3 -24   47.03    2.30
   2   3 -24   41.66    2.45
  -2   3 -24   48.11    2.35
   2  -3 -24   46.19    2.48
   3   3 -24    1.47    0.75
  -3   3 -24    0.86    0.53
   3  -3 -24    1.06    0.69
   4   3 -24   -0.03    0.76
   4  -3 -24    0.62    0.75
  -4   3 -24    0.07    0.38
   5   3 -24    4.70    1.05
   5  -3 -24    6.30    1.05
   6   3 -24    3.14    0.98
   6  -3 -24    3.27    0.95
   7   3 -24    1.52    0.89
   7  -3 -24    1.34    0.85
   8   3 -24    0.67    0.86
   8  -3 -24    0.52    0.80
   9   3 -24    4.23    1.11
   9  -3 -24    3.87    1.06
  10   3 -24    0.52    1.00
  10  -3 -24    1.17    0.91
  11   3 -24    2.33    1.07
  11  -3 -24    0.62    0.93
  12   3 -24    2.09    1.14
  12  -3 -24    2.01    1.15
   0  -4 -24    7.46    0.88
   0   4 -24    7.66    0.97
  -1  -4 -24   10.16    0.96
   1   4 -24    8.51    1.05
  -1   4 -24    7.88    0.97
   1  -4 -24   13.47    1.12
   2   4 -24    3.18    0.82
   2  -4 -24    1.74    0.72
  -2   4 -24    2.54    0.69
   3   4 -24   18.81    1.49
   3  -4 -24   19.59    1.48
  -3   4 -24   21.84    1.30
   4   4 -24   20.26    1.55
   4  -4 -24   17.89    1.49
   5   4 -24    3.47    0.94
   5  -4 -24    1.33    0.79
   6   4 -24    4.12    1.00
   6  -4 -24    4.85    1.00
   7   4 -24    2.27    0.95
   7  -4 -24    4.04    1.00
   8   4 -24   12.63    1.47
   8  -4 -24   13.56    1.48
   9   4 -24    0.45    0.91
   9  -4 -24   -0.05    0.81
  10   4 -24    0.77    0.98
  10  -4 -24   -0.07    0.88
  11   4 -24    0.35    1.08
  11  -4 -24    1.18    0.99
  12   4 -24    1.69    1.22
  12  -4 -24    2.89    1.15
   0   5 -24   12.50    1.12
   1   5 -24    8.85    1.05
   1  -5 -24    7.40    0.98
  -1   5 -24    9.70    1.03
   2   5 -24    5.32    0.94
   2  -5 -24    4.43    0.86
  -2   5 -24    5.95    0.85
   3   5 -24   16.56    1.43
  -3   5 -24   16.08    1.21
   3  -5 -24   20.01    1.44
   4   5 -24    2.43    0.88
  -4   5 -24    2.27    0.64
   4  -5 -24    1.18    0.77
   5   5 -24    1.84    0.89
   5  -5 -24    1.14    0.80
   6   5 -24    2.11    0.93
   6  -5 -24    2.30    0.85
   7   5 -24    4.03    1.05
   7  -5 -24    5.80    1.06
   8   5 -24    1.94    0.93
   8  -5 -24    1.42    0.80
   9   5 -24    0.73    0.95
   9  -5 -24    1.18    0.95
  10   5 -24    0.82    0.95
  10  -5 -24   -0.14    0.86
  11   5 -24   -0.86    0.93
  11  -5 -24    0.67    0.94
  12   5 -24    1.78    1.14
  12  -5 -24    1.42    1.09
   0   6 -24    5.54    0.93
   1   6 -24    0.50    0.72
  -1   6 -24    0.81    0.69
   2   6 -24    6.08    1.01
  -2   6 -24    8.31    1.00
   2  -6 -24    7.25    0.98
   3   6 -24   10.28    1.22
  -3   6 -24    9.61    1.03
   3  -6 -24    9.41    1.13
   4   6 -24    1.98    0.88
   4  -6 -24    3.30    0.85
  -4   6 -24    1.46    0.68
   5   6 -24    3.87    0.90
   5  -6 -24    1.93    0.81
   6   6 -24    6.22    1.13
   6  -6 -24    9.87    1.24
   7   6 -24    3.57    1.00
   7  -6 -24    3.88    0.93
   8   6 -24   -0.72    0.81
   8  -6 -24    1.02    0.76
   9   6 -24    3.19    1.10
   9  -6 -24    3.78    1.06
  10   6 -24    2.03    1.03
  10  -6 -24    0.85    0.97
  11   6 -24    2.70    1.13
  11  -6 -24    2.14    1.06
   0   7 -24    1.13    0.80
   1   7 -24   18.46    1.50
  -1   7 -24   17.57    1.34
   2   7 -24    1.62    0.83
  -2   7 -24    2.66    0.81
   3   7 -24    7.72    1.18
  -3   7 -24    9.98    1.07
   4   7 -24    2.62    0.95
  -4   7 -24    2.41    0.74
   5   7 -24    8.36    1.20
   5  -7 -24    7.82    1.15
   6   7 -24    4.71    1.06
   6  -7 -24    6.21    1.09
   7   7 -24    1.99    0.94
   7  -7 -24    2.62    0.89
   8   7 -24   -0.41    0.81
   8  -7 -24   -0.59    0.71
   9   7 -24    0.73    0.94
  10   7 -24    0.45    1.00
  11   7 -24    4.48    1.24
   0   8 -24    0.63    0.79
   1   8 -24    7.50    1.08
  -1   8 -24    6.30    1.02
   2   8 -24    5.91    1.07
  -2   8 -24    6.58    1.04
   3   8 -24    0.93    0.89
  -3   8 -24    3.83    0.85
   4   8 -24    7.91    1.23
  -4   8 -24    8.22    1.01
   5   8 -24   20.16    1.64
  -5   8 -24   19.66    1.38
   6   8 -24    4.74    1.10
   7   8 -24   -0.19    0.85
   8   8 -24    0.01    0.84
   9   8 -24    3.45    1.16
  10   8 -24    3.97    1.23
  11   8 -24   -0.24    1.00
   0   9 -24   11.84    1.30
   1   9 -24   -0.39    0.82
  -1   9 -24    0.98    0.80
   2   9 -24    2.96    0.93
  -2   9 -24    2.88    0.86
   3   9 -24    1.67    0.93
  -3   9 -24    1.45    0.79
   4   9 -24    9.52    1.29
  -4   9 -24    8.76    1.09
   5   9 -24    0.28    0.87
  -5   9 -24    1.31    0.74
   6   9 -24    0.46    0.90
   7   9 -24    2.87    1.03
   8   9 -24    1.92    1.00
   9   9 -24   -0.76    0.86
  10   9 -24    1.60    1.11
  11   9 -24    0.15    1.13
   0  10 -24    8.25    1.15
   1  10 -24    9.36    1.26
  -1  10 -24   11.71    1.29
   2  10 -24    5.31    1.09
  -2  10 -24    5.42    1.03
   3  10 -24    4.71    1.13
  -3  10 -24    7.00    1.09
   4  10 -24   -0.32    0.87
  -4  10 -24    1.31    0.81
   5  10 -24    5.50    1.19
  -5  10 -24    6.54    1.02
   6  10 -24    2.06    1.00
   7  10 -24    3.53    1.08
   8  10 -24    0.82    0.96
   9  10 -24    0.72    1.01
  10  10 -24   -0.90    0.93
   0  11 -24    9.95    1.28
   1  11 -24    1.37    0.88
  -1  11 -24    1.20    0.85
   2  11 -24   10.46    1.40
  -2  11 -24   12.71    1.34
   3  11 -24    0.70    0.90
  -3  11 -24    0.45    0.83
   4  11 -24    4.13    1.07
  -4  11 -24    3.94    0.92
   5  11 -24    0.40    0.91
  -5  11 -24    0.40    0.79
   6  11 -24    3.77    1.09
   7  11 -24    1.44    0.97
   8  11 -24    0.41    0.98
   9  11 -24    0.51    1.10
  10  11 -24    0.74    1.08
   0  12 -24    2.61    0.98
   1  12 -24    2.30    0.98
  -1  12 -24    3.25    1.03
   2  12 -24   -0.21    0.92
  -2  12 -24   -0.48    0.84
   3  12 -24    3.28    1.08
  -3  12 -24    4.76    1.03
   4  12 -24    1.43    0.99
  -4  12 -24    1.68    0.92
   5  12 -24    0.99    0.98
  -5  12 -24    2.69    0.92
   6  12 -24   -0.77    0.93
   7  12 -24    3.38    1.14
   8  12 -24   -2.31    0.89
   9  12 -24   -0.79    0.95
  10  12 -24   -0.62    1.02
   0  13 -24    3.09    1.05
   1  13 -24    1.03    0.98
  -1  13 -24    1.40    0.93
   2  13 -24    2.52    1.02
  -2  13 -24    3.00    0.96
   3  13 -24   -0.61    0.92
  -3  13 -24    1.03    0.85
   4  13 -24    1.48    1.02
  -4  13 -24    2.00    0.89
   5  13 -24    0.42    0.97
  -5  13 -24    0.08    0.84
   6  13 -24    2.53    1.11
   7  13 -24   -0.31    0.93
   8  13 -24   -0.62    1.02
   9  13 -24    0.00    1.10
   0  14 -24   -0.66    0.88
   1  14 -24    2.81    1.08
  -1  14 -24    2.88    1.10
   2  14 -24    1.08    1.01
  -2  14 -24   -0.37    0.84
   3  14 -24    2.12    1.06
  -3  14 -24    1.09    0.94
   4  14 -24    1.68    1.07
  -4  14 -24    0.12    0.85
   4  14  24    0.62    0.73
   5  14 -24    0.83    1.03
  -5  14 -24    1.75    0.96
   6  14 -24    0.46    0.98
   7  14 -24    2.43    1.10
   8  14 -24   -0.61    1.02
   9  14 -24    1.03    1.19
   0  15 -24   -1.22    0.87
   1  15 -24    0.45    0.96
  -1  15 -24   -0.02    0.89
   2  15 -24   -0.28    0.93
  -2  15 -24    0.71    0.95
   3  15 -24    1.09    1.03
  -3  15 -24   -0.03    0.86
   4  15 -24    0.38    0.99
   4  15  24    0.91    0.77
  -4  15 -24   -0.87    0.85
   5  15 -24    0.31    1.04
  -5  15 -24    0.29    0.91
   6  15 -24    0.23    0.99
   7  15 -24    0.82    1.08
   8  15 -24    1.35    1.14
   0  16 -24   -0.42    0.95
   1  16 -24    1.18    1.04
  -1  16 -24    0.44    0.97
   2  16 -24    0.83    1.05
  -2  16 -24    0.68    0.95
   3  16 -24    1.08    1.07
  -3  16 -24    0.51    0.90
   4  16 -24    0.40    1.00
  -4  16 -24    1.24    0.99
   4  16  24    0.34    0.83
   5  16 -24    0.82    1.05
  -5  16 -24    1.59    1.02
   6  16 -24   -0.81    1.02
   7  16 -24    1.69    1.19
   8  16 -24   -0.25    1.13
   0  17 -24   -1.52    0.87
   1  17 -24   -0.08    1.01
  -1  17 -24   -0.50    1.00
   2  17 -24    1.03    1.14
  -2  17 -24    3.15    1.13
   3  17 -24   -0.56    1.05
  -3  17 -24   -0.70    0.96
   3  17  24    1.42    0.91
   4  17 -24    0.42    1.06
   4  17  24    2.54    0.94
  -4  17 -24    1.71    1.06
   5  17 -24    1.48    1.14
  -5  17 -24    0.53    0.99
   6  17 -24    2.67    1.27
   7  17 -24    0.46    1.14
   0  18 -24    0.91    1.10
   1  18 -24    0.57    1.08
  -1  18 -24    0.00    1.04
   2  18 -24    0.76    1.13
  -2  18 -24    0.81    1.07
   3  18 -24    2.28    1.25
   3  18  24    3.49    1.04
  -3  18 -24    2.89    1.17
   4  18 -24   -0.84    1.09
  -4  18 -24   -1.63    0.95
   4  18  24   -0.81    0.82
   5  18 -24    1.26    1.21
  -5  18 -24   -0.36    0.97
   6  18 -24    1.28    1.17
   0  19 -24    2.49    1.20
   1  19 -24    1.09    1.13
  -1  19 -24    1.54    1.17
   2  19 -24   -1.09    1.09
   2  19  24    1.03    0.94
  -2  19 -24    0.53    1.09
   3  19 -24    0.43    1.16
  -3  19 -24    1.02    1.13
   3  19  24    0.74    0.98
   4  19 -24    1.22    1.24
  -4  19 -24    1.31    1.13
   4  19  24    2.68    1.04
   5  19 -24    1.41    1.21
  -5  19 -24   -0.32    1.02
   0  20 -24   -0.02    1.12
   1  20 -24    2.83    1.28
  -1  20 -24    0.56    1.11
   2  20 -24    0.14    1.20
   2  20  24    1.99    1.02
  -2  20 -24    0.45    1.16
   3  20 -24    1.29    1.25
  -3  20 -24    0.18    1.08
   3  20  24    0.45    0.98
   0  21 -24    3.38    1.35
   1  21 -24    3.21    1.32
  -1  21 -24    2.21    1.26
   0   0 -25    0.28    0.61
  -1   0 -25    0.94    0.58
   1   0 -25    0.69    0.69
  -2   0 -25   -0.11    0.52
   2   0 -25   -0.28    0.62
  -3   0 -25   -0.16    0.40
   3   0 -25    1.00    0.74
   4   0 -25    0.14    0.74
  -4   0 -25    0.54    0.45
   5   0 -25    1.93    0.87
   6   0 -25   -0.24    0.77
   7   0 -25   -0.13    0.79
   8   0 -25    3.04    0.88
   9   0 -25    0.89    0.90
  10   0 -25    0.49    0.96
  11   0 -25    1.06    1.00
  12   0 -25    2.80    1.20
   0  -1 -25    0.81    0.61
   0   1 -25    0.88    0.64
   1   1 -25    0.73    0.69
  -1  -1 -25    2.15    0.62
   1  -1 -25    0.35    0.65
  -1   1 -25    3.35    0.69
  -2  -1 -25    2.71    0.63
   2   1 -25    3.59    0.80
  -2   1 -25    3.75    0.71
   2  -1 -25    2.50    0.75
  -3  -1 -25    2.86    0.53
   3   1 -25    3.74    0.87
  -3   1 -25    4.44    0.63
   3  -1 -25    3.37    0.82
   4   1 -25    5.58    0.98
   4  -1 -25    4.06    0.91
  -4   1 -25    3.20    0.58
   5   1 -25    0.57    0.69
   5  -1 -25    0.09    0.76
   6   1 -25    2.99    0.96
   6  -1 -25    5.41    1.02
   7   1 -25    6.53    1.16
   7  -1 -25    5.83    1.10
   8   1 -25    0.69    0.83
   8  -1 -25   -0.49    0.73
   9   1 -25    2.56    0.99
   9  -1 -25    1.07    0.93
  10   1 -25   -0.27    0.93
  10  -1 -25   -2.00    0.80
  11   1 -25    2.47    1.09
  11  -1 -25    1.02    0.99
  12   1 -25    0.55    1.03
  12  -1 -25    0.61    1.02
   0   2 -25    0.58    0.59
   0  -2 -25    1.39    0.64
  -1  -2 -25    4.01    0.71
   1   2 -25    4.82    0.83
   1  -2 -25    5.22    0.83
  -1   2 -25    5.24    0.78
  -2  -2 -25    0.48    0.55
   2   2 -25    0.98    0.67
   2  -2 -25   -0.98    0.63
  -2   2 -25    0.38    0.57
   3   2 -25    4.83    0.90
  -3   2 -25    3.53    0.64
   3  -2 -25    2.94    0.86
   4   2 -25    3.65    0.90
   4  -2 -25    1.92    0.83
  -4   2 -25    2.82    0.56
   5   2 -25    7.69    1.14
   5  -2 -25    6.73    1.09
   6   2 -25    2.58    0.92
   6  -2 -25    2.13    0.88
   7   2 -25    8.11    1.25
   7  -2 -25    8.18    1.21
   8   2 -25    2.11    0.95
   8  -2 -25    3.51    0.98
   9   2 -25   -0.63    0.85
   9  -2 -25   -0.66    0.80
  10   2 -25    0.70    0.96
  10  -2 -25    0.77    0.97
  11   2 -25    2.05    1.04
  11  -2 -25    1.58    1.04
  12   2 -25    1.26    1.10
  12  -2 -25    1.18    1.12
   0  -3 -25    0.71    0.61
   0   3 -25    0.45    0.61
   1   3 -25    4.20    0.87
  -1  -3 -25    3.47    0.72
   1  -3 -25    2.86    0.74
  -1   3 -25    3.49    0.76
  -2  -3 -25    8.19    0.84
   2   3 -25    7.10    1.04
   2  -3 -25    7.08    0.97
  -2   3 -25    8.82    0.91
   3   3 -25    2.14    0.86
   3  -3 -25    2.27    0.78
  -3   3 -25    3.01    0.65
   4   3 -25    0.65    0.80
   4  -3 -25    0.56    0.75
  -4   3 -25   -0.22    0.22
   5   3 -25    8.24    1.20
   5  -3 -25    7.99    1.17
   6   3 -25    7.67    1.20
   6  -3 -25    7.53    1.17
   7   3 -25    1.69    0.89
   7  -3 -25    1.40    0.85
   8   3 -25   -1.01    0.77
   8  -3 -25    1.88    0.91
   9   3 -25    1.89    0.99
   9  -3 -25    3.07    1.01
  10   3 -25   -0.30    0.91
  10  -3 -25    1.43    0.98
  11   3 -25    0.34    0.99
  11  -3 -25    0.04    0.96
  12   3 -25    0.41    1.10
  12  -3 -25    1.25    1.08
   0  -4 -25    0.34    0.55
   0   4 -25    1.51    0.70
   1   4 -25    8.62    1.08
  -1  -4 -25   10.35    1.00
   1  -4 -25   11.52    1.04
  -1   4 -25    9.12    1.04
   2   4 -25    1.53    0.73
  -2   4 -25    0.83    0.65
   2  -4 -25    0.01    0.67
   3   4 -25    8.02    1.11
  -3   4 -25    9.51    0.93
   3  -4 -25    8.67    1.10
   4   4 -25    0.48    0.79
   4  -4 -25    1.25    0.81
  -4   4 -25    0.27    0.53
   5   4 -25    4.76    1.02
   5  -4 -25    5.15    0.99
   6   4 -25    2.53    0.96
   6  -4 -25    3.77    0.97
   7   4 -25    4.44    1.03
   7  -4 -25    2.57    0.91
   8   4 -25    1.52    0.91
   8  -4 -25    0.40    0.80
   9   4 -25    2.66    1.06
   9  -4 -25    2.08    0.96
  10   4 -25    1.66    1.03
  10  -4 -25    1.13    0.97
  11   4 -25    0.12    1.02
  11  -4 -25    1.57    1.06
   0   5 -25   19.18    1.41
   1   5 -25    0.38    0.68
  -1   5 -25   -0.37    0.64
   1  -5 -25   -0.22    0.62
   2   5 -25    2.90    0.83
   2  -5 -25    3.68    0.80
  -2   5 -25    3.25    0.76
   3   5 -25    0.14    0.73
  -3   5 -25    0.78    0.62
   3  -5 -25   -0.43    0.68
   4   5 -25   30.77    2.05
   4  -5 -25   30.53    2.04
  -4   5 -25   33.59    1.77
   5   5 -25    0.89    0.85
   5  -5 -25   -0.80    0.70
   6   5 -25    1.09    0.89
   6  -5 -25    0.53    0.82
   7   5 -25   -0.11    0.80
   7  -5 -25   -0.65    0.69
   8   5 -25    2.16    0.94
   8  -5 -25    4.32    1.02
   9   5 -25    0.65    0.92
   9  -5 -25   -0.17    0.81
  10   5 -25    2.64    1.09
  10  -5 -25    0.65    0.92
  11   5 -25   -0.85    0.98
  11  -5 -25    1.30    0.99
   0   6 -25    4.12    0.87
   1   6 -25    9.78    1.13
  -1   6 -25    7.15    1.01
   2   6 -25    2.53    0.85
   2  -6 -25    1.82    0.72
  -2   6 -25    1.19    0.70
   3   6 -25    1.56    0.85
   3  -6 -25    2.70    0.81
  -3   6 -25    2.57    0.73
   4   6 -25    1.69    0.89
  -4   6 -25    3.48    0.74
   4  -6 -25    1.46    0.82
   5   6 -25    6.67    1.14
   5  -6 -25    7.28    1.11
   6   6 -25    2.27    0.93
   6  -6 -25    1.01    0.84
   7   6 -25   -0.58    0.77
   7  -6 -25    0.23    0.73
   8   6 -25    1.21    0.90
   8  -6 -25    1.01    0.80
   9   6 -25    4.16    1.11
   9  -6 -25    3.16    1.04
  10   6 -25   -0.06    1.00
  10  -6 -25    3.80    1.13
  11   6 -25   -0.81    1.00
  11  -6 -25   -0.78    0.90
   0   7 -25    0.20    0.72
   1   7 -25    8.99    1.15
  -1   7 -25    9.55    1.10
   2   7 -25   17.83    1.49
  -2   7 -25   16.88    1.35
   3   7 -25   18.25    1.52
  -3   7 -25   15.98    1.32
   4   7 -25    2.83    0.93
  -4   7 -25    4.69    0.83
   5   7 -25   11.25    1.34
   5  -7 -25   10.73    1.31
   6   7 -25    2.86    0.99
   6  -7 -25    4.39    1.01
   7   7 -25    0.26    0.79
   7  -7 -25    0.06    0.76
   8   7 -25    1.42    0.95
   8  -7 -25    1.27    0.83
   9   7 -25   -0.65    0.87
  10   7 -25    2.03    1.12
  11   7 -25    1.84    1.14
   0   8 -25    1.50    0.82
   1   8 -25    1.06    0.79
  -1   8 -25    0.13    0.76
   2   8 -25    2.40    0.88
  -2   8 -25    2.82    0.84
   3   8 -25   25.40    1.84
  -3   8 -25   23.99    1.64
   4   8 -25    0.73    0.84
  -4   8 -25    0.24    0.72
   5   8 -25    0.65    0.89
   6   8 -25    5.75    1.16
   7   8 -25    7.50    1.25
   8   8 -25   -0.42    0.84
   9   8 -25    0.08    0.97
  10   8 -25    0.01    1.01
  11   8 -25    0.46    1.12
   0   9 -25    5.73    1.05
   1   9 -25    2.72    0.92
  -1   9 -25    4.34    0.95
   2   9 -25   11.68    1.36
  -2   9 -25   11.85    1.26
   3   9 -25   11.05    1.42
  -3   9 -25   13.95    1.25
   4   9 -25    0.22    0.86
  -4   9 -25    1.80    0.79
   5   9 -25    0.36    0.89
   6   9 -25    1.69    0.93
   7   9 -25    2.78    1.09
   8   9 -25   -0.47    0.89
   9   9 -25    0.47    1.00
  10   9 -25   -1.11    0.92
   0  10 -25    1.18    0.86
   1  10 -25    8.35    1.19
  -1  10 -25    9.48    1.21
   2  10 -25    0.45    0.88
  -2  10 -25    1.45    0.80
   3  10 -25    1.64    0.94
  -3  10 -25    3.72    0.96
   4  10 -25   11.16    1.38
  -4  10 -25    7.16    1.09
   5  10 -25    3.22    1.06
   6  10 -25    4.50    1.11
   7  10 -25    1.27    0.94
   8  10 -25    8.77    1.43
   9  10 -25    0.72    1.08
  10  10 -25    0.05    1.06
   0  11 -25    5.49    1.12
   1  11 -25    3.50    0.99
  -1  11 -25    1.39    0.95
   2  11 -25    8.62    1.29
  -2  11 -25    8.96    1.23
   3  11 -25    1.66    0.97
  -3  11 -25    3.93    1.03
   4  11 -25    7.20    1.24
  -4  11 -25    7.43    1.11
   5  11 -25    0.74    0.96
  -5  11 -25    0.13    0.82
   6  11 -25    1.25    1.00
   7  11 -25    0.02    0.96
   8  11 -25   -0.55    0.93
   9  11 -25    2.44    1.16
  10  11 -25    2.07    1.16
   0  12 -25    4.42    1.07
   1  12 -25   -1.80    0.87
  -1  12 -25    0.97    0.94
   2  12 -25    1.97    0.99
  -2  12 -25    1.60    0.95
   3  12 -25    3.98    1.13
  -3  12 -25    5.19    1.06
   4  12 -25    1.39    0.97
  -4  12 -25    0.76    0.89
   5  12 -25    1.50    0.98
  -5  12 -25    0.89    0.87
   6  12 -25    2.82    1.08
   7  12 -25    0.59    1.02
   8  12 -25   -0.62    0.96
   9  12 -25   -1.40    0.98
   0  13 -25    2.95    1.10
   1  13 -25   12.42    1.48
  -1  13 -25   11.28    1.44
   2  13 -25   -0.62    0.93
  -2  13 -25    0.75    0.88
   3  13 -25    5.87    1.23
  -3  13 -25    5.34    1.11
   4  13 -25    3.14    1.09
  -4  13 -25    2.46    0.96
   5  13 -25    2.39    1.08
  -5  13 -25    2.82    1.00
   6  13 -25    1.95    1.06
   7  13 -25    1.42    1.03
   8  13 -25    0.98    1.11
   9  13 -25    0.66    1.13
   0  14 -25    1.19    0.97
   1  14 -25    2.49    1.12
  -1  14 -25    3.66    1.06
   2  14 -25    1.57    1.03
  -2  14 -25    0.45    0.89
   3  14 -25   -1.60    0.88
  -3  14 -25    0.33    0.89
   4  14 -25    0.79    0.99
  -4  14 -25    1.82    0.94
   4  14  25    0.20    0.73
   5  14 -25    5.23    1.26
  -5  14 -25    5.72    1.15
   6  14 -25    1.54    1.10
   7  14 -25    1.52    1.10
   8  14 -25   -0.30    1.08
   0  15 -25    5.76    1.21
   1  15 -25    5.56    1.25
  -1  15 -25    5.59    1.20
   2  15 -25   -0.67    0.94
  -2  15 -25    0.77    0.97
   3  15 -25    4.37    1.20
  -3  15 -25    2.62    1.08
   4  15 -25    6.53    1.34
   4  15  25    6.45    1.08
  -4  15 -25    7.30    1.30
   5  15 -25    0.30    1.02
  -5  15 -25    1.86    0.97
   6  15 -25    1.17    1.05
   7  15 -25    0.56    1.08
   8  15 -25    0.51    1.14
   0  16 -25    0.84    1.01
   1  16 -25    1.88    1.10
  -1  16 -25    0.95    0.99
   2  16 -25    0.53    1.06
  -2  16 -25    1.45    1.07
   3  16 -25    1.79    1.09
  -3  16 -25    1.93    1.09
   4  16 -25    2.75    1.19
  -4  16 -25    3.58    1.11
   4  16  25    1.42    0.88
   5  16 -25    0.07    1.08
  -5  16 -25    0.53    0.94
   6  16 -25    1.41    1.15
   7  16 -25   -0.13    1.12
   0  17 -25    1.19    1.09
   1  17 -25    1.05    1.04
  -1  17 -25   -0.03    0.95
   2  17 -25    9.52    1.57
  -2  17 -25   11.00    1.49
   3  17 -25   -0.30    1.05
  -3  17 -25    0.40    1.03
   3  17  25    0.77    0.88
   4  17 -25    0.22    1.08
  -4  17 -25    0.21    1.00
   4  17  25    0.49    0.89
   5  17 -25    1.26    1.20
  -5  17 -25   -0.18    0.97
   6  17 -25    0.39    1.15
   0  18 -25   -1.26    0.95
   1  18 -25    1.30    1.13
  -1  18 -25    1.64    1.07
   2  18 -25    0.43    1.13
  -2  18 -25    1.70    1.07
   3  18 -25    1.16    1.21
   3  18  25    3.33    1.06
  -3  18 -25    0.92    1.09
   4  18 -25    1.75    1.18
  -4  18 -25    1.89    1.14
   5  18 -25   -0.30    1.19
  -5  18 -25   -1.12    0.97
   0  19 -25    2.74    1.22
   1  19 -25    1.85    1.20
  -1  19 -25    0.60    1.06
   2  19 -25    1.41    1.19
  -2  19 -25    1.00    1.07
   3  19 -25    1.51    1.29
   3  19  25    2.60    1.10
  -3  19 -25    2.02    1.19
   4  19 -25    1.58    1.34
  -4  19 -25    0.13    1.10
   0  20 -25   -0.45    1.09
   1  20 -25    1.24    1.20
  -1  20 -25    0.07    1.11
   2  20 -25   -0.95    1.14
  -2  20 -25    0.85    1.08
   2  20  25   -0.92    0.91
   3  20 -25    0.31    1.24
  -3  20 -25   -1.16    1.05
   0   0 -26   39.89    2.18
  -1   0 -26   20.24    1.37
   1   0 -26   19.86    1.42
  -2   0 -26   18.85    1.25
   2   0 -26   17.43    1.40
   3   0 -26    5.90    1.00
  -3   0 -26    5.61    0.72
   4   0 -26   31.66    2.05
   5   0 -26    9.08    1.24
   6   0 -26    5.54    1.12
   7   0 -26    0.40    0.83
   8   0 -26    0.33    0.81
   9   0 -26    2.08    0.97
  10   0 -26    1.60    1.00
  11   0 -26    0.75    1.07
   0   1 -26   18.27    1.34
   0  -1 -26   17.82    1.31
  -1  -1 -26    1.03    0.61
   1   1 -26    1.10    0.73
  -1   1 -26    1.18    0.66
   1  -1 -26    1.37    0.67
   2   1 -26   13.17    1.21
  -2  -1 -26   12.26    1.02
   2  -1 -26   12.70    1.17
  -2   1 -26   12.55    1.05
   3   1 -26    0.90    0.75
  -3  -1 -26    0.70    0.52
   3  -1 -26    0.58    0.73
  -3   1 -26    2.37    0.59
   4   1 -26   12.38    1.38
   4  -1 -26   14.52    1.43
   5   1 -26    0.78    0.83
   5  -1 -26    2.27    0.90
   6   1 -26   23.96    1.89
   6  -1 -26   26.08    1.82
   7   1 -26    2.02    0.91
   7  -1 -26    0.88    0.76
   8   1 -26    6.01    1.14
   8  -1 -26    5.52    1.12
   9   1 -26    0.36    0.86
   9  -1 -26    1.10    0.92
  10   1 -26    2.84    1.10
  10  -1 -26    3.81    1.11
  11   1 -26    1.38    1.04
  11  -1 -26    1.68    1.03
   0  -2 -26    7.58    0.93
   0   2 -26    6.83    0.95
  -1  -2 -26   34.81    1.89
   1   2 -26   32.63    1.96
   1  -2 -26   34.00    1.95
  -1   2 -26   32.90    1.89
   2   2 -26    9.72    1.14
  -2  -2 -26    8.78    0.91
  -2   2 -26    8.19    0.94
   2  -2 -26    9.42    1.10
   3   2 -26   21.69    1.62
   3  -2 -26   18.16    1.51
  -3   2 -26   22.48    1.32
   4   2 -26    6.69    1.09
   4  -2 -26    5.04    1.02
   5   2 -26   11.69    1.34
   5  -2 -26    9.88    1.28
   6   2 -26    0.84    0.89
   6  -2 -26    2.83    0.96
   7   2 -26    3.84    1.02
   7  -2 -26    2.06    0.83
   8   2 -26   -0.50    0.79
   8  -2 -26    0.01    0.79
   9   2 -26    0.65    0.91
   9  -2 -26   -0.15    0.84
  10   2 -26    0.75    0.99
  10  -2 -26    0.78    0.91
  11   2 -26   -0.50    0.96
  11  -2 -26    0.54    0.96
   0  -3 -26   -0.25    0.54
   0   3 -26    0.06    0.66
   1   3 -26   -0.10    0.65
  -1  -3 -26   -0.95    0.54
  -1   3 -26    0.83    0.65
   1  -3 -26    0.29    0.65
   2   3 -26   14.51    1.30
  -2  -3 -26   14.93    1.11
  -2   3 -26   13.97    1.15
   2  -3 -26   15.42    1.27
   3   3 -26    6.23    1.02
   3  -3 -26    5.21    0.96
  -3   3 -26    4.38    0.72
   4   3 -26    4.83    1.02
   4  -3 -26    5.87    1.03
  -4   3 -26    3.80    0.56
   5   3 -26   13.37    1.42
   5  -3 -26   12.67    1.40
   6   3 -26    3.24    1.00
   6  -3 -26    2.93    0.97
   7   3 -26    9.34    1.32
   7  -3 -26   13.23    1.44
   8   3 -26   -0.26    0.80
   8  -3 -26   -0.32    0.79
   9   3 -26    5.04    1.18
   9  -3 -26    3.49    1.03
  10   3 -26   -0.07    0.96
  10  -3 -26    0.80    0.92
  11   3 -26    3.82    1.20
  11  -3 -26    4.64    1.21
   0   4 -26    5.94    0.91
   0  -4 -26    4.66    0.81
  -1  -4 -26   24.07    1.48
   1   4 -26   22.86    1.57
  -1   4 -26   22.29    1.50
   1  -4 -26   23.08    1.58
   2   4 -26    2.17    0.80
   2  -4 -26    2.38    0.74
  -2   4 -26    1.95    0.66
   3   4 -26   12.07    1.31
   3  -4 -26   12.62    1.28
  -3   4 -26   11.87    1.04
   4   4 -26    9.28    1.23
   4  -4 -26   10.86    1.27
  -4   4 -26   11.02    0.96
   5   4 -26    9.51    1.27
   5  -4 -26   11.07    1.31
   6   4 -26    2.93    1.00
   6  -4 -26    2.82    0.93
   7   4 -26    1.64    0.87
   7  -4 -26    0.71    0.78
   8   4 -26    2.73    0.98
   8  -4 -26    2.81    0.96
   9   4 -26   -1.84    0.80
   9  -4 -26   -1.82    0.72
  10   4 -26   -0.34    0.97
  10  -4 -26    0.22    0.91
  11   4 -26   -0.32    0.99
  11  -4 -26    2.00    1.07
   0   5 -26   -0.43    0.69
   1   5 -26    6.07    0.98
  -1   5 -26    5.53    0.91
   1  -5 -26    5.90    0.89
   2   5 -26    1.23    0.77
   2  -5 -26    1.94    0.72
  -2   5 -26    0.88    0.69
   3   5 -26    1.66    0.83
   3  -5 -26    1.11    0.76
  -3   5 -26    1.35    0.66
   4   5 -26    1.63    0.88
   4  -5 -26    3.66    0.92
  -4   5 -26    3.38    0.70
   5   5 -26    5.31    1.10
   5  -5 -26    4.32    1.05
   6   5 -26    3.79    1.02
   6  -5 -26    2.99    0.97
   7   5 -26    3.57    1.00
   7  -5 -26    1.06    0.85
   8   5 -26    4.89    1.08
   8  -5 -26    3.26    1.03
   9   5 -26    1.18    0.97
   9  -5 -26    1.80    0.94
  10   5 -26    0.88    1.04
  10  -5 -26    3.15    1.06
  11   5 -26   -1.20    0.96
  11  -5 -26   -0.28    0.98
   0   6 -26   27.10    1.79
   1   6 -26    3.46    0.88
  -1   6 -26    4.50    0.88
   2   6 -26   19.71    1.50
  -2   6 -26   15.74    1.32
   2  -6 -26   19.22    1.42
   3   6 -26    0.51    0.82
   3  -6 -26    1.65    0.77
  -3   6 -26    1.42    0.70
   4   6 -26    7.11    1.15
  -4   6 -26    8.53    0.96
   4  -6 -26    8.45    1.15
   5   6 -26    1.16    0.89
   5  -6 -26    0.20    0.77
   6   6 -26    2.22    0.96
   6  -6 -26    3.61    0.98
   7   6 -26    0.01    0.83
   7  -6 -26   -0.37    0.73
   8   6 -26    1.56    0.93
   8  -6 -26    0.87    0.85
   9   6 -26   -0.62    0.92
   9  -6 -26    0.26    0.87
  10   6 -26   -1.09    0.97
  10  -6 -26    2.34    1.06
  11   6 -26   -0.83    0.99
  11  -6 -26   -0.74    0.96
   0   7 -26    0.84    0.81
   1   7 -26    1.58    0.83
  -1   7 -26    2.09    0.81
   2   7 -26    3.21    0.94
  -2   7 -26    4.04    0.87
   3   7 -26    6.94    1.14
  -3   7 -26    6.39    0.93
   4   7 -26    3.90    1.01
  -4   7 -26    6.84    0.93
   5   7 -26    0.86    0.87
   5  -7 -26    1.09    0.83
   6   7 -26    4.94    1.08
   6  -7 -26    5.73    1.09
   7   7 -26    1.51    0.92
   7  -7 -26    2.22    0.91
   8   7 -26    3.66    1.07
   8  -7 -26    3.45    0.98
   9   7 -26    0.57    0.90
  10   7 -26    0.47    1.06
  11   7 -26    0.93    1.13
   0   8 -26    2.33    0.91
   1   8 -26    4.21    1.00
  -1   8 -26    5.85    1.00
   2   8 -26    2.24    0.96
  -2   8 -26    4.35    0.90
   3   8 -26    8.52    1.27
  -3   8 -26    9.33    1.12
   4   8 -26    1.53    0.96
  -4   8 -26    1.25    0.75
   5   8 -26    5.40    1.12
   6   8 -26    3.36    1.03
   7   8 -26    1.48    0.92
   8   8 -26    1.73    1.03
   9   8 -26   -0.52    0.90
  10   8 -26   -0.22    1.00
   0   9 -26   16.73    1.44
   1   9 -26    0.30    0.78
  -1   9 -26    0.75    0.81
   2   9 -26    0.82    0.88
  -2   9 -26    0.55    0.79
   3   9 -26    2.23    0.97
  -3   9 -26    3.87    0.91
   4   9 -26    9.27    1.33
  -4   9 -26    8.04    1.09
   5   9 -26    3.63    1.09
   6   9 -26    2.85    1.03
   7   9 -26    0.15    0.89
   8   9 -26    1.46    1.01
   9   9 -26    4.18    1.22
  10   9 -26   -1.28    0.98
   0  10 -26   -1.37    0.82
   1  10 -26   12.72    1.44
  -1  10 -26   14.60    1.45
   2  10 -26    0.15    0.88
  -2  10 -26    1.54    0.85
   3  10 -26    6.52    1.21
  -3  10 -26    5.77    1.02
   4  10 -26    2.73    1.00
  -4  10 -26    2.29    0.87
   5  10 -26    7.77    1.28
   6  10 -26    0.77    0.93
   7  10 -26    1.68    0.99
   8  10 -26   -0.19    0.96
   9  10 -26   -0.09    1.06
  10  10 -26   -0.78    1.00
   0  11 -26   10.67    1.35
   1  11 -26    2.57    1.03
  -1  11 -26    2.19    0.90
   2  11 -26    1.82    0.96
  -2  11 -26    3.38    0.96
   3  11 -26    1.16    0.93
  -3  11 -26   -0.62    0.79
   4  11 -26    2.53    1.05
  -4  11 -26    1.90    0.87
   5  11 -26   -0.41    0.88
   6  11 -26    3.37    1.13
   7  11 -26    1.01    0.98
   8  11 -26    2.44    1.13
   9  11 -26    1.02    1.08
   0  12 -26    0.22    0.93
   1  12 -26    4.01    1.10
  -1  12 -26    3.48    1.08
   2  12 -26    1.23    0.97
  -2  12 -26    0.00    0.88
   3  12 -26    2.83    1.07
  -3  12 -26    3.98    1.01
   4  12 -26    0.70    0.95
  -4  12 -26   -0.09    0.88
   5  12 -26    0.51    0.99
   6  12 -26    0.04    0.94
   7  12 -26    5.39    1.26
   8  12 -26    0.52    1.02
   9  12 -26    0.11    1.04
   0  13 -26    0.19    0.92
   1  13 -26    1.16    1.02
  -1  13 -26    0.49    0.92
   2  13 -26    6.43    1.30
  -2  13 -26    7.29    1.19
   3  13 -26    1.07    0.97
  -3  13 -26   -0.32    0.87
   4  13 -26    0.22    0.94
  -4  13 -26    0.27    0.90
   5  13 -26   -1.65    0.89
   6  13 -26    1.14    1.02
   7  13 -26    0.83    1.01
   8  13 -26   -0.61    1.00
   9  13 -26   -0.99    1.10
   0  14 -26    0.47    0.95
   1  14 -26    0.45    0.93
  -1  14 -26    2.23    1.01
   2  14 -26   -0.61    0.90
  -2  14 -26   -0.67    0.83
   3  14 -26    0.32    1.00
  -3  14 -26    0.24    0.91
   4  14 -26   -0.05    0.97
  -4  14 -26    0.76    0.98
   5  14 -26    0.46    0.98
   6  14 -26   -0.22    1.00
   7  14 -26    1.33    1.11
   8  14 -26    2.51    1.20
   0  15 -26    1.84    1.01
   1  15 -26   -0.07    0.94
  -1  15 -26    0.22    0.98
   2  15 -26    0.25    0.98
  -2  15 -26    0.40    1.00
   3  15 -26    1.96    1.09
  -3  15 -26    1.19    0.99
   4  15 -26    1.24    1.11
  -4  15 -26    1.29    0.97
   5  15 -26    0.56    1.02
   6  15 -26   -0.38    1.09
   7  15 -26   -0.92    1.15
   0  16 -26   -0.67    0.97
   1  16 -26    0.38    0.98
  -1  16 -26    0.89    1.06
   2  16 -26    1.19    1.08
  -2  16 -26   -0.76    0.98
   3  16 -26   -1.03    0.95
  -3  16 -26   -0.02    0.96
   4  16 -26   -0.41    1.00
  -4  16 -26    0.39    0.98
   5  16 -26    0.53    1.14
   6  16 -26    2.09    1.22
   7  16 -26    0.71    1.15
   0  17 -26    0.61    1.00
   1  17 -26    1.00    1.12
  -1  17 -26    1.46    1.12
   2  17 -26    2.03    1.13
  -2  17 -26    0.36    1.05
   3  17 -26    0.52    1.18
  -3  17 -26    2.97    1.16
   4  17 -26    1.05    1.16
  -4  17 -26   -0.66    1.00
   5  17 -26   -1.23    1.00
   6  17 -26   -0.41    1.07
   0  18 -26    0.02    1.11
   1  18 -26    0.08    1.09
  -1  18 -26    0.14    1.01
   2  18 -26    0.82    1.17
  -2  18 -26    0.12    1.09
   3  18 -26    0.47    1.16
  -3  18 -26    0.34    1.00
   3  18  26    0.61    0.93
   4  18 -26    0.55    1.14
  -4  18 -26    0.85    1.08
   5  18 -26   -0.22    1.16
   0  19 -26    0.22    1.12
   1  19 -26    0.59    1.16
  -1  19 -26   -0.84    1.02
   2  19 -26   -0.79    1.14
  -2  19 -26   -0.72    1.09
   3  19 -26   -0.41    1.11
  -3  19 -26   -0.13    1.01
   3  19  26   -0.57    0.96
   4  19 -26    0.80    1.24
  -4  19 -26    1.47    1.14
   0  20 -26    1.34    1.26
   1  20 -26    0.91    1.17
  -1  20 -26   -0.54    1.14
   0   0 -27    0.38    0.63
   1   0 -27    3.77    0.87
  -1   0 -27    5.01    0.80
   2   0 -27    1.01    0.70
  -2   0 -27   -0.17    0.56
  -3   0 -27    1.99    0.60
   3   0 -27    1.73    0.81
   4   0 -27    0.79    0.81
   5   0 -27    2.39    0.93
   6   0 -27    1.46    0.89
   7   0 -27    0.15    0.79
   8   0 -27   -0.59    0.83
   9   0 -27   -0.34    0.86
  10   0 -27    2.76    1.13
  11   0 -27   -1.39    0.95
   0  -1 -27    0.25    0.64
   0   1 -27    0.39    0.65
   1   1 -27    2.25    0.79
  -1  -1 -27    1.83    0.69
   1  -1 -27    1.05    0.74
  -1   1 -27    1.85    0.70
  -2  -1 -27    1.57    0.63
   2   1 -27    2.54    0.79
   2  -1 -27    2.88    0.82
  -2   1 -27    1.85    0.66
   3   1 -27    1.04    0.77
  -3  -1 -27    0.49    0.55
  -3   1 -27    0.31    0.56
   3  -1 -27   -0.55    0.70
   4   1 -27    0.88    0.81
   4  -1 -27    0.85    0.80
   5   1 -27    1.33    0.87
   5  -1 -27    1.46    0.88
   6   1 -27    3.76    1.03
   6  -1 -27    3.67    0.96
   7   1 -27    2.85    0.98
   7  -1 -27    2.23    0.89
   8   1 -27    0.23    0.88
   8  -1 -27    2.02    0.96
   9   1 -27    2.03    1.00
   9  -1 -27    0.40    0.88
  10   1 -27    0.11    0.94
  10  -1 -27   -0.65    0.95
  11   1 -27    2.30    1.23
  11  -1 -27    2.29    1.13
   0  -2 -27    4.51    0.81
   0   2 -27    3.48    0.80
  -1  -2 -27    2.14    0.70
   1   2 -27    1.94    0.75
  -1   2 -27    1.33    0.68
   1  -2 -27    1.51    0.70
  -2  -2 -27    1.85    0.63
   2   2 -27    3.58    0.88
  -2   2 -27    1.44    0.63
   2  -2 -27    2.68    0.81
   3   2 -27    0.63    0.75
  -3   2 -27    1.19    0.62
   3  -2 -27   -0.45    0.68
   4   2 -27    6.65    1.09
   4  -2 -27    5.21    1.03
   5   2 -27    6.62    1.17
   5  -2 -27    8.08    1.17
   6   2 -27    2.87    0.94
   6  -2 -27    2.57    0.92
   7   2 -27    0.24    0.79
   7  -2 -27    1.75    0.88
   8   2 -27   -0.26    0.88
   8  -2 -27    0.47    0.86
   9   2 -27   -0.62    0.86
   9  -2 -27   -0.73    0.81
  10   2 -27    0.48    0.97
  10  -2 -27    0.58    1.03
  11   2 -27   -1.02    1.01
  11  -2 -27   -0.60    0.95
   0   3 -27   13.23    1.22
   0  -3 -27   14.12    1.18
   1   3 -27   -0.73    0.70
  -1  -3 -27    0.06    0.62
  -1   3 -27    0.27    0.64
   1  -3 -27   -0.55    0.64
   2   3 -27    3.10    0.85
  -2  -3 -27    3.52    0.70
   2  -3 -27    3.36    0.84
  -2   3 -27    4.35    0.78
   3   3 -27    1.28    0.79
  -3   3 -27    0.56    0.58
   3  -3 -27    0.10    0.72
   4   3 -27    5.59    1.05
   4  -3 -27    5.60    1.04
   5   3 -27    1.52    0.93
   5  -3 -27    2.57    0.93
   6   3 -27    0.26    0.84
   6  -3 -27    1.85    0.90
   7   3 -27    1.83    0.92
   7  -3 -27    2.44    0.91
   8   3 -27    1.19    0.95
   8  -3 -27    0.07    0.83
   9   3 -27    0.08    0.89
   9  -3 -27    1.01    0.91
  10   3 -27    3.11    1.14
  10  -3 -27    1.54    1.00
  11   3 -27    3.12    1.24
  11  -3 -27   -0.62    1.00
   0   4 -27    1.77    0.78
   0  -4 -27    0.52    0.66
  -1  -4 -27    7.79    0.94
   1   4 -27    9.95    1.13
   1  -4 -27    7.83    1.00
  -1   4 -27    8.04    1.00
   2   4 -27    1.50    0.78
   2  -4 -27    1.19    0.75
  -2   4 -27    1.95    0.72
   3   4 -27    4.00    0.94
  -3   4 -27    4.65    0.76
   3  -4 -27    4.00    0.90
   4   4 -27    2.07    0.92
   4  -4 -27    5.36    1.02
   5   4 -27    9.69    1.30
   5  -4 -27   10.18    1.30
   6   4 -27    0.59    0.85
   6  -4 -27    0.41    0.82
   7   4 -27    0.20    0.84
   7  -4 -27    2.04    0.87
   8   4 -27    0.38    0.89
   8  -4 -27    1.47    0.86
   9   4 -27    1.02    0.95
   9  -4 -27    0.14    0.86
  10   4 -27    1.16    1.10
  10  -4 -27    1.01    0.99
  11   4 -27   -0.67    1.02
  11  -4 -27    1.78    1.14
   0   5 -27    2.21    0.83
   1   5 -27    2.20    0.80
  -1   5 -27    3.05    0.81
   1  -5 -27    3.82    0.79
   2   5 -27   13.29    1.36
  -2   5 -27   15.15    1.23
   2  -5 -27   14.89    1.27
   3   5 -27    4.75    1.01
  -3   5 -27    4.71    0.80
   3  -5 -27    4.14    0.93
   4   5 -27    2.65    0.93
   4  -5 -27    1.68    0.90
  -4   5 -27    2.66    0.68
   5   5 -27    1.70    0.95
   5  -5 -27    2.25    0.92
   6   5 -27    4.25    1.08
   6  -5 -27    6.10    1.11
   7   5 -27    2.84    0.98
   7  -5 -27    2.14    0.93
   8   5 -27    0.79    0.87
   8  -5 -27    0.23    0.82
   9   5 -27    0.71    0.95
   9  -5 -27   -0.25    0.82
  10   5 -27    0.23    1.06
  10  -5 -27    0.33    0.97
  11   5 -27    1.33    1.14
  11  -5 -27    1.81    1.08
   0   6 -27    0.69    0.76
   1   6 -27    8.91    1.13
  -1   6 -27    9.51    1.11
   2   6 -27    1.25    0.86
   2  -6 -27    1.00    0.72
  -2   6 -27    1.88    0.72
   3   6 -27   12.46    1.43
  -3   6 -27   15.37    1.21
   3  -6 -27   16.87    1.40
   4   6 -27    1.46    0.86
  -4   6 -27    1.14    0.65
   4  -6 -27    2.09    0.88
   5   6 -27    1.92    0.95
   5  -6 -27    3.26    0.97
   6   6 -27   -0.56    0.82
   6  -6 -27   -0.60    0.76
   7   6 -27    4.90    1.13
   7  -6 -27    4.22    1.03
   8   6 -27   -0.23    0.89
   8  -6 -27    0.04    0.81
   9   6 -27   -0.74    0.90
   9  -6 -27    0.45    0.84
  10   6 -27   -2.14    0.85
  10  -6 -27   -1.15    0.92
  11   6 -27    1.37    1.11
  11  -6 -27   -0.05    1.02
   0   7 -27    7.05    1.06
   1   7 -27    1.08    0.79
  -1   7 -27    1.10    0.78
   2   7 -27    7.77    1.15
  -2   7 -27    8.93    1.07
   3   7 -27    5.83    1.12
  -3   7 -27    8.80    1.05
   4   7 -27    1.64    0.94
  -4   7 -27    4.54    0.86
   5   7 -27    0.45    0.86
   5  -7 -27   -0.71    0.74
   6   7 -27    2.52    0.98
   6  -7 -27    1.87    0.89
   7   7 -27    0.37    0.91
   7  -7 -27    0.71    0.82
   8   7 -27    4.62    1.13
   9   7 -27   -1.48    0.85
  10   7 -27    0.05    1.07
   0   8 -27    7.27    1.09
   1   8 -27    7.80    1.21
  -1   8 -27   11.30    1.23
   2   8 -27    9.15    1.25
  -2   8 -27    7.22    1.10
   3   8 -27    1.96    0.94
  -3   8 -27    2.07    0.80
   4   8 -27    9.50    1.34
  -4   8 -27   12.34    1.19
   5   8 -27    5.06    1.14
   6   8 -27   -0.58    0.85
   7   8 -27   -0.43    0.85
   8   8 -27    1.57    0.97
   9   8 -27    2.75    1.15
  10   8 -27    0.05    1.02
   0   9 -27   17.41    1.49
   1   9 -27    2.77    0.99
  -1   9 -27    2.33    0.92
   2   9 -27    4.12    1.02
  -2   9 -27    1.66    0.85
   3   9 -27    1.63    0.96
  -3   9 -27    2.01    0.88
   4   9 -27    3.76    1.09
  -4   9 -27    3.27    0.91
   5   9 -27    3.65    1.06
   6   9 -27    1.99    1.01
   7   9 -27    1.49    0.97
   8   9 -27    1.44    1.01
   9   9 -27    1.92    1.11
  10   9 -27   -0.31    1.03
   0  10 -27   -0.41    0.81
   1  10 -27    6.55    1.17
  -1  10 -27    8.38    1.20
   2  10 -27    6.98    1.20
  -2  10 -27    5.41    1.07
   3  10 -27    2.02    1.00
  -3  10 -27    0.65    0.87
   4  10 -27    2.14    1.01
  -4  10 -27    0.87    0.84
   5  10 -27    1.67    1.00
   6  10 -27    5.28    1.16
   7  10 -27    0.48    0.94
   8  10 -27    0.83    0.98
   9  10 -27   -0.84    0.96
  10  10 -27    2.01    1.23
   0  11 -27    4.37    1.10
   1  11 -27    5.27    1.13
  -1  11 -27    4.17    1.04
   2  11 -27    5.09    1.11
  -2  11 -27    4.13    1.05
   3  11 -27    3.25    1.09
  -3  11 -27    3.35    1.00
   4  11 -27    3.31    1.08
  -4  11 -27    2.01    0.90
   5  11 -27    0.57    0.96
   6  11 -27   -0.39    0.96
   7  11 -27    1.04    1.01
   8  11 -27    0.80    1.07
   9  11 -27    0.62    1.11
   0  12 -27    2.45    1.02
   1  12 -27    1.80    1.01
  -1  12 -27    3.64    1.00
   2  12 -27    0.64    0.92
  -2  12 -27    1.39    0.95
   3  12 -27    1.31    0.96
  -3  12 -27   -1.11    0.80
   4  12 -27    3.41    1.12
  -4  12 -27    2.43    0.93
   5  12 -27    1.85    1.02
   6  12 -27    0.90    0.98
   7  12 -27    2.31    1.16
   8  12 -27    1.48    1.07
   9  12 -27    0.05    1.09
   0  13 -27    1.81    1.01
   1  13 -27    4.82    1.15
  -1  13 -27    3.15    1.08
   2  13 -27    2.18    1.07
  -2  13 -27    1.54    0.98
   3  13 -27    2.60    1.13
  -3  13 -27    4.09    1.07
   4  13 -27    0.59    0.98
  -4  13 -27    0.69    0.86
   5  13 -27   -0.47    0.91
   6  13 -27    2.66    1.14
   7  13 -27   -0.85    0.98
   8  13 -27    0.16    1.02
   0  14 -27    2.90    1.13
   1  14 -27    0.57    0.97
  -1  14 -27    0.04    0.96
   2  14 -27    4.21    1.18
  -2  14 -27    2.93    1.05
   3  14 -27    2.92    1.13
  -3  14 -27    1.79    1.03
   4  14 -27    3.60    1.18
  -4  14 -27    2.14    1.00
   5  14 -27    0.33    1.08
   6  14 -27    1.28    1.08
   7  14 -27    2.85    1.22
   8  14 -27    1.23    1.18
   0  15 -27    0.27    0.97
   1  15 -27    0.67    1.08
  -1  15 -27    1.46    1.03
   2  15 -27    6.79    1.33
  -2  15 -27    6.65    1.31
   3  15 -27    1.28    1.06
  -3  15 -27    1.96    1.07
   4  15 -27   -0.31    1.05
  -4  15 -27   -0.29    0.94
   5  15 -27    0.69    1.13
   6  15 -27    0.52    1.10
   7  15 -27   -0.28    1.06
   0  16 -27    1.46    1.05
   1  16 -27    3.25    1.22
  -1  16 -27    2.60    1.11
   2  16 -27   -0.34    1.01
  -2  16 -27    0.95    1.04
   3  16 -27    2.76    1.19
  -3  16 -27    2.52    1.10
   4  16 -27   -0.20    1.02
  -4  16 -27    1.45    1.04
   5  16 -27    2.70    1.24
   6  16 -27    1.12    1.19
   0  17 -27    4.15    1.25
   1  17 -27   -0.03    1.13
  -1  17 -27    1.05    1.09
   2  17 -27    1.54    1.14
  -2  17 -27    0.05    1.04
   3  17 -27    2.43    1.18
  -3  17 -27   -0.59    1.03
   4  17 -27    2.14    1.28
  -4  17 -27    3.63    1.18
   5  17 -27    0.45    1.15
   0  18 -27    0.87    1.16
   1  18 -27    1.19    1.13
  -1  18 -27    0.75    1.16
   2  18 -27    1.00    1.15
  -2  18 -27   -0.13    1.03
   3  18 -27    0.18    1.13
   3  18  27    0.31    0.93
  -3  18 -27    0.60    1.11
   4  18 -27    0.19    1.16
  -4  18 -27    0.24    1.07
   0  19 -27   -0.39    1.12
   1  19 -27   -0.03    1.15
  -1  19 -27    1.77    1.24
   2  19 -27    0.94    1.27
  -2  19 -27    0.80    1.17
   3  19 -27    0.04    1.18
  -3  19 -27    0.80    1.13
   3  19  27    1.69    1.04
   0   0 -28    3.77    0.84
   1   0 -28    8.74    1.09
  -1   0 -28    6.72    0.94
   2   0 -28   -0.18    0.71
  -2   0 -28   -0.98    0.56
   3   0 -28   39.15    2.33
  -3   0 -28   39.05    2.03
   4   0 -28   -0.16    0.79
   5   0 -28    3.34    0.99
   6   0 -28   -0.87    0.78
   7   0 -28   18.14    1.65
   8   0 -28   -0.27    0.78
   9   0 -28    1.21    0.96
  10   0 -28   -1.56    0.87
  11   0 -28    4.12    1.26
   0  -1 -28   -0.46    0.65
   0   1 -28    1.61    0.76
  -1  -1 -28   18.37    1.35
   1   1 -28   21.43    1.53
   1  -1 -28   19.38    1.48
  -1   1 -28   20.13    1.43
   2   1 -28   18.94    1.48
  -2  -1 -28   19.15    1.29
  -2   1 -28   19.12    1.31
   2  -1 -28   18.24    1.45
   3   1 -28    7.07    1.10
  -3  -1 -28    6.47    0.81
  -3   1 -28    7.82    0.85
   3  -1 -28    6.15    1.04
   4   1 -28    1.06    0.88
   4  -1 -28   -1.23    0.74
   5   1 -28    1.32    0.90
   5  -1 -28    0.68    0.85
   6   1 -28    6.41    1.19
   6  -1 -28    6.72    1.16
   7   1 -28   -0.23    0.84
   7  -1 -28   -0.71    0.77
   8   1 -28    1.80    0.96
   8  -1 -28    1.64    0.89
   9   1 -28    0.01    0.87
   9  -1 -28    0.15    0.92
  10   1 -28   -0.49    1.00
  10  -1 -28   -0.65    0.96
  11   1 -28   -1.01    0.94
  11  -1 -28   -0.65    0.98
   0   2 -28   -1.50    0.66
   0  -2 -28   -0.48    0.66
   1   2 -28   10.40    1.18
  -1  -2 -28   10.29    1.07
  -1   2 -28    9.70    1.08
   1  -2 -28   10.59    1.14
   2   2 -28   -0.51    0.73
  -2  -2 -28    0.25    0.61
   2  -2 -28   -0.43    0.72
  -2   2 -28   -0.79    0.59
   3   2 -28    0.87    0.80
  -3   2 -28    1.08    0.63
   3  -2 -28    1.39    0.82
   4   2 -28   12.40    1.42
   4  -2 -28   13.13    1.42
   5   2 -28   12.78    1.48
   5  -2 -28   17.95    1.59
   6   2 -28    4.42    1.13
   6  -2 -28    6.07    1.13
   7   2 -28    1.30    0.90
   7  -2 -28    0.09    0.83
   8   2 -28    4.71    1.12
   8  -2 -28    6.81    1.23
   9   2 -28    1.60    0.98
   9  -2 -28    4.27    1.13
  10   2 -28    0.39    0.99
  10  -2 -28    1.13    1.06
  11   2 -28   -0.06    1.00
  11  -2 -28   -0.18    0.99
   0  -3 -28   45.81    2.34
   0   3 -28   38.54    2.30
   1   3 -28   -1.04    0.70
  -1  -3 -28    0.27    0.59
   1  -3 -28    1.65    0.76
  -1   3 -28   -0.03    0.64
   2   3 -28    2.90    0.89
  -2  -3 -28    2.84    0.70
  -2   3 -28    2.56    0.73
   2  -3 -28    1.62    0.80
   3   3 -28    1.53    0.82
  -3   3 -28    1.89    0.64
   3  -3 -28    1.74    0.79
   4   3 -28   33.62    2.25
   4  -3 -28   35.06    2.20
   5   3 -28    1.12    0.91
   5  -3 -28    2.35    0.94
   6   3 -28   -0.03    0.86
   6  -3 -28    2.15    0.94
   7   3 -28    2.86    0.99
   7  -3 -28    2.15    0.92
   8   3 -28    1.00    0.94
   8  -3 -28    1.27    0.87
   9   3 -28   -1.15    0.87
   9  -3 -28    1.20    0.92
  10   3 -28    1.06    1.07
  10  -3 -28    2.52    1.08
  11   3 -28    1.69    1.10
  11  -3 -28    1.58    1.10
   0  -4 -28    0.05    0.63
   0   4 -28   -0.52    0.65
   1   4 -28   -0.26    0.75
  -1   4 -28    0.14    0.66
   1  -4 -28    0.60    0.71
   2   4 -28    1.49    0.83
  -2   4 -28    2.32    0.70
   2  -4 -28    0.96    0.74
   3   4 -28    1.22    0.80
   3  -4 -28    0.43    0.75
  -3   4 -28    0.84    0.62
   4   4 -28    1.87    0.92
   4  -4 -28    3.29    0.95
   5   4 -28    4.21    1.06
   5  -4 -28    3.99    1.02
   6   4 -28    9.21    1.35
   6  -4 -28   11.69    1.41
   7   4 -28    1.29    0.86
   7  -4 -28    0.59    0.79
   8   4 -28    1.03    0.92
   8  -4 -28   -1.05    0.74
   9   4 -28    0.47    0.94
   9  -4 -28    1.36    0.97
  10   4 -28    5.12    1.36
  10  -4 -28    6.97    1.36
  11   4 -28    0.73    1.12
  11  -4 -28    0.97    1.03
   0   5 -28   14.83    1.31
   1   5 -28    3.48    0.93
   1  -5 -28    6.65    0.98
  -1   5 -28    5.64    0.92
   2   5 -28    4.83    0.98
  -2   5 -28    4.44    0.82
   2  -5 -28    5.42    0.94
   3   5 -28    2.70    0.90
  -3   5 -28    3.74    0.77
   3  -5 -28    3.74    0.93
   4   5 -28    0.64    0.87
   4  -5 -28    0.65    0.80
   5   5 -28    3.15    1.01
   5  -5 -28    1.79    0.93
   6   5 -28   -0.02    0.87
   6  -5 -28    0.40    0.86
   7   5 -28   -0.50    0.82
   7  -5 -28    0.99    0.85
   8   5 -28   -0.19    0.79
   8  -5 -28   -1.57    0.74
   9   5 -28    1.32    1.07
   9  -5 -28    1.02    0.95
  10   5 -28    0.36    1.02
  10  -5 -28    0.15    0.93
   0   6 -28   -0.26    0.74
   1   6 -28    5.06    0.98
  -1   6 -28    4.93    0.93
   2   6 -28    1.16    0.81
  -2   6 -28   -0.05    0.73
   2  -6 -28    0.01    0.69
   3   6 -28    5.61    1.08
  -3   6 -28    6.47    0.94
   3  -6 -28    5.41    1.02
   4   6 -28    0.41    0.83
   4  -6 -28    0.47    0.75
   5   6 -28    3.59    1.06
   5  -6 -28    4.99    1.02
   6   6 -28   -0.52    0.81
   6  -6 -28    1.02    0.84
   7   6 -28    1.94    1.00
   7  -6 -28    1.36    0.88
   8   6 -28    0.15    0.88
   8  -6 -28    0.50    0.87
   9   6 -28    2.70    1.07
   9  -6 -28    3.77    1.07
  10   6 -28    0.54    1.05
  10  -6 -28    0.96    1.03
   0   7 -28    2.17    0.90
   1   7 -28    1.52    0.83
  -1   7 -28    3.53    0.89
   2   7 -28    0.89    0.85
  -2   7 -28    1.49    0.78
   3   7 -28    5.25    1.09
  -3   7 -28    6.96    0.99
   4   7 -28    4.19    1.06
   5   7 -28    1.23    0.90
   6   7 -28    0.09    0.88
   6  -7 -28   -1.07    0.72
   7   7 -28    2.05    0.95
   7  -7 -28    1.10    0.91
   8   7 -28    0.39    0.94
   9   7 -28    0.08    0.96
  10   7 -28    1.07    1.10
   0   8 -28    2.26    0.91
   1   8 -28    3.25    0.94
  -1   8 -28    4.05    0.95
   2   8 -28    0.78    0.90
  -2   8 -28    0.36    0.78
   3   8 -28    8.77    1.32
  -3   8 -28    9.29    1.16
   4   8 -28    1.53    0.94
  -4   8 -28    0.99    0.74
   5   8 -28    1.55    0.91
   6   8 -28   -0.13    0.83
   7   8 -28    3.76    1.09
   8   8 -28    0.84    0.97
   9   8 -28    0.73    1.01
  10   8 -28    0.28    1.09
   0   9 -28    0.57    0.87
   1   9 -28    0.05    0.81
  -1   9 -28    0.71    0.85
   2   9 -28   13.89    1.53
  -2   9 -28   15.67    1.49
   3   9 -28    0.85    0.92
  -3   9 -28    0.78    0.79
   4   9 -28    1.39    0.91
  -4   9 -28   -0.47    0.76
   5   9 -28   -0.15    0.85
   6   9 -28    3.49    1.07
   7   9 -28    1.00    0.93
   8   9 -28    1.29    1.02
   9   9 -28    0.70    1.05
  10   9 -28    0.15    1.10
   0  10 -28    0.04    0.90
   1  10 -28    7.82    1.26
  -1  10 -28   10.60    1.30
   2  10 -28    2.40    0.98
  -2  10 -28    2.16    0.92
   3  10 -28    5.36    1.18
  -3  10 -28    4.73    1.00
   4  10 -28   -0.80    0.81
  -4  10 -28    0.48    0.79
   5  10 -28    0.80    0.93
   6  10 -28    1.92    1.00
   7  10 -28    3.63    1.13
   8  10 -28   -0.38    0.96
   9  10 -28   -0.86    0.98
   0  11 -28    9.03    1.29
   1  11 -28    5.12    1.14
  -1  11 -28    5.81    1.15
   2  11 -28    2.37    1.01
  -2  11 -28   -0.26    0.84
   3  11 -28    0.47    0.94
  -3  11 -28    0.98    0.87
   4  11 -28    2.84    1.06
  -4  11 -28    3.52    0.98
   5  11 -28    0.47    0.95
   6  11 -28    1.59    1.01
   7  11 -28   -0.06    0.99
   8  11 -28    1.39    1.09
   9  11 -28    0.58    1.08
   0  12 -28    2.22    1.04
   1  12 -28    1.22    1.02
  -1  12 -28    0.33    0.96
   2  12 -28   -0.94    0.86
  -2  12 -28    1.38    0.94
   3  12 -28    0.05    0.99
  -3  12 -28   -0.60    0.82
   4  12 -28    0.14    0.90
  -4  12 -28    0.06    0.87
   5  12 -28    2.74    1.12
   6  12 -28    0.30    1.01
   7  12 -28    0.06    0.97
   8  12 -28    0.02    1.02
   0  13 -28    3.01    1.06
   1  13 -28    1.74    1.01
  -1  13 -28    2.52    1.07
   2  13 -28    2.83    1.12
  -2  13 -28    0.81    0.96
   3  13 -28    0.15    0.92
  -3  13 -28   -0.48    0.86
   4  13 -28    3.04    1.13
  -4  13 -28    2.76    0.99
   5  13 -28    1.36    1.05
   6  13 -28    1.17    1.12
   7  13 -28   -1.46    0.97
   8  13 -28    2.02    1.23
   0  14 -28    1.57    0.99
   1  14 -28    1.55    1.02
  -1  14 -28    3.92    1.14
   2  14 -28   -1.04    0.91
  -2  14 -28   -0.09    0.86
   3  14 -28    0.75    1.09
  -3  14 -28    0.73    0.95
   4  14 -28    1.32    1.04
  -4  14 -28   -1.39    0.93
   5  14 -28   -1.27    0.96
   6  14 -28    0.16    1.05
   7  14 -28   -3.20    0.89
   0  15 -28   -0.35    0.96
   1  15 -28    0.29    0.98
  -1  15 -28    0.53    0.99
   2  15 -28    1.28    1.07
  -2  15 -28    1.30    1.07
   3  15 -28    1.34    1.06
  -3  15 -28   -0.08    0.98
   4  15 -28    0.47    1.05
  -4  15 -28    2.20    1.08
   5  15 -28    0.95    1.18
   6  15 -28   -0.60    1.06
   7  15 -28   -0.50    1.08
   0  16 -28   -2.31    0.94
   1  16 -28    0.27    1.06
  -1  16 -28    1.38    1.13
   2  16 -28   -0.50    1.03
  -2  16 -28   -0.78    0.93
   3  16 -28    0.08    1.08
  -3  16 -28    0.47    0.96
   4  16 -28    0.01    1.07
  -4  16 -28    0.36    1.04
   5  16 -28   -1.03    0.99
   6  16 -28    0.26    1.17
   0  17 -28   -0.73    1.06
   1  17 -28    0.30    1.11
  -1  17 -28    0.71    1.12
   2  17 -28   -1.31    1.00
  -2  17 -28    0.33    1.02
   3  17 -28    0.56    1.14
  -3  17 -28   -0.40    1.01
   4  17 -28    1.79    1.22
  -4  17 -28    2.47    1.15
   5  17 -28   -0.46    1.09
   0  18 -28    2.64    1.21
   1  18 -28   -0.78    1.06
  -1  18 -28   -0.03    1.09
   2  18 -28    1.03    1.20
  -2  18 -28   -0.30    1.10
   3  18 -28   -0.37    1.10
  -3  18 -28   -0.98    1.06
   3  18  28    1.09    0.95
   0  19 -28    0.86    1.23
   1  19 -28    0.18    1.13
  -1  19 -28   -1.58    1.10
   0   0 -29    0.65    0.71
  -1   0 -29    0.92    0.68
   1   0 -29    1.15    0.73
   2   0 -29    0.53    0.74
  -2   0 -29    1.63    0.65
  -3   0 -29    0.98    0.57
   3   0 -29    0.53    0.80
   4   0 -29   -0.56    0.77
   5   0 -29    2.47    0.97
   6   0 -29    2.08    0.94
   7   0 -29    2.02    0.96
   8   0 -29    0.24    0.85
   9   0 -29   -1.77    0.78
  10   0 -29    1.36    1.07
  11   0 -29    0.23    1.09
   0  -1 -29    4.90    0.89
   0   1 -29    5.10    0.93
   1   1 -29    2.86    0.83
  -1  -1 -29    0.90    0.68
   1  -1 -29    2.49    0.79
  -1   1 -29    2.87    0.80
   2   1 -29   -0.37    0.77
  -2  -1 -29    0.51    0.59
   2  -1 -29    1.50    0.77
  -2   1 -29    0.54    0.62
  -3  -1 -29   -0.38    0.51
   3   1 -29   -0.39    0.75
  -3   1 -29    0.33    0.56
   3  -1 -29   -0.86    0.73
   4   1 -29    0.84    0.86
   4  -1 -29    0.81    0.89
   5   1 -29    0.95    0.94
   5  -1 -29    1.87    0.93
   6   1 -29   -0.47    0.85
   6  -1 -29    2.36    0.94
   7   1 -29    0.93    0.90
   7  -1 -29    0.97    0.90
   8   1 -29    0.07    0.85
   8  -1 -29   -0.67    0.78
   9   1 -29    1.45    1.01
   9  -1 -29    0.33    0.92
  10   1 -29   -1.01    0.91
  10  -1 -29    0.24    0.98
  11   1 -29    0.01    1.02
  11  -1 -29    0.51    1.06
   0   2 -29    0.83    0.75
   0  -2 -29    0.14    0.68
  -1  -2 -29    4.22    0.82
   1   2 -29    3.02    0.90
   1  -2 -29    4.11    0.87
  -1   2 -29    3.89    0.81
   2   2 -29   -0.08    0.76
  -2  -2 -29   -0.25    0.56
   2  -2 -29    0.86    0.75
  -2   2 -29    0.18    0.64
   3   2 -29   -0.07    0.76
   3  -2 -29    1.77    0.84
  -3   2 -29    0.39    0.58
   4   2 -29    1.96    0.89
   4  -2 -29    1.42    0.87
   5   2 -29    7.41    1.21
   5  -2 -29    6.00    1.11
   6   2 -29    4.44    1.07
   6  -2 -29    2.79    0.96
   7   2 -29    0.92    0.91
   7  -2 -29    0.13    0.87
   8   2 -29    0.40    0.87
   8  -2 -29    0.78    0.90
   9   2 -29    1.90    1.08
   9  -2 -29    1.72    1.00
  10   2 -29    0.31    0.99
  10  -2 -29    0.55    0.97
   0   3 -29    3.65    0.87
   0  -3 -29    3.59    0.82
   1   3 -29    1.57    0.78
  -1  -3 -29    0.68    0.64
   1  -3 -29    0.76    0.70
  -1   3 -29    0.42    0.73
   2   3 -29    2.46    0.88
   2  -3 -29    1.88    0.84
  -2   3 -29    3.42    0.76
   3   3 -29    3.59    0.95
   3  -3 -29    3.25    0.90
  -3   3 -29    4.73    0.76
   4   3 -29    3.08    0.97
   4  -3 -29    4.27    0.99
   5   3 -29    0.71    0.91
   5  -3 -29    0.37    0.82
   6   3 -29    3.36    1.06
   6  -3 -29    1.12    0.87
   7   3 -29    0.99    0.93
   7  -3 -29    0.69    0.90
   8   3 -29    0.55    0.89
   8  -3 -29    0.40    0.84
   9   3 -29   -1.32    0.87
   9  -3 -29   -0.38    0.83
  10   3 -29    1.29    1.07
  10  -3 -29    0.29    0.93
   0  -4 -29   -1.46    0.60
   0   4 -29   -0.79    0.68
   1   4 -29    6.18    1.04
   1  -4 -29    8.67    1.05
  -1   4 -29    6.47    0.99
   2   4 -29    1.85    0.84
  -2   4 -29    0.90    0.72
   2  -4 -29    0.11    0.73
   3   4 -29    6.70    1.16
   3  -4 -29    8.15    1.13
  -3   4 -29    9.06    0.99
   4   4 -29    1.24    0.95
   4  -4 -29    2.99    0.96
   5   4 -29    2.54    0.98
   5  -4 -29    3.62    0.97
   6   4 -29    0.46    0.87
   6  -4 -29    1.69    0.86
   7   4 -29    2.11    0.99
   7  -4 -29    1.29    0.92
   8   4 -29    2.01    0.96
   8  -4 -29    0.23    0.82
   9   4 -29   -2.33    0.79
   9  -4 -29    0.36    0.90
  10   4 -29    0.14    1.04
  10  -4 -29    0.14    0.97
   0   5 -29    1.09    0.77
   1   5 -29   -0.25    0.77
  -1   5 -29    0.71    0.75
   1  -5 -29    0.76    0.71
   2   5 -29   13.99    1.42
   2  -5 -29   13.92    1.37
  -2   5 -29   14.30    1.25
   3   5 -29    0.21    0.80
   3  -5 -29   -0.94    0.69
  -3   5 -29    0.63    0.68
   4   5 -29    2.05    0.93
   4  -5 -29    1.44    0.84
   5   5 -29    2.87    0.99
   5  -5 -29    2.86    0.95
   6   5 -29    1.97    1.00
   6  -5 -29    2.70    0.94
   7   5 -29    1.29    0.91
   7  -5 -29    1.86    0.97
   8   5 -29    0.26    0.90
   8  -5 -29    1.37    0.90
   9   5 -29   -0.03    0.96
   9  -5 -29    0.62    0.87
  10   5 -29    0.27    1.06
  10  -5 -29   -0.22    0.91
   0   6 -29    0.57    0.72
   1   6 -29    3.46    0.90
  -1   6 -29    3.13    0.86
   2   6 -29    3.74    0.93
  -2   6 -29    3.23    0.86
   3   6 -29    7.15    1.20
   3  -6 -29    9.97    1.23
  -3   6 -29   10.16    1.08
   4   6 -29    5.00    1.10
   4  -6 -29    6.86    1.12
   5   6 -29    1.14    0.90
   5  -6 -29    0.67    0.81
   6   6 -29    0.00    0.87
   6  -6 -29    2.56    0.92
   7   6 -29    0.29    0.92
   7  -6 -29    2.32    0.94
   8   6 -29    1.67    1.00
   8  -6 -29    1.38    0.95
   9   6 -29    1.31    1.03
   9  -6 -29    1.00    0.92
  10   6 -29   -0.94    1.00
  10  -6 -29   -0.07    0.92
   0   7 -29    2.92    0.91
   1   7 -29    0.52    0.78
  -1   7 -29    1.67    0.81
   2   7 -29    2.23    0.92
  -2   7 -29    2.18    0.81
   3   7 -29    3.19    1.00
  -3   7 -29    4.42    0.87
   4   7 -29   10.19    1.36
   5   7 -29    0.61    0.92
   6   7 -29    5.60    1.16
   6  -7 -29    2.89    1.00
   7   7 -29   -1.83    0.76
   7  -7 -29    0.47    0.84
   8   7 -29    3.39    1.16
   9   7 -29    0.71    1.01
  10   7 -29   -0.45    1.05
   0   8 -29    4.77    0.99
   1   8 -29    2.84    0.93
  -1   8 -29    5.88    1.05
   2   8 -29   10.35    1.31
  -2   8 -29    8.18    1.18
   3   8 -29    2.73    1.00
  -3   8 -29    1.57    0.84
   4   8 -29   -0.26    0.87
   5   8 -29    3.99    1.10
   6   8 -29    2.78    1.03
   7   8 -29   -0.66    0.84
   8   8 -29    0.16    0.90
   9   8 -29    2.58    1.18
   0   9 -29   -0.05    0.87
   1   9 -29    4.21    1.04
  -1   9 -29    2.77    0.94
   2   9 -29    2.62    1.00
  -2   9 -29    0.29    0.85
   3   9 -29    0.14    0.97
  -3   9 -29    0.41    0.83
   4   9 -29    3.48    1.07
   5   9 -29    3.27    1.08
   6   9 -29    1.63    0.96
   7   9 -29    2.23    1.03
   8   9 -29    1.43    1.04
   9   9 -29    0.16    1.04
   0  10 -29    0.23    0.87
   1  10 -29   10.73    1.39
  -1  10 -29    8.27    1.22
   2  10 -29    1.22    0.94
  -2  10 -29    2.99    0.95
   3  10 -29    5.22    1.23
  -3  10 -29    6.80    1.13
   4  10 -29    0.69    0.97
   5  10 -29    1.24    0.97
   6  10 -29    0.47    0.98
   7  10 -29    0.10    0.97
   8  10 -29    1.41    1.04
   9  10 -29    0.71    1.10
   0  11 -29    1.32    0.95
   1  11 -29   -0.21    0.89
  -1  11 -29   -0.13    0.88
   2  11 -29    0.96    0.96
  -2  11 -29    1.62    0.93
   3  11 -29    2.06    1.01
  -3  11 -29    0.14    0.88
   4  11 -29    0.68    0.95
   5  11 -29    1.86    1.02
   6  11 -29    1.40    1.00
   7  11 -29    1.72    1.06
   8  11 -29    0.79    1.07
   0  12 -29    2.30    1.03
   1  12 -29    3.35    1.12
  -1  12 -29    3.59    1.09
   2  12 -29    3.43    1.08
  -2  12 -29    2.02    0.99
   3  12 -29   -0.68    0.89
  -3  12 -29   -0.68    0.84
   4  12 -29    3.63    1.11
   5  12 -29    0.34    1.01
   6  12 -29    0.05    1.00
   7  12 -29   -0.87    0.96
   8  12 -29   -0.06    1.01
   0  13 -29   -1.49    0.89
   1  13 -29   -0.05    0.95
  -1  13 -29    0.19    0.87
   2  13 -29    0.30    1.01
  -2  13 -29    0.61    0.95
   3  13 -29   -0.98    0.90
  -3  13 -29    1.14    0.95
   4  13 -29    2.31    1.11
   5  13 -29   -1.19    0.91
   6  13 -29    3.20    1.19
   7  13 -29    2.17    1.15
   0  14 -29    5.91    1.28
   1  14 -29    0.18    0.98
  -1  14 -29    1.26    0.98
   2  14 -29    2.90    1.11
  -2  14 -29    4.87    1.17
   3  14 -29    3.02    1.15
  -3  14 -29    3.50    1.10
   4  14 -29    4.44    1.27
  -4  14 -29    3.51    1.11
   5  14 -29    0.02    1.05
   6  14 -29    1.52    1.15
   7  14 -29    0.01    1.12
   0  15 -29    0.36    0.96
   1  15 -29    1.86    1.06
  -1  15 -29    1.08    1.05
   2  15 -29    1.76    1.12
  -2  15 -29    2.12    1.05
   3  15 -29    1.42    1.10
  -3  15 -29   -0.24    1.00
   4  15 -29   -0.62    0.99
  -4  15 -29   -0.35    0.93
   5  15 -29    0.51    1.10
   6  15 -29    2.55    1.22
   0  16 -29   -0.97    1.00
   1  16 -29    5.60    1.36
  -1  16 -29    4.15    1.22
   2  16 -29   -0.26    1.04
  -2  16 -29    2.18    1.13
   3  16 -29    2.71    1.19
  -3  16 -29    0.73    1.09
   4  16 -29   -0.30    1.12
  -4  16 -29    0.29    1.04
   5  16 -29    1.53    1.18
   0  17 -29    1.46    1.18
   1  17 -29   -1.19    0.98
  -1  17 -29   -0.16    1.03
   2  17 -29   -0.18    1.09
  -2  17 -29   -1.33    1.02
   3  17 -29    0.36    1.13
  -3  17 -29    1.92    1.16
   4  17 -29    0.89    1.18
  -4  17 -29    1.74    1.12
   0  18 -29   -0.26    1.09
   1  18 -29    4.27    1.31
  -1  18 -29    3.88    1.30
   2  18 -29    0.25    1.17
  -2  18 -29    1.06    1.12
   0   0 -30   28.03    1.81
  -1   0 -30   13.35    1.27
   1   0 -30   14.16    1.36
  -2   0 -30    4.70    0.81
   2   0 -30    3.84    0.95
  -3   0 -30    0.26    0.58
   3   0 -30   -0.45    0.74
   4   0 -30   10.18    1.30
   5   0 -30    7.15    1.19
   6   0 -30   -0.08    0.83
   7   0 -30   -0.50    0.85
   8   0 -30   -0.70    0.82
   9   0 -30    4.45    1.15
  10   0 -30   -0.27    0.99
   0   1 -30   20.63    1.53
   0  -1 -30   19.31    1.48
   1   1 -30    7.98    1.09
  -1  -1 -30    6.55    0.97
  -1   1 -30    6.93    1.01
   1  -1 -30    7.33    1.07
   2   1 -30    3.14    0.95
  -2  -1 -30    3.15    0.74
   2  -1 -30    2.87    0.91
  -2   1 -30    2.71    0.74
  -3  -1 -30    4.35    0.72
   3   1 -30    2.52    0.98
  -3   1 -30    3.12    0.72
   3  -1 -30    3.27    0.94
   4   1 -30   10.44    1.37
   4  -1 -30   12.70    1.40
   5   1 -30    7.02    1.26
   5  -1 -30    7.71    1.24
   6   1 -30    6.92    1.22
   6  -1 -30    6.74    1.20
   7   1 -30   -0.92    0.86
   7  -1 -30    0.05    0.87
   8   1 -30    2.55    1.02
   8  -1 -30    2.96    1.01
   9   1 -30    2.64    1.04
   9  -1 -30    1.82    1.00
  10   1 -30    0.11    1.01
  10  -1 -30    2.02    1.10
   0  -2 -30    1.37    0.75
   0   2 -30    1.09    0.80
  -1  -2 -30   14.83    1.23
   1   2 -30   16.42    1.42
  -1   2 -30   14.82    1.27
   1  -2 -30   16.43    1.38
   2   2 -30    2.82    0.90
  -2  -2 -30    3.52    0.75
  -2   2 -30    1.91    0.74
   2  -2 -30    2.90    0.88
   3   2 -30    5.39    1.06
  -3   2 -30    5.34    0.81
   3  -2 -30    5.01    1.02
   4   2 -30    1.33    0.89
   4  -2 -30   -0.64    0.75
   5   2 -30    6.24    1.19
   5  -2 -30    6.70    1.21
   6   2 -30    2.58    1.03
   6  -2 -30    3.34    1.02
   7   2 -30    3.41    1.07
   7  -2 -30    2.39    1.00
   8   2 -30   -0.91    0.81
   8  -2 -30    1.13    0.88
   9   2 -30    0.50    0.92
   9  -2 -30   -1.01    0.77
  10   2 -30    1.47    1.07
  10  -2 -30    0.09    0.98
   0   3 -30   -0.37    0.67
   0  -3 -30   -0.59    0.67
   1   3 -30   -0.78    0.73
  -1  -3 -30    0.28    0.63
  -1   3 -30   -0.17    0.66
   1  -3 -30    0.41    0.72
   2   3 -30   10.55    1.26
  -2   3 -30   12.54    1.18
   2  -3 -30   10.61    1.27
   3   3 -30    6.21    1.09
  -3   3 -30    6.61    0.87
   3  -3 -30    5.25    1.06
   4   3 -30   -0.91    0.77
   4  -3 -30   -0.46    0.75
   5   3 -30    3.66    1.07
   5  -3 -30    4.67    1.05
   6   3 -30    1.22    0.94
   6  -3 -30    1.81    0.93
   7   3 -30    3.19    1.08
   7  -3 -30    2.65    1.00
   8   3 -30    0.14    0.87
   8  -3 -30    1.01    0.92
   9   3 -30    0.37    0.96
   9  -3 -30    0.75    0.91
  10   3 -30    0.68    1.04
  10  -3 -30    0.07    0.98
   0  -4 -30    1.54    0.72
   0   4 -30   -0.71    0.73
   1   4 -30    8.02    1.16
  -1   4 -30    8.57    1.08
   1  -4 -30    8.27    1.09
   2   4 -30    3.61    0.93
  -2   4 -30    3.40    0.85
   2  -4 -30    3.08    0.93
   3   4 -30    6.39    1.13
  -3   4 -30    9.21    0.98
   3  -4 -30    6.38    1.11
   4   4 -30    0.52    0.88
   4  -4 -30    0.42    0.80
   5   4 -30    1.29    0.96
   5  -4 -30    2.89    0.94
   6   4 -30    0.80    0.86
   6  -4 -30    2.11    0.95
   7   4 -30   -0.13    0.89
   7  -4 -30   -0.29    0.85
   8   4 -30    3.61    1.09
   8  -4 -30    1.75    0.98
   9   4 -30   -1.17    0.85
   9  -4 -30    0.28    0.92
  10   4 -30   -0.43    1.00
  10  -4 -30   -0.33    1.01
   0   5 -30    4.66    0.96
   1   5 -30    1.87    0.84
   1  -5 -30    3.30    0.88
  -1   5 -30    2.41    0.86
   2   5 -30    3.90    0.96
  -2   5 -30    3.74    0.82
   2  -5 -30    2.37    0.82
   3   5 -30    0.30    0.83
  -3   5 -30    1.13    0.73
   3  -5 -30    1.15    0.81
   4   5 -30    4.09    1.07
   4  -5 -30    5.56    1.10
   5   5 -30    0.53    0.88
   5  -5 -30    2.96    0.97
   6   5 -30    1.34    0.95
   6  -5 -30    1.81    0.94
   7   5 -30    1.45    0.99
   7  -5 -30    1.89    1.00
   8   5 -30    1.82    0.98
   8  -5 -30    2.39    1.03
   9   5 -30    0.95    1.03
   9  -5 -30    0.92    0.95
  10   5 -30   -1.56    0.95
  10  -5 -30    1.61    1.07
   0   6 -30    3.30    0.87
   1   6 -30    0.55    0.75
  -1   6 -30   -0.05    0.71
   2   6 -30    2.48    0.95
  -2   6 -30    2.82    0.81
   3   6 -30    0.41    0.91
   3  -6 -30    1.13    0.82
  -3   6 -30    0.46    0.71
   4   6 -30    2.04    0.99
   4  -6 -30    0.99    0.89
   5   6 -30    1.16    0.93
   5  -6 -30    0.93    0.83
   6   6 -30    3.51    1.08
   6  -6 -30    2.27    0.95
   7   6 -30    0.63    0.89
   7  -6 -30    0.99    0.89
   8   6 -30   -0.12    0.93
   8  -6 -30   -0.06    0.91
   9   6 -30   -0.04    0.97
   9  -6 -30    0.30    0.91
  10   6 -30    2.31    1.17
  10  -6 -30    1.20    1.01
   0   7 -30    0.65    0.84
   1   7 -30    1.96    0.88
  -1   7 -30    2.16    0.88
   2   7 -30    0.92    0.86
  -2   7 -30    1.83    0.82
   3   7 -30    1.17    0.91
  -3   7 -30    1.99    0.82
   4   7 -30    4.62    1.07
   5   7 -30    1.43    0.98
   6   7 -30    3.55    1.07
   7   7 -30    0.73    0.90
   8   7 -30   -0.10    0.94
   9   7 -30    1.73    1.10
   0   8 -30    1.67    0.91
   1   8 -30    9.13    1.25
  -1   8 -30   10.53    1.29
   2   8 -30    0.66    0.87
  -2   8 -30    0.81    0.80
   3   8 -30    4.41    1.08
  -3   8 -30    2.30    0.87
   4   8 -30   -0.77    0.81
   5   8 -30    4.43    1.12
   6   8 -30    0.12    0.87
   7   8 -30    0.79    0.97
   8   8 -30   -0.53    0.90
   9   8 -30    2.88    1.24
   0   9 -30    7.26    1.17
   1   9 -30    0.05    0.85
  -1   9 -30    0.47    0.86
   2   9 -30    1.30    0.98
  -2   9 -30    2.11    0.90
   3   9 -30    1.63    0.95
  -3   9 -30   -0.26    0.81
   4   9 -30    3.50    1.08
   5   9 -30    2.79    1.03
   6   9 -30   -0.01    0.87
   7   9 -30    1.52    1.08
   8   9 -30    2.11    1.09
   9   9 -30    0.95    1.15
   0  10 -30   -0.72    0.88
   1  10 -30    3.30    1.09
  -1  10 -30    5.61    1.12
   2  10 -30   -0.22    0.87
  -2  10 -30   -0.37    0.82
   3  10 -30    2.59    1.03
  -3  10 -30    2.25    0.96
   4  10 -30    3.20    1.11
   5  10 -30    3.45    1.11
   6  10 -30   -0.65    0.91
   7  10 -30    0.29    0.97
   8  10 -30    1.08    1.09
   0  11 -30    3.57    1.05
   1  11 -30    1.34    1.02
  -1  11 -30   -0.40    0.91
   2  11 -30    4.29    1.13
  -2  11 -30    3.80    1.02
   3  11 -30   -0.45    0.89
  -3  11 -30   -0.06    0.89
   4  11 -30    0.55    0.93
   5  11 -30   -0.55    0.91
   6  11 -30    1.02    1.11
   7  11 -30    0.94    1.03
   8  11 -30    1.58    1.11
   0  12 -30    0.78    0.98
   1  12 -30    2.02    1.05
  -1  12 -30    0.44    0.96
   2  12 -30    1.05    0.99
  -2  12 -30    0.81    0.94
   3  12 -30    1.91    1.09
  -3  12 -30    1.39    0.92
   4  12 -30   -0.34    0.99
   5  12 -30    2.63    1.09
   6  12 -30   -0.66    0.97
   7  12 -30    1.95    1.15
   0  13 -30    2.04    1.03
   1  13 -30    1.73    1.09
  -1  13 -30   -1.26    0.88
   2  13 -30   -0.39    1.01
  -2  13 -30   -0.65    0.91
   3  13 -30    0.89    1.04
  -3  13 -30    0.85    0.96
   4  13 -30   -1.30    1.00
   5  13 -30    0.16    1.01
   6  13 -30    0.25    1.12
   7  13 -30    0.96    1.13
   0  14 -30   -1.37    0.87
   1  14 -30    0.58    1.03
  -1  14 -30    2.12    1.08
   2  14 -30    0.89    1.02
  -2  14 -30    0.99    1.01
   3  14 -30    0.71    1.04
  -3  14 -30    0.67    0.97
   4  14 -30    0.31    1.07
   5  14 -30   -0.33    1.01
   6  14 -30   -0.37    1.07
   0  15 -30    0.61    1.01
   1  15 -30    0.45    1.02
  -1  15 -30    1.94    1.11
   2  15 -30    1.64    1.08
  -2  15 -30    0.61    1.02
   3  15 -30   -0.06    1.12
  -3  15 -30   -1.43    0.91
   4  15 -30    1.01    1.10
   5  15 -30   -0.06    1.07
   0  16 -30    0.81    1.06
   1  16 -30    0.94    1.15
  -1  16 -30   -0.44    1.02
   2  16 -30    2.10    1.15
  -2  16 -30   -0.20    1.04
   3  16 -30   -0.51    1.03
  -3  16 -30    0.85    1.07
   4  16 -30    0.20    1.12
   0  17 -30    0.25    1.09
   1  17 -30    1.51    1.14
  -1  17 -30   -0.54    1.08
   2  17 -30    1.32    1.19
  -2  17 -30    1.92    1.18
   3  17 -30    0.52    1.19
  -3  17 -30   -0.14    1.07
   0  18 -30   -0.47    1.06
   1  18 -30    2.44    1.25
  -1  18 -30    0.43    1.19
   0   0 -31    1.57    0.77
   1   0 -31    0.72    0.77
  -1   0 -31    0.12    0.73
  -2   0 -31    1.28    0.68
   2   0 -31    2.49    0.85
   3   0 -31   -0.94    0.78
   4   0 -31    3.39    0.98
   5   0 -31    2.33    0.94
   6   0 -31   -0.90    0.83
   7   0 -31    0.39    0.92
   8   0 -31    0.26    0.93
   9   0 -31    0.78    0.98
  10   0 -31   -0.37    0.99
   0  -1 -31   -0.62    0.68
   0   1 -31    0.56    0.74
   1   1 -31    0.41    0.74
  -1  -1 -31   -0.63    0.64
  -1   1 -31    0.41    0.75
   1  -1 -31   -0.03    0.69
   2   1 -31   -0.29    0.74
  -2  -1 -31   -0.78    0.60
  -2   1 -31   -0.17    0.65
   2  -1 -31   -0.41    0.71
   3   1 -31    0.21    0.83
   3  -1 -31    0.33    0.78
   4   1 -31    1.45    0.90
   4  -1 -31    1.07    0.89
   5   1 -31    0.34    0.89
   5  -1 -31    0.40    0.82
   6   1 -31    2.70    0.99
   6  -1 -31    2.54    1.02
   7   1 -31    1.87    0.97
   7  -1 -31    3.54    1.07
   8   1 -31    0.11    0.91
   8  -1 -31    1.46    0.97
   9   1 -31    2.46    1.10
   9  -1 -31   -0.01    0.91
  10   1 -31    0.66    1.06
  10  -1 -31    0.67    1.02
   0  -2 -31    0.90    0.73
   0   2 -31    0.16    0.74
   1   2 -31    2.54    0.89
  -1  -2 -31    0.61    0.70
  -1   2 -31    1.10    0.76
   1  -2 -31    0.97    0.79
   2   2 -31    2.66    0.93
  -2  -2 -31    1.39    0.68
   2  -2 -31    1.84    0.81
  -2   2 -31    1.30    0.75
   3   2 -31    5.34    1.05
   3  -2 -31    3.36    0.97
   4   2 -31    1.51    0.90
   4  -2 -31   -0.45    0.79
   5   2 -31    0.76    0.92
   5  -2 -31    1.21    0.90
   6   2 -31    1.05    0.93
   6  -2 -31    0.75    0.92
   7   2 -31    1.35    0.97
   7  -2 -31    2.07    0.96
   8   2 -31   -0.81    0.85
   8  -2 -31    0.41    0.93
   9   2 -31   -0.21    1.01
   9  -2 -31   -0.26    0.93
  10   2 -31   -0.87    0.97
  10  -2 -31   -0.31    0.96
   0   3 -31   -0.34    0.72
   0  -3 -31   -0.79    0.66
   1   3 -31    1.48    0.82
  -1  -3 -31    0.70    0.69
  -1   3 -31    0.60    0.73
   1  -3 -31    0.54    0.72
   2   3 -31    6.74    1.09
   2  -3 -31    6.48    1.08
  -2   3 -31    7.29    0.99
   3   3 -31    0.58    0.83
   3  -3 -31    0.69    0.85
   4   3 -31   -0.71    0.81
   4  -3 -31    0.12    0.81
   5   3 -31    2.80    1.04
   5  -3 -31    4.99    1.05
   6   3 -31    1.60    0.94
   6  -3 -31    0.15    0.89
   7   3 -31    0.20    0.91
   7  -3 -31    1.62    0.94
   8   3 -31    0.69    0.97
   8  -3 -31   -0.73    0.89
   9   3 -31    1.50    1.08
   9  -3 -31    1.68    1.03
  10   3 -31   -0.23    1.06
  10  -3 -31    0.45    0.99
   0  -4 -31    0.98    0.72
   0   4 -31    0.91    0.81
   1   4 -31    3.54    0.91
  -1   4 -31    2.96    0.86
   1  -4 -31    3.81    0.88
   2   4 -31    1.11    0.87
  -2   4 -31   -0.15    0.69
   2  -4 -31   -0.09    0.78
   3   4 -31    2.14    0.92
  -3   4 -31    2.39    0.74
   3  -4 -31    3.62    0.94
   4   4 -31    0.14    0.92
   4  -4 -31    3.22    0.98
   5   4 -31    2.61    1.00
   5  -4 -31    4.89    1.07
   6   4 -31   -0.07    0.88
   6  -4 -31    1.02    0.92
   7   4 -31   -1.85    0.79
   7  -4 -31   -0.41    0.80
   8   4 -31    1.54    0.99
   8  -4 -31    1.54    1.00
   9   4 -31    1.33    1.06
   9  -4 -31    1.31    1.10
  10   4 -31    2.71    1.19
  10  -4 -31    2.51    1.13
   0   5 -31   10.32    1.25
   1   5 -31    3.03    0.94
   1  -5 -31    2.58    0.81
  -1   5 -31    2.10    0.89
   2   5 -31    1.14    0.89
   2  -5 -31    0.96    0.80
  -2   5 -31    0.89    0.76
   3   5 -31    2.28    0.93
   3  -5 -31    1.39    0.81
  -3   5 -31    0.38    0.68
   4   5 -31   11.52    1.42
   4  -5 -31   10.79    1.40
   5   5 -31   -0.65    0.85
   5  -5 -31   -0.50    0.82
   6   5 -31   -0.46    0.85
   6  -5 -31   -0.46    0.82
   7   5 -31   -0.18    0.90
   7  -5 -31    0.94    0.91
   8   5 -31    1.25    1.00
   8  -5 -31    0.02    0.89
   9   5 -31    1.67    1.08
   9  -5 -31   -0.46    0.85
   0   6 -31    1.57    0.82
   1   6 -31    2.68    0.95
  -1   6 -31    4.17    0.96
   2   6 -31    1.92    0.90
  -2   6 -31   -0.43    0.74
   3   6 -31    2.97    0.99
   3  -6 -31    2.93    0.94
  -3   6 -31    2.75    0.85
   4   6 -31   -0.38    0.84
   4  -6 -31    1.84    0.87
   5   6 -31    8.62    1.32
   5  -6 -31    5.91    1.18
   6   6 -31   -0.74    0.86
   6  -6 -31    1.71    0.93
   7   6 -31    0.77    0.95
   7  -6 -31   -0.06    0.82
   8   6 -31   -1.17    0.87
   8  -6 -31    1.86    0.99
   9   6 -31    1.60    1.08
   9  -6 -31    3.37    1.10
   0   7 -31    1.29    0.82
   1   7 -31    7.40    1.17
  -1   7 -31    8.00    1.13
   2   7 -31    2.99    0.95
  -2   7 -31    1.51    0.88
   3   7 -31    1.78    0.93
  -3   7 -31    1.78    0.82
   4   7 -31    1.75    0.99
   5   7 -31    1.71    0.95
   6   7 -31    4.02    1.11
   7   7 -31    0.78    1.00
   8   7 -31    0.37    1.00
   9   7 -31    0.22    1.01
   0   8 -31    0.99    0.87
   1   8 -31    0.37    0.86
  -1   8 -31    0.46    0.83
   2   8 -31    1.12    0.91
  -2   8 -31    2.53    0.88
   3   8 -31    3.45    1.04
  -3   8 -31    2.61    0.84
   4   8 -31   -1.78    0.78
   5   8 -31   -1.74    0.83
   6   8 -31    0.12    0.91
   7   8 -31    2.85    1.16
   8   8 -31   -0.23    0.97
   9   8 -31    1.42    1.10
   0   9 -31    1.18    0.93
   1   9 -31    3.95    1.05
  -1   9 -31    3.15    1.01
   2   9 -31    5.55    1.16
  -2   9 -31    6.43    1.10
   3   9 -31    1.94    1.00
  -3   9 -31    3.54    0.95
   4   9 -31    1.14    0.97
   5   9 -31    0.55    0.94
   6   9 -31    0.27    0.95
   7   9 -31    1.38    1.05
   8   9 -31   -0.23    0.96
   0  10 -31    2.90    1.05
   1  10 -31   -0.42    0.93
  -1  10 -31    0.91    0.91
   2  10 -31   -0.20    0.92
  -2  10 -31   -0.86    0.82
   3  10 -31    1.72    1.01
  -3  10 -31   -0.06    0.81
   4  10 -31    1.27    0.96
   5  10 -31    0.84    0.97
   6  10 -31    1.27    1.02
   7  10 -31   -1.10    0.94
   8  10 -31    3.16    1.25
   0  11 -31    7.24    1.28
   1  11 -31    0.74    0.97
  -1  11 -31   -0.20    0.94
   2  11 -31    5.18    1.19
  -2  11 -31    3.85    1.07
   3  11 -31    0.87    0.97
  -3  11 -31    1.93    0.96
   4  11 -31    3.52    1.12
   5  11 -31    0.83    1.02
   6  11 -31    0.23    0.98
   7  11 -31    0.68    1.02
   0  12 -31   -0.62    0.95
   1  12 -31   -0.97    0.87
  -1  12 -31    0.97    0.96
   2  12 -31   -0.74    0.96
  -2  12 -31   -0.99    0.87
   3  12 -31    1.09    1.02
  -3  12 -31    3.31    1.01
   4  12 -31    0.93    1.03
   5  12 -31    1.06    1.05
   6  12 -31    4.59    1.25
   7  12 -31    4.12    1.29
   0  13 -31    1.20    0.98
   1  13 -31    6.59    1.29
  -1  13 -31    4.40    1.20
   2  13 -31    0.23    1.04
  -2  13 -31    0.39    0.96
   3  13 -31    1.15    1.14
  -3  13 -31    0.37    0.93
   4  13 -31   -0.10    1.03
   5  13 -31    0.79    1.09
   6  13 -31    0.65    1.08
   0  14 -31   -0.68    0.90
   1  14 -31    0.16    1.01
  -1  14 -31    1.48    0.99
   2  14 -31   -0.43    1.06
  -2  14 -31   -0.66    0.94
   3  14 -31   -0.32    0.99
  -3  14 -31   -0.02    0.96
   4  14 -31    0.85    1.09
   5  14 -31    4.53    1.36
   6  14 -31    1.02    1.14
   0  15 -31    4.64    1.29
   1  15 -31    1.55    1.10
  -1  15 -31    2.71    1.18
   2  15 -31   -1.26    1.00
  -2  15 -31    1.47    1.09
   3  15 -31   -0.25    1.07
  -3  15 -31    0.85    1.08
   4  15 -31    4.08    1.30
   5  15 -31    0.04    1.14
   0  16 -31    1.29    1.07
   1  16 -31    0.02    1.04
  -1  16 -31   -0.51    1.04
   2  16 -31    0.01    1.09
  -2  16 -31   -0.57    0.95
   3  16 -31    2.23    1.19
  -3  16 -31    1.94    1.12
   4  16 -31    0.32    1.10
   0  17 -31    1.20    1.12
   1  17 -31   -0.52    1.05
  -1  17 -31   -0.04    1.12
   2  17 -31    3.68    1.30
  -2  17 -31    4.12    1.27
   0   0 -32    4.63    0.92
  -1   0 -32    7.38    1.00
   1   0 -32    6.90    1.06
   2   0 -32    7.82    1.16
  -2   0 -32    7.09    0.96
   3   0 -32    1.24    0.84
   4   0 -32    0.82    0.88
   5   0 -32    5.56    1.16
   6   0 -32    0.01    0.89
   7   0 -32    1.12    0.94
   8   0 -32    1.96    1.02
   9   0 -32    2.34    1.11
   0   1 -32    8.17    1.13
   0  -1 -32   10.35    1.18
   1   1 -32    5.82    1.00
  -1  -1 -32    5.82    0.92
  -1   1 -32    5.61    0.95
   1  -1 -32    6.37    1.06
  -2  -1 -32   -0.03    0.65
   2   1 -32    0.39    0.79
   2  -1 -32    0.06    0.78
  -2   1 -32   -0.19    0.67
   3   1 -32    4.60    1.04
   3  -1 -32    5.07    1.06
   4   1 -32    7.55    1.22
   4  -1 -32    5.92    1.16
   5   1 -32    2.33    0.97
   5  -1 -32    2.13    0.95
   6   1 -32    1.61    0.99
   6  -1 -32    3.78    1.06
   7   1 -32    2.46    1.01
   7  -1 -32    1.53    0.94
   8   1 -32    5.01    1.20
   8  -1 -32    3.32    1.09
   9   1 -32   -0.49    0.97
   9  -1 -32   -1.83    0.93
   0   2 -32    6.26    1.08
   0  -2 -32    5.72    0.99
   1   2 -32    8.91    1.17
  -1  -2 -32    7.32    1.01
  -1   2 -32    8.01    1.10
   1  -2 -32    7.15    1.11
   2   2 -32    0.40    0.86
  -2  -2 -32   -0.29    0.64
  -2   2 -32    0.21    0.70
   2  -2 -32   -1.21    0.71
   3   2 -32    8.74    1.24
   3  -2 -32    9.44    1.25
   4   2 -32    1.23    0.99
   4  -2 -32    2.41    1.01
   5   2 -32   -1.11    0.85
   5  -2 -32    1.34    0.88
   6   2 -32    2.85    1.06
   6  -2 -32    1.57    0.95
   7   2 -32    1.77    1.02
   7  -2 -32    1.77    0.92
   8   2 -32   -0.45    0.85
   8  -2 -32    0.71    0.94
   9   2 -32    0.18    0.99
   9  -2 -32   -0.88    0.92
   0   3 -32    1.01    0.83
   0  -3 -32    2.34    0.82
  -1  -3 -32    0.14    0.72
   1   3 -32    0.50    0.78
   1  -3 -32    1.17    0.79
  -1   3 -32    0.81    0.79
   2   3 -32    8.68    1.24
  -2   3 -32   10.09    1.10
   2  -3 -32   11.11    1.30
   3   3 -32    0.06    0.81
   3  -3 -32    0.54    0.84
   4   3 -32   -0.41    0.84
   4  -3 -32   -0.36    0.79
   5   3 -32    2.33    1.01
   5  -3 -32    3.15    1.04
   6   3 -32    2.64    1.04
   6  -3 -32    1.40    0.92
   7   3 -32    0.84    0.96
   7  -3 -32    0.90    0.91
   8   3 -32   -0.38    0.92
   8  -3 -32   -0.68    0.88
   9   3 -32    4.04    1.18
   9  -3 -32    2.74    1.09
   0   4 -32   -0.84    0.69
   0  -4 -32   -0.43    0.68
   1   4 -32    3.67    0.97
  -1   4 -32    3.74    0.87
   1  -4 -32    4.49    0.94
   2   4 -32    1.09    0.82
  -2   4 -32    0.24    0.74
   2  -4 -32    2.03    0.88
   3   4 -32    3.38    1.00
   3  -4 -32    3.48    0.97
   4   4 -32    2.21    1.02
   4  -4 -32    3.67    1.02
   5   4 -32    1.85    1.04
   5  -4 -32    0.08    0.90
   6   4 -32   -1.02    0.83
   6  -4 -32    0.39    0.83
   7   4 -32   -0.08    0.90
   7  -4 -32    0.54    0.92
   8   4 -32    2.20    1.08
   8  -4 -32    1.48    1.06
   9   4 -32    0.13    1.02
   9  -4 -32   -0.80    0.94
   0   5 -32    0.74    0.83
   1   5 -32    2.12    0.91
   1  -5 -32    1.40    0.82
  -1   5 -32    2.17    0.89
   2   5 -32    0.05    0.80
   2  -5 -32    0.95    0.78
  -2   5 -32    0.26    0.76
   3   5 -32    3.78    1.08
   3  -5 -32    4.96    1.02
   4   5 -32    3.37    1.03
   4  -5 -32    1.79    0.91
   5   5 -32   -1.50    0.78
   5  -5 -32    0.67    0.88
   6   5 -32    1.52    0.97
   6  -5 -32    0.34    0.86
   7   5 -32    1.22    0.99
   7  -5 -32    2.89    1.04
   8   5 -32   -0.19    0.92
   8  -5 -32    1.53    0.98
   9   5 -32    2.19    1.14
   9  -5 -32    1.32    1.05
   0   6 -32    0.73    0.80
   1   6 -32    0.44    0.85
  -1   6 -32    1.15    0.82
   2   6 -32    3.81    1.07
  -2   6 -32    4.43    0.91
   3   6 -32    0.81    0.89
   3  -6 -32    0.62    0.83
   4   6 -32   -0.03    0.86
   4  -6 -32    1.35    0.86
   5   6 -32   -0.89    0.83
   5  -6 -32    0.68    0.86
   6   6 -32    0.89    0.98
   6  -6 -32    0.79    0.91
   7   6 -32    0.99    1.00
   7  -6 -32    2.24    0.99
   8   6 -32    0.75    1.01
   8  -6 -32    0.70    0.96
   9   6 -32    0.08    1.02
   9  -6 -32   -0.08    0.94
   0   7 -32   -0.34    0.72
   1   7 -32    2.82    0.91
  -1   7 -32    3.16    0.95
   2   7 -32    4.59    1.12
  -2   7 -32    5.09    0.99
   3   7 -32    1.83    0.98
   4   7 -32    1.07    0.94
   5   7 -32    2.82    1.08
   6   7 -32    3.08    1.12
   7   7 -32   -0.71    0.92
   8   7 -32   -0.19    0.93
   9   7 -32   -0.25    0.94
   0   8 -32   -0.90    0.81
   1   8 -32    2.17    1.00
  -1   8 -32    1.24    0.96
   2   8 -32    3.80    1.10
  -2   8 -32    2.60    0.92
   3   8 -32    1.48    0.96
   4   8 -32   -0.44    0.86
   5   8 -32    1.00    0.93
   6   8 -32    0.96    1.01
   7   8 -32   -0.60    0.98
   8   8 -32   -0.34    0.97
   0   9 -32    5.27    1.13
   1   9 -32    0.70    0.85
  -1   9 -32    0.82    0.89
   2   9 -32    1.08    0.92
  -2   9 -32    0.30    0.84
   3   9 -32   -0.26    0.94
   4   9 -32    2.73    1.04
   5   9 -32    0.69    0.93
   6   9 -32    0.49    0.97
   7   9 -32   -0.75    0.94
   8   9 -32    0.54    1.06
   0  10 -32   -1.63    0.77
   1  10 -32    4.53    1.15
  -1  10 -32    3.50    1.06
   2  10 -32    0.07    0.90
  -2  10 -32   -0.26    0.85
   3  10 -32    0.22    0.95
  -3  10 -32    0.95    0.85
   4  10 -32   -0.04    0.92
   5  10 -32    1.33    1.01
   6  10 -32   -0.24    0.96
   7  10 -32    0.88    1.08
   0  11 -32    0.47    0.95
   1  11 -32    2.86    1.08
  -1  11 -32    2.62    1.02
   2  11 -32    5.58    1.20
  -2  11 -32    2.50    1.01
   3  11 -32    2.70    1.08
  -3  11 -32    0.42    0.90
   4  11 -32    1.97    1.04
   5  11 -32    0.87    1.04
   6  11 -32   -0.29    0.98
   7  11 -32   -1.15    0.98
   0  12 -32   -0.08    0.93
   1  12 -32    0.64    0.98
  -1  12 -32    2.32    1.07
   2  12 -32    0.17    1.02
  -2  12 -32    0.14    0.93
   3  12 -32    2.47    1.19
  -3  12 -32    4.01    1.11
   4  12 -32    0.96    1.10
   5  12 -32   -0.09    0.97
   6  12 -32    0.58    1.10
   0  13 -32   -1.50    0.95
   1  13 -32   -0.62    0.96
  -1  13 -32   -1.33    0.93
   2  13 -32    3.01    1.17
  -2  13 -32    1.03    1.01
   3  13 -32   -0.26    0.98
  -3  13 -32    0.15    0.94
   4  13 -32    0.83    1.06
   5  13 -32   -1.76    0.93
   6  13 -32    0.50    1.14
   0  14 -32    0.89    1.05
   1  14 -32   -2.14    0.89
  -1  14 -32   -0.13    1.00
   2  14 -32    0.20    1.09
  -2  14 -32    0.84    1.03
   3  14 -32    1.53    1.19
  -3  14 -32   -2.14    0.88
   4  14 -32   -0.21    1.03
   5  14 -32   -0.79    1.11
   0  15 -32    1.95    1.17
   1  15 -32   -0.15    1.02
  -1  15 -32    0.37    1.08
   2  15 -32   -0.61    1.03
  -2  15 -32   -1.00    0.97
   3  15 -32   -0.47    1.09
  -3  15 -32    1.99    1.09
   4  15 -32    0.00    1.15
   0  16 -32   -0.56    1.06
   1  16 -32   -1.64    0.94
  -1  16 -32    0.42    1.10
   2  16 -32   -0.47    1.11
  -2  16 -32    1.07    1.15
   3  16 -32    1.29    1.17
  -3  16 -32   -0.37    1.02
   0   0 -33   -0.06    0.73
   1   0 -33    3.07    0.92
  -1   0 -33    2.03    0.79
   2   0 -33    0.93    0.87
  -2   0 -33   -0.49    0.68
   3   0 -33    0.17    0.86
   4   0 -33    4.16    1.06
   5   0 -33    0.18    0.87
   6   0 -33    0.91    0.94
   7   0 -33    0.86    0.94
   8   0 -33   -0.37    0.92
   9   0 -33    1.01    1.00
   0   1 -33    2.06    0.83
   0  -1 -33    2.04    0.83
   1   1 -33    0.22    0.79
  -1  -1 -33    0.99    0.74
   1  -1 -33    0.73    0.76
  -1   1 -33    0.03    0.71
  -2  -1 -33    1.99    0.78
   2   1 -33    2.56    0.97
   2  -1 -33   -0.01    0.79
  -2   1 -33    2.18    0.76
   3   1 -33    0.57    0.88
   3  -1 -33    2.67    0.93
   4   1 -33   -0.21    0.85
   4  -1 -33   -0.24    0.81
   5   1 -33    0.88    0.92
   5  -1 -33    0.63    0.89
   6   1 -33    1.55    0.93
   6  -1 -33    0.16    0.90
   7   1 -33    0.71    0.90
   7  -1 -33    0.25    0.89
   8   1 -33   -1.93    0.81
   8  -1 -33    0.10    0.97
   9   1 -33   -0.04    0.94
   9  -1 -33   -0.02    1.00
   0   2 -33    3.55    0.94
   0  -2 -33    2.63    0.87
  -1  -2 -33   -0.10    0.74
   1   2 -33   -0.17    0.75
  -1   2 -33   -0.17    0.72
   1  -2 -33   -0.16    0.75
   2   2 -33    0.64    0.91
  -2  -2 -33    1.46    0.72
  -2   2 -33    0.88    0.74
   2  -2 -33    0.93    0.89
   3   2 -33    1.02    0.97
   3  -2 -33   -1.62    0.69
   4   2 -33    1.99    0.98
   4  -2 -33    1.66    0.91
   5   2 -33    0.18    0.88
   5  -2 -33    0.03    0.84
   6   2 -33   -0.15    0.88
   6  -2 -33    1.30    0.95
   7   2 -33   -0.73    0.92
   7  -2 -33    1.55    0.97
   8   2 -33   -1.69    0.81
   8  -2 -33   -0.91    0.89
   9   2 -33   -1.87    0.88
   9  -2 -33   -1.53    0.86
   0   3 -33    6.78    1.11
   0  -3 -33    6.69    1.03
  -1  -3 -33    0.23    0.68
   1   3 -33    1.18    0.85
  -1   3 -33    1.31    0.78
   1  -3 -33   -0.11    0.75
   2   3 -33    0.44    0.81
  -2   3 -33   -0.54    0.71
   2  -3 -33    1.21    0.85
   3   3 -33    0.47    0.88
   3  -3 -33   -0.58    0.74
   4   3 -33    2.49    0.98
   4  -3 -33    2.83    0.97
   5   3 -33    0.44    0.89
   5  -3 -33    1.61    0.94
   6   3 -33    0.82    0.94
   6  -3 -33   -0.04    0.89
   7   3 -33    0.41    0.97
   7  -3 -33    0.33    0.88
   8   3 -33    1.23    1.09
   8  -3 -33   -0.27    0.95
   9   3 -33   -0.73    1.02
   9  -3 -33    2.03    1.07
   0  -4 -33   -1.07    0.68
   0   4 -33   -0.88    0.74
   1   4 -33    4.74    1.01
   1  -4 -33    4.81    0.99
  -1   4 -33    6.10    1.01
   2   4 -33    2.33    0.91
   2  -4 -33    2.48    0.92
  -2   4 -33    1.99    0.81
   3   4 -33    1.44    0.92
   3  -4 -33    3.81    0.98
   4   4 -33    0.66    0.91
   4  -4 -33    0.54    0.84
   5   4 -33    1.83    0.97
   5  -4 -33    2.89    0.99
   6   4 -33    1.67    0.99
   6  -4 -33    0.67    0.91
   7   4 -33    1.08    1.00
   7  -4 -33    0.94    0.91
   8   4 -33   -0.04    0.99
   8  -4 -33    0.39    1.01
   9   4 -33    0.40    1.07
   9  -4 -33    0.60    1.00
   0   5 -33    3.14    0.95
   1   5 -33   -1.05    0.76
   1  -5 -33    1.10    0.81
  -1   5 -33    0.84    0.85
   2   5 -33    1.32    0.93
  -2   5 -33    1.72    0.82
   2  -5 -33    3.81    0.93
   3   5 -33    1.05    0.89
   3  -5 -33    2.57    0.92
   4   5 -33    2.29    1.04
   4  -5 -33    1.47    0.91
   5   5 -33   -1.64    0.83
   5  -5 -33    1.23    0.91
   6   5 -33    1.12    0.97
   6  -5 -33    0.98    0.96
   7   5 -33    1.10    1.03
   7  -5 -33    1.00    0.94
   8   5 -33   -1.04    0.93
   8  -5 -33    0.57    0.96
   9   5 -33   -0.32    0.98
   9  -5 -33    0.47    0.96
   0   6 -33    3.67    0.96
   1   6 -33    4.22    1.00
  -1   6 -33    3.49    0.93
   2   6 -33    6.40    1.16
  -2   6 -33    5.95    1.06
   3   6 -33    3.64    1.11
   3  -6 -33    5.72    1.06
   4   6 -33    0.13    0.94
   4  -6 -33   -0.90    0.80
   5   6 -33    0.30    0.91
   5  -6 -33    1.25    0.92
   6   6 -33    0.46    0.96
   6  -6 -33   -0.24    0.91
   7   6 -33    1.93    1.10
   7  -6 -33    0.97    0.98
   8   6 -33    1.07    1.05
   8  -6 -33   -0.71    0.89
   0   7 -33    0.47    0.81
   1   7 -33    1.29    0.92
  -1   7 -33    1.96    0.88
   2   7 -33    2.42    0.97
  -2   7 -33    3.31    0.96
   3   7 -33    0.56    0.88
   4   7 -33    2.34    1.00
   5   7 -33   -0.03    0.96
   6   7 -33    1.44    1.09
   7   7 -33    0.86    1.00
   8   7 -33    3.03    1.19
   0   8 -33    5.08    1.10
   1   8 -33    0.04    0.86
  -1   8 -33    1.10    0.87
   2   8 -33    2.24    0.97
  -2   8 -33    1.10    0.86
   3   8 -33   -1.33    0.77
   4   8 -33    0.40    0.93
   5   8 -33    1.69    0.97
   6   8 -33   -0.39    0.98
   7   8 -33    1.14    1.04
   8   8 -33    0.95    1.16
   0   9 -33    2.12    0.99
   1   9 -33    1.33    0.94
  -1   9 -33   -0.20    0.90
   2   9 -33   -0.65    0.85
  -2   9 -33    0.25    0.87
   3   9 -33    0.06    0.86
   4   9 -33    0.19    0.98
   5   9 -33    0.99    1.06
   6   9 -33    0.06    0.99
   7   9 -33   -0.25    1.02
   0  10 -33   -0.37    0.82
   1  10 -33    4.77    1.19
  -1  10 -33    4.52    1.12
   2  10 -33    1.78    1.07
  -2  10 -33    2.46    0.95
   3  10 -33    1.53    1.02
   4  10 -33   -0.02    0.93
   5  10 -33    0.88    1.04
   6  10 -33    2.30    1.12
   7  10 -33   -1.74    0.96
   0  11 -33    0.76    0.91
   1  11 -33    0.40    1.00
  -1  11 -33   -0.39    0.91
   2  11 -33    0.70    0.99
  -2  11 -33   -0.56    0.89
   3  11 -33    1.18    1.07
   4  11 -33   -0.23    0.95
   5  11 -33    0.44    1.09
   6  11 -33   -1.20    0.96
   0  12 -33    2.03    1.02
   1  12 -33    0.94    1.01
  -1  12 -33    2.33    1.08
   2  12 -33    1.64    1.12
  -2  12 -33    0.45    0.93
   3  12 -33    2.30    1.10
   4  12 -33    1.24    1.10
   5  12 -33    0.61    1.14
   6  12 -33    0.00    1.03
   0  13 -33    0.83    1.06
   1  13 -33    0.01    1.04
  -1  13 -33   -1.45    0.93
   2  13 -33   -0.07    1.02
  -2  13 -33    0.03    0.99
   3  13 -33    0.18    1.02
   4  13 -33    1.47    1.12
   5  13 -33   -0.16    1.07
   0  14 -33    2.28    1.17
   1  14 -33    1.63    1.11
  -1  14 -33    0.26    0.99
   2  14 -33    5.24    1.31
  -2  14 -33    3.65    1.20
   3  14 -33    0.20    1.07
   4  14 -33    1.24    1.18
   0  15 -33   -0.97    0.99
   1  15 -33   -1.15    1.00
  -1  15 -33    0.09    1.06
   2  15 -33   -0.42    1.06
  -2  15 -33   -0.10    1.04
   3  15 -33    1.38    1.15
   0  16 -33    1.05    1.16
   0   0 -34    0.65    0.78
   1   0 -34   -1.24    0.73
  -1   0 -34    0.56    0.74
  -2   0 -34    2.84    0.84
   2   0 -34    4.47    1.00
   3   0 -34    7.33    1.21
   4   0 -34    0.29    0.83
   5   0 -34   -0.53    0.84
   6   0 -34    0.54    0.94
   7   0 -34    7.18    1.34
   8   0 -34   -1.08    0.93
   9   0 -34    0.50    1.01
   0  -1 -34    0.33    0.78
   0   1 -34   -0.27    0.74
  -1  -1 -34    6.98    0.99
   1   1 -34    5.28    1.03
  -1   1 -34    4.19    0.95
   1  -1 -34    7.38    1.13
   2   1 -34    6.26    1.13
  -2  -1 -34    6.38    0.98
   2  -1 -34    6.11    1.10
  -2   1 -34    5.51    0.95
   3   1 -34    3.20    1.01
   3  -1 -34    3.74    1.07
   4   1 -34    0.25    0.89
   4  -1 -34    0.09    0.83
   5   1 -34    2.77    1.04
   5  -1 -34    0.78    0.88
   6   1 -34    2.15    1.01
   6  -1 -34    1.08    0.96
   7   1 -34    1.27    1.01
   7  -1 -34    2.57    1.10
   8   1 -34   -0.22    0.97
   8  -1 -34   -2.30    0.82
   9   1 -34    0.42    0.99
   9  -1 -34   -0.36    0.98
   0   2 -34    3.41    0.95
   0  -2 -34    3.06    0.91
  -1  -2 -34    3.98    0.87
   1   2 -34    2.58    0.95
   1  -2 -34    2.50    0.93
  -1   2 -34    4.15    0.92
   2   2 -34    1.37    0.94
   2  -2 -34    0.54    0.79
  -2   2 -34    0.22    0.74
   3   2 -34    0.07    0.91
   3  -2 -34    0.76    0.92
   4   2 -34    2.14    0.99
   4  -2 -34    0.65    0.88
   5   2 -34    2.40    1.04
   5  -2 -34    2.55    1.01
   6   2 -34    1.54    1.01
   6  -2 -34    1.35    1.00
   7   2 -34    0.29    0.97
   7  -2 -34    0.27    0.91
   8   2 -34    3.03    1.16
   8  -2 -34    2.82    1.12
   0  -3 -34   10.60    1.22
   0   3 -34   10.03    1.26
  -1  -3 -34    2.48    0.81
   1   3 -34    1.29    0.90
   1  -3 -34    1.38    0.86
  -1   3 -34    2.99    0.88
   2   3 -34    2.44    0.96
  -2   3 -34    1.57    0.83
   2  -3 -34    1.21    0.89
   3   3 -34    1.12    0.89
   3  -3 -34    0.05    0.80
   4   3 -34    6.52    1.22
   4  -3 -34    6.84    1.22
   5   3 -34    0.49    0.95
   5  -3 -34    2.56    1.06
   6   3 -34   -0.17    0.97
   6  -3 -34    0.30    0.92
   7   3 -34   -1.29    0.90
   7  -3 -34    0.28    0.93
   8   3 -34    0.12    1.04
   8  -3 -34   -0.09    0.97
   0   4 -34    0.38    0.83
   0  -4 -34    1.11    0.79
   1   4 -34    0.25    0.83
   1  -4 -34    0.72    0.78
  -1   4 -34    1.03    0.85
   2   4 -34    0.73    0.89
  -2   4 -34    1.74    0.80
   2  -4 -34   -0.27    0.83
   3   4 -34    0.59    0.86
   3  -4 -34   -0.46    0.77
   4   4 -34    1.96    1.04
   4  -4 -34   -0.45    0.82
   5   4 -34   -0.17    0.89
   5  -4 -34    1.49    0.94
   6   4 -34    1.26    1.03
   6  -4 -34    3.28    1.12
   7   4 -34   -1.22    0.89
   7  -4 -34   -1.38    0.88
   8   4 -34    1.27    1.08
   8  -4 -34   -0.84    0.97
   0   5 -34    0.85    0.85
   1   5 -34    2.66    1.00
  -1   5 -34    5.53    1.05
   2   5 -34    1.82    0.94
   2  -5 -34    1.46    0.85
  -2   5 -34    2.55    0.83
   3   5 -34   -0.20    0.87
   3  -5 -34    0.71    0.85
   4   5 -34    0.06    0.94
   4  -5 -34    0.31    0.84
   5   5 -34    1.72    1.04
   5  -5 -34    0.31    0.86
   6   5 -34    0.62    1.03
   6  -5 -34    2.02    1.02
   7   5 -34    0.96    1.07
   7  -5 -34   -0.02    0.95
   8   5 -34   -0.12    1.08
   8  -5 -34    0.40    1.01
   0   6 -34    1.90    0.90
   1   6 -34    0.01    0.82
  -1   6 -34   -0.46    0.78
   2   6 -34    0.84    0.93
  -2   6 -34    1.02    0.85
   3   6 -34   -0.19    0.88
   4   6 -34    1.01    0.95
   4  -6 -34    0.86    0.88
   5   6 -34    1.29    1.01
   5  -6 -34    2.61    1.01
   6   6 -34    0.10    1.01
   6  -6 -34    0.65    0.93
   7   6 -34    0.15    0.93
   7  -6 -34    0.83    0.99
   8   6 -34   -0.05    1.04
   8  -6 -34    2.33    1.12
   0   7 -34    2.55    0.93
   1   7 -34    3.30    1.04
  -1   7 -34    0.60    0.87
   2   7 -34   -1.69    0.82
  -2   7 -34   -0.90    0.72
   3   7 -34    2.18    0.99
   4   7 -34    0.24    0.90
   5   7 -34    0.42    0.94
   6   7 -34    0.20    0.97
   7   7 -34   -0.01    1.05
   8   7 -34    0.64    1.09
   0   8 -34    1.06    0.91
   1   8 -34    1.67    0.96
  -1   8 -34    0.37    0.84
   2   8 -34    1.28    0.95
  -2   8 -34    1.89    0.86
   3   8 -34    1.23    0.94
   4   8 -34   -0.10    0.94
   5   8 -34    0.96    1.05
   6   8 -34    1.32    1.08
   7   8 -34    1.11    1.05
   0   9 -34   -1.70    0.82
   1   9 -34   -1.03    0.84
  -1   9 -34   -0.35    0.85
   2   9 -34    3.74    1.11
  -2   9 -34    4.41    1.02
   3   9 -34    1.63    1.05
   4   9 -34   -0.24    0.93
   5   9 -34    0.26    0.97
   6   9 -34    1.08    1.06
   7   9 -34    1.22    1.11
   0  10 -34   -0.04    0.92
   1  10 -34   -0.01    0.95
  -1  10 -34    2.01    0.99
   2  10 -34    0.55    1.00
  -2  10 -34    1.93    0.94
   3  10 -34   -0.56    0.97
   4  10 -34   -0.32    0.92
   5  10 -34    1.03    1.06
   6  10 -34    2.57    1.14
   0  11 -34    2.23    1.06
   1  11 -34   -1.00    0.93
  -1  11 -34    0.65    0.96
   2  11 -34   -0.25    0.97
  -2  11 -34   -0.04    0.93
   3  11 -34    0.00    0.98
   4  11 -34    2.13    1.14
   5  11 -34    1.55    1.07
   6  11 -34   -0.27    1.03
   0  12 -34    1.24    1.05
   1  12 -34    2.78    1.12
  -1  12 -34    2.74    1.10
   2  12 -34    0.90    1.02
  -2  12 -34    0.29    0.93
   3  12 -34    1.78    1.08
   4  12 -34    1.90    1.19
   5  12 -34    1.08    1.06
   0  13 -34    0.56    1.01
   1  13 -34    0.71    1.03
  -1  13 -34   -1.62    0.95
   2  13 -34    1.24    1.08
  -2  13 -34   -0.88    0.94
   3  13 -34   -0.31    1.03
   4  13 -34    1.53    1.12
   0  14 -34    1.65    1.07
   1  14 -34    1.62    1.09
  -1  14 -34    0.25    1.07
   2  14 -34    0.58    1.05
  -2  14 -34    0.59    1.04
   3  14 -34    1.23    1.17
   0  15 -34   -2.20    1.00
   1  15 -34   -0.09    1.05
  -1  15 -34   -0.26    1.05
   0   0 -35   -0.17    0.75
   1   0 -35   -0.27    0.79
  -1   0 -35   -0.55    0.70
   2   0 -35   -1.37    0.80
   3   0 -35   -0.76    0.75
   4   0 -35   -0.54    0.80
   5   0 -35   -0.17    0.86
   6   0 -35    2.37    1.07
   7   0 -35   -1.44    0.86
   8   0 -35    0.05    0.98
   0  -1 -35    1.01    0.79
   0   1 -35    0.09    0.82
   1   1 -35    1.00    0.85
  -1  -1 -35    0.36    0.78
  -1   1 -35   -0.99    0.70
   1  -1 -35    0.71    0.85
   2   1 -35    0.80    0.90
   2  -1 -35   -0.43    0.79
   3   1 -35    0.81    0.85
   3  -1 -35    0.70    0.83
   4   1 -35    1.63    0.93
   4  -1 -35    1.42    0.98
   5   1 -35    0.28    0.93
   5  -1 -35    1.97    0.99
   6   1 -35   -0.79    0.86
   6  -1 -35    0.35    0.94
   7   1 -35   -1.34    0.91
   7  -1 -35   -1.65    0.88
   8   1 -35    1.67    1.12
   8  -1 -35   -1.69    0.85
   0  -2 -35    1.14    0.77
   0   2 -35    0.67    0.86
  -1  -2 -35    1.82    0.85
   1   2 -35    1.80    0.95
  -1   2 -35    3.30    0.91
   1  -2 -35    3.40    0.95
   2   2 -35    0.38    0.91
   2  -2 -35    0.37    0.86
   3   2 -35    1.18    0.89
   3  -2 -35    1.98    0.91
   4   2 -35    0.39    0.88
   4  -2 -35    1.47    0.94
   5   2 -35    1.41    0.98
   5  -2 -35    2.74    1.04
   6   2 -35   -0.36    0.88
   6  -2 -35    1.02    0.97
   7   2 -35   -1.39    0.86
   7  -2 -35   -0.63    0.93
   8   2 -35   -1.64    0.89
   8  -2 -35   -0.27    0.92
   0   3 -35    4.29    1.03
   0  -3 -35    4.52    0.94
   1   3 -35    1.31    0.87
  -1  -3 -35    1.91    0.81
   1  -3 -35    0.75    0.88
  -1   3 -35    1.03    0.81
   2   3 -35   -0.21    0.88
   2  -3 -35   -0.01    0.80
   3   3 -35    2.16    0.96
   3  -3 -35    3.80    1.00
   4   3 -35    0.58    0.95
   4  -3 -35    1.83    0.96
   5   3 -35    1.77    1.03
   5  -3 -35   -0.36    0.85
   6   3 -35   -0.73    0.90
   6  -3 -35    0.30    0.91
   7   3 -35   -0.73    0.94
   7  -3 -35    0.87    0.99
   8   3 -35   -0.17    1.00
   8  -3 -35   -1.32    0.88
   0  -4 -35   -0.41    0.72
   0   4 -35    0.42    0.82
   1   4 -35    1.68    0.96
   1  -4 -35    0.50    0.81
  -1   4 -35    4.46    0.96
   2   4 -35    3.11    1.03
   2  -4 -35    1.11    0.90
   3   4 -35    2.25    1.04
   3  -4 -35    1.16    0.87
   4   4 -35    0.13    0.92
   4  -4 -35    1.50    0.92
   5   4 -35   -0.42    0.89
   5  -4 -35    1.18    0.95
   6   4 -35    0.55    0.98
   6  -4 -35    1.41    1.00
   7   4 -35    0.99    1.10
   7  -4 -35    0.14    1.01
   8   4 -35    2.06    1.14
   8  -4 -35    1.23    1.12
   0   5 -35   -0.20    0.83
   1   5 -35    2.14    0.93
  -1   5 -35    0.02    0.86
   2   5 -35    7.34    1.26
   2  -5 -35    6.02    1.10
   3   5 -35    0.19    0.89
   3  -5 -35   -0.62    0.81
   4   5 -35   -0.65    0.90
   4  -5 -35    0.03    0.80
   5   5 -35    0.71    0.99
   5  -5 -35    0.42    0.88
   6   5 -35    1.70    1.06
   6  -5 -35    2.90    1.11
   7   5 -35   -0.43    0.97
   7  -5 -35    0.30    0.98
   8   5 -35   -0.04    1.04
   8  -5 -35   -0.58    0.93
   0   6 -35    2.24    0.97
   1   6 -35    2.86    1.04
  -1   6 -35    1.73    0.90
   2   6 -35   -0.18    0.86
  -2   6 -35    0.34    0.77
   3   6 -35    1.99    0.98
   4   6 -35    1.37    0.99
   4  -6 -35    0.85    0.93
   5   6 -35    1.04    0.98
   5  -6 -35    0.22    0.95
   6   6 -35    0.15    0.96
   6  -6 -35    0.48    0.98
   7   6 -35    0.89    1.09
   7  -6 -35    1.26    1.07
   0   7 -35    0.71    0.84
   1   7 -35    2.39    1.02
  -1   7 -35    0.85    0.88
   2   7 -35   -0.43    0.84
  -2   7 -35   -0.13    0.82
   3   7 -35    1.47    1.04
   4   7 -35    2.29    1.07
   5   7 -35   -0.70    0.92
   6   7 -35    1.55    1.04
   7   7 -35   -0.19    0.99
   0   8 -35    1.51    0.94
   1   8 -35    2.68    1.02
  -1   8 -35   -0.04    0.85
   2   8 -35   -0.26    0.96
  -2   8 -35    1.31    0.91
   3   8 -35   -0.10    0.89
   4   8 -35   -0.32    0.91
   5   8 -35    1.83    1.08
   6   8 -35    0.44    1.06
   7   8 -35   -0.59    1.00
   0   9 -35    3.19    1.02
   1   9 -35   -0.81    0.92
  -1   9 -35    0.31    0.89
   2   9 -35    0.84    0.91
  -2   9 -35    0.75    0.85
   3   9 -35    0.93    0.99
   4   9 -35    0.56    0.95
   5   9 -35    0.98    1.06
   6   9 -35   -0.35    0.99
   0  10 -35    0.37    0.96
   1  10 -35    1.47    1.05
  -1  10 -35    2.48    1.02
   2  10 -35   -0.30    0.91
  -2  10 -35    1.99    1.00
   3  10 -35    1.65    1.02
   4  10 -35    0.14    0.96
   5  10 -35   -1.17    0.97
   6  10 -35    3.58    1.31
   0  11 -35    2.02    1.05
   1  11 -35   -0.08    1.00
  -1  11 -35    0.24    0.96
   2  11 -35    0.23    1.05
  -2  11 -35    1.68    0.98
   3  11 -35   -0.21    1.05
   4  11 -35   -1.07    0.92
   5  11 -35   -0.54    0.98
   0  12 -35   -0.61    1.00
   1  12 -35    2.81    1.12
  -1  12 -35   -0.41    0.95
   2  12 -35    0.09    0.99
  -2  12 -35    0.15    1.00
   3  12 -35   -1.64    0.95
   4  12 -35   -0.08    1.03
   0  13 -35   -2.34    0.96
   1  13 -35    1.95    1.11
  -1  13 -35    1.46    1.09
   2  13 -35    0.85    1.07
  -2  13 -35   -1.23    0.93
   3  13 -35   -0.64    1.08
   0  14 -35    2.36    1.12
   1  14 -35   -0.47    1.03
  -1  14 -35   -0.87    1.03
   2  14 -35    0.48    1.09
  -2  14 -35   -1.34    1.01
   0   0 -36    7.93    1.17
   1   0 -36    0.03    0.82
  -1   0 -36   -0.88    0.77
   2   0 -36    1.04    0.92
   3   0 -36    1.25    0.97
   4   0 -36    4.76    1.10
   5   0 -36    1.06    0.99
   6   0 -36   -1.17    0.84
   7   0 -36    1.51    1.09
   8   0 -36    0.09    1.05
   0   1 -36   -0.31    0.81
   0  -1 -36    0.91    0.85
  -1  -1 -36    1.67    0.87
   1   1 -36    3.38    1.00
  -1   1 -36    2.66    0.88
   1  -1 -36    0.43    0.85
   2   1 -36    2.04    0.96
   2  -1 -36    1.29    0.93
   3   1 -36    0.63    0.93
   3  -1 -36   -0.76    0.86
   4   1 -36    0.97    0.92
   4  -1 -36    3.18    1.04
   5   1 -36    0.27    1.00
   5  -1 -36   -0.71    0.91
   6   1 -36    1.00    0.99
   6  -1 -36    1.95    1.03
   7   1 -36   -1.21    0.93
   7  -1 -36   -1.11    0.96
   0  -2 -36    0.82    0.81
   0   2 -36    1.42    0.84
   1   2 -36    6.88    1.17
  -1  -2 -36    5.53    1.00
  -1   2 -36    6.42    1.06
   1  -2 -36   10.43    1.26
   2   2 -36    4.69    1.11
   2  -2 -36    4.29    1.02
   3   2 -36    3.43    1.04
   3  -2 -36    3.92    1.05
   4   2 -36   -1.88    0.85
   4  -2 -36   -0.78    0.87
   5   2 -36   -0.53    0.96
   5  -2 -36    0.36    0.95
   6   2 -36   -0.92    0.86
   6  -2 -36    0.43    0.96
   7   2 -36    0.13    0.99
   7  -2 -36    0.56    1.02
   0  -3 -36    0.95    0.80
   0   3 -36    1.23    0.89
   1   3 -36   -0.71    0.85
  -1  -3 -36   -2.37    0.68
   1  -3 -36   -0.50    0.73
  -1   3 -36    0.35    0.84
   2   3 -36   -0.87    0.89
   2  -3 -36    0.34    0.83
   3   3 -36    2.46    1.08
   3  -3 -36    1.69    0.94
   4   3 -36   -1.07    0.95
   4  -3 -36    0.37    0.87
   5   3 -36   -0.11    0.92
   5  -3 -36   -0.13    0.90
   6   3 -36    0.24    0.97
   6  -3 -36    0.93    1.00
   7   3 -36    2.87    1.15
   7  -3 -36    3.46    1.17
   0   4 -36    1.87    0.92
   1   4 -36    4.01    1.07
   1  -4 -36    4.50    1.03
  -1   4 -36    3.87    0.97
   2   4 -36    1.20    0.95
   2  -4 -36    3.79    1.02
   3   4 -36    2.25    1.05
   3  -4 -36    2.22    0.96
   4   4 -36   -0.32    0.96
   4  -4 -36    0.33    0.85
   5   4 -36   -1.41    0.88
   5  -4 -36   -0.38    0.88
   6   4 -36    1.00    1.04
   6  -4 -36    1.30    1.05
   7   4 -36   -0.26    1.02
   7  -4 -36    1.07    1.04
   0   5 -36   -1.22    0.78
   1   5 -36   -1.03    0.83
  -1   5 -36   -0.20    0.81
   2   5 -36   -0.28    0.90
   2  -5 -36    0.82    0.90
   3   5 -36   -0.31    0.93
   3  -5 -36    0.63    0.86
   4   5 -36    1.26    1.03
   4  -5 -36    1.69    0.98
   5   5 -36   -0.25    0.93
   5  -5 -36   -0.90    0.80
   6   5 -36    1.41    1.09
   6  -5 -36   -0.09    0.99
   7   5 -36    1.80    1.12
   7  -5 -36   -0.40    0.92
   0   6 -36    2.24    0.96
   1   6 -36   -0.85    0.78
  -1   6 -36    0.75    0.82
   2   6 -36    7.54    1.30
   3   6 -36    1.04    0.99
   4   6 -36    1.10    1.00
   5   6 -36    0.33    0.94
   5  -6 -36    0.16    0.86
   6   6 -36    0.78    1.00
   6  -6 -36    0.36    0.96
   7   6 -36   -0.74    0.98
   7  -6 -36    1.00    1.02
   0   7 -36    0.72    0.91
   1   7 -36    0.55    0.88
  -1   7 -36    0.23    0.82
   2   7 -36    0.35    1.00
   3   7 -36    0.89    0.96
   4   7 -36    1.04    1.01
   5   7 -36    0.31    0.95
   6   7 -36    0.89    1.04
   0   8 -36    0.47    0.92
   1   8 -36    0.27    0.88
  -1   8 -36    0.15    0.93
   2   8 -36    0.80    0.94
   3   8 -36    1.90    1.10
   4   8 -36    0.26    1.00
   5   8 -36    0.38    1.05
   6   8 -36    0.75    1.12
   0   9 -36    0.92    0.90
   1   9 -36    0.46    0.94
  -1   9 -36    0.70    0.96
   2   9 -36    0.71    0.94
   3   9 -36   -0.07    1.02
   4   9 -36    0.09    0.97
   5   9 -36    0.47    1.05
   0  10 -36    1.75    1.07
   1  10 -36   -0.23    0.97
  -1  10 -36    0.37    0.94
   2  10 -36   -0.38    0.93
   3  10 -36    1.43    1.03
   4  10 -36    0.22    1.01
   5  10 -36   -1.02    0.97
   0  11 -36    0.35    1.00
   1  11 -36    1.47    1.10
  -1  11 -36   -0.53    0.93
   2  11 -36    0.11    0.97
   3  11 -36    1.71    1.04
   4  11 -36    1.13    1.06
   0  12 -36    0.71    1.04
   1  12 -36   -0.49    0.98
  -1  12 -36   -0.77    0.92
   2  12 -36    1.24    1.07
   3  12 -36    0.75    1.06
   0  13 -36   -0.99    1.03
   1  13 -36   -0.30    1.06
  -1  13 -36    0.90    1.06
   2  13 -36    1.94    1.15
   0   0 -37    1.43    0.84
   1   0 -37    0.08    0.87
  -1   0 -37    0.97    0.84
   2   0 -37   -0.58    0.78
   3   0 -37    1.47    0.94
   4   0 -37    1.15    0.94
   5   0 -37    0.66    0.95
   6   0 -37   -1.53    0.90
   7   0 -37   -1.20    0.93
   0  -1 -37    0.30    0.78
   0   1 -37    0.23    0.84
   1   1 -37   -0.40    0.84
  -1  -1 -37    1.16    0.82
  -1   1 -37   -0.79    0.79
   1  -1 -37    0.81    0.88
   2   1 -37    1.55    0.91
   2  -1 -37   -0.37    0.79
   3   1 -37    1.80    1.01
   3  -1 -37    0.39    0.90
   4   1 -37   -1.09    0.88
   4  -1 -37    1.54    0.95
   5   1 -37    0.38    0.94
   5  -1 -37   -0.31    0.91
   6   1 -37    0.64    1.02
   6  -1 -37   -0.99    0.91
   7   1 -37   -0.97    0.95
   7  -1 -37   -0.21    0.99
   0  -2 -37    0.44    0.80
   0   2 -37    0.45    0.83
  -1  -2 -37    0.03    0.76
   1   2 -37    0.90    0.91
  -1   2 -37    0.45    0.79
   1  -2 -37    0.78    0.88
   2   2 -37    1.58    0.96
   2  -2 -37    2.16    0.98
   3   2 -37   -0.36    0.84
   3  -2 -37   -0.72    0.85
   4   2 -37   -1.32    0.80
   4  -2 -37    0.59    0.89
   5   2 -37    0.44    0.95
   5  -2 -37    0.34    0.99
   6   2 -37   -1.42    0.93
   6  -2 -37    1.16    1.06
   7   2 -37   -0.82    0.93
   7  -2 -37   -0.92    0.93
   0   3 -37   -0.54    0.83
   0  -3 -37    1.60    0.82
   1   3 -37   -0.43    0.91
   1  -3 -37   -0.63    0.83
  -1   3 -37    0.18    0.78
   2   3 -37    1.00    0.99
   2  -3 -37    1.93    0.95
   3   3 -37   -0.35    0.94
   3  -3 -37    0.61    0.93
   4   3 -37    0.23    0.93
   4  -3 -37   -1.17    0.85
   5   3 -37    0.67    0.98
   5  -3 -37   -0.07    0.89
   6   3 -37    0.60    1.03
   6  -3 -37    1.22    1.04
   7   3 -37    0.45    1.04
   7  -3 -37   -0.19    0.98
   0   4 -37    4.08    1.06
   1   4 -37    3.23    1.04
   1  -4 -37    2.31    0.97
  -1   4 -37    1.90    0.97
   2   4 -37   -0.10    0.94
   2  -4 -37   -0.76    0.78
   3   4 -37    1.09    0.99
   3  -4 -37    1.30    0.95
   4   4 -37    1.38    1.06
   4  -4 -37    1.33    0.95
   5   4 -37   -0.39    0.95
   5  -4 -37    1.57    1.00
   6   4 -37   -0.17    1.08
   6  -4 -37    0.91    0.98
   7   4 -37   -0.96    0.98
   7  -4 -37   -1.09    0.94
   0   5 -37    2.74    1.03
   1   5 -37    1.01    0.93
  -1   5 -37   -0.71    0.77
   2   5 -37   -0.69    0.84
   2  -5 -37    0.69    0.88
   3   5 -37   -0.45    0.93
   3  -5 -37    1.65    0.94
   4   5 -37    1.80    1.02
   4  -5 -37    2.11    1.02
   5   5 -37    0.87    1.01
   5  -5 -37   -1.04    0.84
   6   5 -37   -0.91    0.96
   6  -5 -37    0.04    0.89
   0   6 -37    0.98    0.94
   1   6 -37    2.61    1.03
  -1   6 -37    1.94    0.90
   2   6 -37   -0.13    0.88
   3   6 -37    1.81    0.99
   4   6 -37   -0.55    0.91
   5   6 -37    1.43    1.06
   5  -6 -37    0.61    0.97
   6   6 -37   -1.61    0.89
   6  -6 -37   -1.42    0.94
   0   7 -37    0.43    0.91
   1   7 -37    1.38    1.01
  -1   7 -37   -0.20    0.84
   2   7 -37    0.78    1.00
   3   7 -37    0.68    1.04
   4   7 -37    0.45    0.99
   5   7 -37   -0.98    0.95
   6   7 -37    2.35    1.14
   0   8 -37    0.34    0.92
   1   8 -37   -0.13    0.89
  -1   8 -37    0.15    0.88
   2   8 -37    0.23    1.03
   3   8 -37   -0.39    0.93
   4   8 -37   -0.29    0.97
   5   8 -37   -2.87    0.84
   0   9 -37    0.39    0.89
   1   9 -37   -0.14    0.97
  -1   9 -37    0.40    0.92
   2   9 -37    3.03    1.17
   3   9 -37    1.19    1.04
   4   9 -37    1.69    1.10
   5   9 -37    0.71    1.13
   0  10 -37    0.27    0.98
   1  10 -37   -0.89    0.95
  -1  10 -37    0.25    0.93
   2  10 -37    0.97    1.07
   3  10 -37    0.09    1.00
   4  10 -37    1.10    1.14
   0  11 -37    0.37    1.01
   1  11 -37    0.40    1.02
  -1  11 -37    0.16    0.97
   2  11 -37    1.21    1.04
   3  11 -37   -0.19    0.98
   0  12 -37   -1.60    0.93
   1  12 -37   -0.43    1.02
  -1  12 -37   -0.61    0.96
   2  12 -37    1.01    1.12
   0   0 -38    0.41    0.82
   1   0 -38    1.53    0.97
   2   0 -38    1.10    0.97
   3   0 -38    0.11    0.92
   4   0 -38    0.09    1.00
   5   0 -38    4.55    1.27
   6   0 -38    0.54    1.04
   0  -1 -38    1.88    0.90
   0   1 -38   -0.37    0.79
   1   1 -38    2.36    1.01
   1  -1 -38    2.90    0.95
   2   1 -38   -1.17    0.80
   2  -1 -38    0.91    0.93
   3   1 -38    1.13    0.92
   3  -1 -38    1.01    0.95
   4   1 -38    0.08    0.94
   4  -1 -38    0.47    0.94
   5   1 -38    0.20    1.01
   5  -1 -38    0.04    0.95
   6   1 -38    0.10    0.98
   6  -1 -38   -0.13    0.94
   0  -2 -38    0.95    0.84
   0   2 -38    0.82    0.88
   1   2 -38   -0.44    0.88
   1  -2 -38   -0.70    0.82
   2   2 -38   -0.23    0.90
   2  -2 -38    0.50    0.91
   3   2 -38    1.39    0.94
   3  -2 -38    2.34    0.97
   4   2 -38   -0.04    0.90
   4  -2 -38    0.89    0.98
   5   2 -38   -0.61    0.94
   5  -2 -38    1.34    1.01
   6   2 -38    0.31    1.00
   6  -2 -38    0.81    1.02
   0   3 -38    0.67    0.87
   0  -3 -38    1.95    0.91
   1   3 -38   -0.04    0.92
  -1   3 -38    1.81    0.91
   1  -3 -38    2.36    0.97
   2   3 -38    5.14    1.20
   2  -3 -38    5.30    1.15
   3   3 -38    0.36    0.96
   3  -3 -38    0.28    0.87
   4   3 -38    0.64    0.97
   4  -3 -38    1.35    1.04
   5   3 -38    0.00    0.99
   5  -3 -38    1.73    1.04
   6   3 -38    1.41    1.15
   6  -3 -38    1.11    1.04
   0   4 -38   -0.13    0.88
   1   4 -38   -0.55    0.84
  -1   4 -38    0.43    0.83
   1  -4 -38    1.21    0.90
   2   4 -38    1.20    1.00
   2  -4 -38    0.75    0.90
   3   4 -38   -0.20    0.95
   3  -4 -38    0.48    0.92
   4   4 -38    1.77    1.08
   4  -4 -38    0.80    0.96
   5   4 -38   -0.67    1.05
   5  -4 -38    0.20    1.03
   6   4 -38    0.80    1.08
   6  -4 -38    0.00    0.97
   0   5 -38    0.34    0.91
   1   5 -38    2.54    1.02
  -1   5 -38    0.29    0.83
   2   5 -38   -0.19    0.94
   3   5 -38    1.73    0.99
   3  -5 -38    1.29    1.00
   4   5 -38    0.75    1.00
   4  -5 -38   -0.05    0.93
   5   5 -38    0.00    0.99
   5  -5 -38    1.25    1.02
   6   5 -38   -1.56    0.93
   6  -5 -38    0.93    1.00
   0   6 -38   -1.23    0.85
   1   6 -38   -0.54    0.90
  -1   6 -38   -1.56    0.78
   2   6 -38   -0.80    0.92
   3   6 -38    0.29    0.95
   4   6 -38    0.82    1.06
   5   6 -38   -0.60    0.97
   0   7 -38    0.22    0.92
   1   7 -38    1.83    1.01
  -1   7 -38    1.31    0.90
   2   7 -38    0.32    1.03
   3   7 -38   -0.25    0.95
   4   7 -38    0.19    0.96
   5   7 -38    1.43    1.11
   0   8 -38   -0.13    0.93
   1   8 -38    1.09    1.04
  -1   8 -38   -0.70    0.87
   2   8 -38    1.99    1.10
   3   8 -38    0.39    1.03
   4   8 -38   -0.44    0.98
   0   9 -38    1.96    1.07
   1   9 -38    0.55    1.02
  -1   9 -38   -0.66    0.91
   2   9 -38    0.05    0.97
   3   9 -38   -1.46    0.94
   4   9 -38    0.99    1.14
   0  10 -38    0.38    1.02
   1  10 -38   -1.14    0.94
  -1  10 -38    1.35    0.99
   2  10 -38    0.35    1.05
   3  10 -38   -0.79    0.99
   0  11 -38    0.27    1.03
   1  11 -38    0.44    1.01
  -1  11 -38    0.90    1.00
   0   0 -39   -0.26    0.82
   1   0 -39   -0.61    0.87
   2   0 -39   -1.53    0.87
   3   0 -39    0.22    0.99
   4   0 -39   -0.75    0.89
   5   0 -39   -0.88    0.96
   0   1 -39   -1.19    0.79
   0  -1 -39   -0.19    0.80
   1   1 -39    1.32    0.95
   1  -1 -39   -0.38    0.88
   2   1 -39    1.65    1.02
   2  -1 -39   -0.56    0.90
   3   1 -39   -1.47    0.85
   3  -1 -39    1.00    0.95
   4   1 -39    0.15    0.95
   4  -1 -39    0.12    0.92
   5   1 -39   -1.93    0.92
   5  -1 -39   -0.89    0.96
   0   2 -39    1.20    0.89
   0  -2 -39    1.17    0.88
   1   2 -39    1.36    0.96
   1  -2 -39   -0.48    0.87
   2   2 -39   -0.23    0.94
   2  -2 -39    0.23    0.93
   3   2 -39   -0.08    0.98
   3  -2 -39    0.44    0.99
   4   2 -39    0.47    0.97
   4  -2 -39    1.34    1.02
   5   2 -39   -1.99    0.99
   5  -2 -39    0.37    1.03
   0   3 -39    1.24    0.92
   0  -3 -39    1.84    0.92
   1   3 -39   -0.07    0.90
   1  -3 -39    0.35    0.88
   2   3 -39    0.66    0.92
   2  -3 -39    1.61    1.00
   3   3 -39    0.48    0.99
   3  -3 -39   -1.00    0.84
   4   3 -39    1.08    1.03
   4  -3 -39    0.37    0.94
   5   3 -39   -0.80    0.98
   5  -3 -39   -0.17    1.09
   0   4 -39    0.76    0.93
   1   4 -39    0.74    0.98
   1  -4 -39    0.32    0.89
   2   4 -39    0.97    1.02
   2  -4 -39    1.31    0.90
   3   4 -39    0.39    0.96
   3  -4 -39    1.41    0.95
   4   4 -39    0.42    1.06
   4  -4 -39   -0.12    0.96
   5   4 -39    0.89    1.16
   5  -4 -39    0.55    1.08
   0   5 -39    1.91    0.99
   1   5 -39    0.66    0.95
   2   5 -39    0.60    0.98
   3   5 -39    0.58    0.98
   3  -5 -39    1.22    0.97
   4   5 -39   -0.43    0.96
   4  -5 -39    1.15    1.04
   5   5 -39    0.08    1.03
   5  -5 -39   -0.99    0.89
   0   6 -39   -1.64    0.83
   1   6 -39    0.74    1.00
   2   6 -39    1.54    1.01
   3   6 -39    0.94    1.03
   4   6 -39   -1.27    0.95
   0   7 -39   -0.11    0.90
   1   7 -39    0.92    0.96
   2   7 -39    1.71    1.08
   3   7 -39    1.37    1.03
   4   7 -39    1.47    1.10
   0   8 -39    2.58    1.10
   1   8 -39    0.03    0.98
   2   8 -39    0.03    0.95
   3   8 -39   -0.04    0.98
   0   9 -39   -0.89    0.89
   1   9 -39   -0.96    0.98
   2   9 -39   -1.56    1.00
   0  10 -39   -0.05    1.00
   0   0 -40    1.06    0.88
   1   0 -40    0.20    0.89
   2   0 -40    3.84    1.12
   3   0 -40    0.48    0.93
   4   0 -40    1.48    1.09
   5   0 -40   -0.53    0.98
   0  -1 -40   -1.63    0.81
   0   1 -40    1.48    0.90
   1   1 -40   -0.01    0.90
   1  -1 -40    0.75    0.90
   2   1 -40    1.82    1.03
   2  -1 -40    1.97    0.96
   3   1 -40    1.64    1.00
   3  -1 -40    0.96    0.99
   4   1 -40    1.17    1.05
   4  -1 -40   -0.77    0.96
   5   1 -40   -0.06    1.01
   5  -1 -40   -1.51    0.97
   0  -2 -40    2.17    0.92
   0   2 -40    1.44    0.99
   1   2 -40    1.83    1.00
   1  -2 -40    2.86    1.00
   2   2 -40   -0.90    0.93
   2  -2 -40   -0.97    0.88
   3   2 -40   -0.82    0.97
   3  -2 -40    0.33    0.92
   4   2 -40    0.70    1.07
   4  -2 -40    1.30    0.97
   0  -3 -40    1.38    0.89
   0   3 -40    1.48    1.00
   1   3 -40    1.34    0.98
   1  -3 -40   -0.07    0.83
   2   3 -40    0.86    0.96
   2  -3 -40   -0.79    0.90
   3   3 -40   -0.34    0.97
   3  -3 -40   -0.36    0.94
   4   3 -40   -0.44    0.95
   4  -3 -40    1.48    0.99
   0   4 -40    1.96    0.98
   1   4 -40   -0.09    0.95
   2   4 -40   -0.09    0.89
   2  -4 -40    0.74    0.98
   3   4 -40   -0.53    0.94
   3  -4 -40    0.34    0.88
   4   4 -40   -0.32    1.04
   4  -4 -40   -0.25    0.95
   0   5 -40   -0.44    0.88
   1   5 -40    1.63    1.03
   2   5 -40    0.37    0.98
   3   5 -40   -0.97    0.91
   4   5 -40   -1.55    0.90
   4  -5 -40   -0.09    0.92
   0   6 -40    0.43    0.93
   1   6 -40    0.78    0.99
   2   6 -40    1.10    1.04
   3   6 -40    0.14    1.01
   0   7 -40   -1.18    0.89
   1   7 -40   -1.16    0.91
   2   7 -40   -0.67    0.97
   0   8 -40    2.70    1.09
   1   8 -40    1.32    1.08
   1   0 -41    0.41    0.93
   2   0 -41   -0.17    0.88
   3   0 -41    0.27    0.92
   1   1 -41   -0.33    0.91
   1  -1 -41   -0.49    0.90
   2   1 -41    0.32    0.93
   2  -1 -41    0.47    0.91
   3   1 -41    0.32    0.99
   3  -1 -41   -0.64    0.84
   0   2 -41    0.47    0.90
   1   2 -41   -0.42    0.92
   1  -2 -41   -1.23    0.83
   2   2 -41    0.84    0.96
   2  -2 -41    0.91    0.94
   3   2 -41    1.45    1.05
   3  -2 -41    0.05    0.95
   0   3 -41    0.08    0.90
   1   3 -41    1.48    1.02
   1  -3 -41   -0.22    0.89
   2   3 -41   -0.46    0.94
   2  -3 -41    1.41    0.91
   3   3 -41    1.58    1.10
   3  -3 -41    0.11    0.91
   0   4 -41    0.47    0.93
   1   4 -41   -0.18    0.92
   2   4 -41   -1.46    0.92
   2  -4 -41    0.63    0.96
   3   4 -41    1.73    1.07
   3  -4 -41   -0.03    0.97
   0   5 -41   -0.52    0.92
   1   5 -41    0.44    1.02
   2   5 -41    3.28    1.21
   0   6 -41    0.24    0.96
   1   6 -41   -0.56    0.96
   1   0 -42    0.26    0.93
   2   0 -42    1.18    0.97
   1   1 -42    0.25    0.95
   1  -1 -42    1.55    0.99
   2   1 -42   -1.50    0.93
   2  -1 -42    0.10    0.97
   1   2 -42    1.56    1.05
   1  -2 -42    0.10    0.87
   1   3 -42    1.04    1.00
   1  -3 -42    0.14    0.87
   0   0   0    0.00    0.00
;
_shelx_hkl_checksum              4886
_shelx_fab_checksum              85323
_shelx_fab_file
;
    2    0    0    -67.62      0.20
    4    0    0     24.85      0.04
    6    0    0     -1.44     -0.05
    8    0    0     -4.54     -0.41
   10    0    0      0.05      0.01
   12    0    0      2.37      0.35
    1    1    0     -0.06    -71.59
    2    1    0     40.29     -0.18
    3    1    0     -0.05     40.25
    4    1    0      4.26     -0.13
    5    1    0      0.00      0.91
    6    1    0      3.91      0.02
    7    1    0      0.03     -3.89
    8    1    0     -3.32     -0.31
    9    1    0     -0.10     -2.01
   10    1    0     -1.53      0.02
   11    1    0     -0.03     -0.74
    1    2    0     -0.20     -9.03
    2    2    0    -15.37      0.15
    3    2    0      0.13     27.79
    4    2    0      5.92     -0.02
    5    2    0     -0.04     12.99
    6    2    0     -1.41      0.00
    7    2    0      0.02      8.24
    8    2    0      1.34     -0.10
    9    2    0      0.23      1.92
   10    2    0      2.33      0.07
   11    2    0     -0.24     -0.27
    1    3    0     -0.03    -51.15
    2    3    0     11.52      0.11
    3    3    0      0.04    -12.44
    4    3    0      3.83     -0.19
    5    3    0      0.01     -5.50
    6    3    0      2.83      0.04
    7    3    0      0.02     -0.25
    8    3    0     -1.64     -0.15
    9    3    0     -0.18     -2.37
   10    3    0      3.62     -0.02
   11    3    0     -0.02     -3.23
    1    4    0     -0.15     28.05
    2    4    0     -5.18     -0.11
    3    4    0      0.00     -1.43
    4    4    0     -1.59     -0.05
    5    4    0     -0.14     -2.46
    6    4    0      8.42      0.16
    7    4    0      0.13     -2.95
    8    4    0     -1.11      0.07
    9    4    0      0.16      0.64
   10    4    0      1.87      0.10
   11    4    0     -0.13     -0.75
    1    5    0      0.00     27.31
    2    5    0     -6.27      0.08
    3    5    0     -0.01      5.00
    4    5    0    -15.78     -0.23
    5    5    0     -0.17      2.54
    6    5    0     10.79     -0.14
    7    5    0      0.01      2.44
    8    5    0      1.79      0.27
    9    5    0     -0.06      0.92
   10    5    0      5.44      0.01
   11    5    0      0.12      0.90
    0    6    0      7.02     -0.04
    1    6    0      0.06     -8.25
    2    6    0     21.58     -0.09
    3    6    0     -0.03     13.75
    4    6    0    -12.28     -0.02
    5    6    0     -0.17     -8.89
    6    6    0     -5.26      0.15
    7    6    0      0.00      0.92
    8    6    0     -1.67      0.04
    9    6    0     -0.09      1.65
   10    6    0      3.30      0.01
   11    6    0      0.08      1.88
    1    7    0      0.11      9.22
    2    7    0     -5.70     -0.11
    3    7    0      0.00     20.80
    4    7    0     -0.13      0.01
    5    7    0     -0.05      7.03
    6    7    0     -4.06     -0.06
    7    7    0     -0.06     -3.18
    8    7    0      0.16      0.20
    9    7    0      0.18      2.26
   10    7    0      2.38      0.14
   11    7    0      0.26      3.13
    1    8    0      0.06    -12.34
    2    8    0     11.20     -0.05
    3    8    0      0.03     -8.56
    4    8    0     -0.67      0.03
    5    8    0     -0.11      2.72
    6    8    0      3.12     -0.03
    7    8    0     -0.04      2.67
    8    8    0     -2.69     -0.02
    9    8    0      0.09     -2.09
   10    8    0     -5.18     -0.02
   11    8    0     -0.03      1.23
    1    9    0     -0.03     -2.60
    2    9    0    -10.60     -0.07
    3    9    0     -0.10      3.01
    4    9    0      3.84      0.04
    5    9    0      0.15     -1.37
    6    9    0     -6.04      0.02
    7    9    0     -0.05      5.71
    8    9    0     -0.11      0.06
    9    9    0      0.19      2.08
   10    9    0     -2.88      0.10
   11    9    0      0.03      3.29
    0   10    0     -2.74     -0.05
    1   10    0     -0.21    -13.54
    2   10    0     -9.27     -0.03
    3   10    0      0.02      4.51
    4   10    0      3.35     -0.01
    5   10    0     -0.02     -2.99
    6   10    0      8.29     -0.05
    7   10    0      0.00      4.60
    8   10    0      1.07     -0.16
    9   10    0     -0.01      0.73
   10   10    0     -4.53     -0.07
   11   10    0     -0.04      7.44
    1   11    0     -0.33     -9.36
    2   11    0     -7.64     -0.01
    3   11    0     -0.16      2.01
    4   11    0     -7.63      0.13
    5   11    0      0.07     -0.73
    6   11    0     -0.05      0.03
    7   11    0      0.08      0.88
    8   11    0      1.50      0.02
    9   11    0      0.13     -1.86
   10   11    0      3.70     -0.06
   11   11    0     -0.18      3.73
    0   12    0      6.20      0.10
    1   12    0      0.02      0.94
    2   12    0      1.99     -0.09
    3   12    0     -0.13      0.55
    4   12    0      3.01     -0.07
    5   12    0     -0.03     -1.36
    6   12    0      0.95     -0.09
    7   12    0      0.07      0.47
    8   12    0     -1.29     -0.20
    9   12    0     -0.06     -1.55
   10   12    0      1.17     -0.12
   11   12    0     -0.01      4.79
    1   13    0     -0.26      3.02
    2   13    0      1.24      0.07
    3   13    0     -0.18      2.73
    4   13    0     -1.23      0.05
    5   13    0      0.05      0.28
    6   13    0      0.59      0.05
    7   13    0      0.01      1.70
    8   13    0      0.77      0.02
    9   13    0      0.03     -3.93
   10   13    0      0.29      0.03
   11   13    0     -0.14      0.88
    0   14    0     11.17      0.20
    1   14    0     -0.17      7.20
    2   14    0      0.27     -0.02
    3   14    0      0.11     -0.56
    4   14    0      2.55     -0.21
    5   14    0      0.08      2.84
    6   14    0      1.14      0.03
    7   14    0      0.12      3.73
    8   14    0     -0.28     -0.08
    9   14    0     -0.13     -1.44
   10   14    0      0.06     -0.09
   11   14    0      0.10     -1.49
    1   15    0     -0.21     -3.17
    2   15    0      1.01      0.67
    3   15    0     -0.03      4.75
    4   15    0      2.49     -0.06
    5   15    0      0.04     -0.35
    6   15    0      1.87      0.07
    7   15    0      0.03      0.59
    8   15    0      1.23      0.00
    9   15    0      0.05     -0.22
   10   15    0      5.26      0.00
   11   15    0     -0.05      0.73
    0   16    0      1.22      0.72
    1   16    0     -0.76      0.78
    2   16    0     -0.11     -0.04
    3   16    0      0.10     -2.47
    4   16    0      3.89     -0.18
    5   16    0     -0.08      1.28
    6   16    0      0.66     -0.03
    7   16    0      0.01      3.48
    8   16    0     -2.55     -0.03
    9   16    0     -0.01     -1.76
   10   16    0     -1.74     -0.05
   11   16    0      0.04      0.36
    1   17    0     -0.07     -2.83
    2   17    0     -0.81      1.52
    3   17    0      0.02      2.21
    4   17    0     -2.97     -0.25
    5   17    0      0.05     -0.06
    6   17    0      5.30      0.01
    7   17    0      0.08      2.05
    8   17    0      1.46      0.07
    9   17    0      0.07     -2.94
   10   17    0      3.00     -0.08
   11   17    0     -0.01      0.42
    0   18    0      3.63     -0.88
    1   18    0     -1.07      0.89
    2   18    0      0.27      0.13
    3   18    0      0.12     -0.15
    4   18    0      3.67     -0.26
    5   18    0     -0.06      5.04
    6   18    0     -1.39      0.06
    7   18    0     -0.02      4.69
    8   18    0      0.38     -0.03
    9   18    0      0.14      3.40
   10   18    0      0.61     -0.06
    1   19    0     -0.14      3.61
    2   19    0     -1.30      0.70
    3   19    0      0.06     -3.05
    4   19    0     -1.47     -0.07
    5   19    0      0.15      0.13
    6   19    0     -1.68     -0.01
    7   19    0      0.04     -0.85
    8   19    0      1.71      0.09
    9   19    0      0.16     -3.35
   10   19    0     -1.29      0.01
    0   20    0      2.08     -0.75
    1   20    0     -0.63     -2.20
    2   20    0      1.71      0.01
    3   20    0      0.14     -1.62
    4   20    0     -0.37     -0.03
    5   20    0      0.02      6.64
    6   20    0     -0.45      0.01
    7   20    0      0.03      2.04
    8   20    0      0.51     -0.04
    9   20    0      0.00     -1.53
    1   21    0      0.01      1.74
    2   21    0      3.72      0.09
    3   21    0     -0.19     -1.75
    4   21    0     -0.16      0.04
    5   21    0      0.01      1.50
    6   21    0      0.46     -0.02
    7   21    0      0.02     -2.86
    8   21    0     -0.94      0.01
    0   22    0     -1.26     -0.04
    1   22    0      0.04     -0.22
    2   22    0      1.38     -0.04
    3   22    0      0.03     -2.46
    4   22    0      0.16      0.00
    5   22    0      0.08     -0.72
    6   22    0     -0.12      0.08
    7   22    0     -0.06      2.04
    1   23    0      0.21      0.51
    2   23    0      3.33      0.05
    3   23    0     -0.13      2.76
    4   23    0     -1.58      0.07
    5   23    0     -0.11     -2.88
    6   23    0     -2.79      0.06
    0   24    0      1.18      0.31
    1   24    0     -0.15      1.39
    2   24    0      1.73     -0.09
    3   24    0      0.05      0.74
    4   24    0      3.11      0.05
    5   24    0     -0.02     -0.37
    1   25    0      0.24      3.51
    2   25    0      0.77      0.05
    3   25    0     -0.01      1.86
    1    0    1     -0.16     71.15
    2    0    1     -0.10    -32.29
    3    0    1     -0.17     10.95
    4    0    1     -0.14     11.68
    5    0    1      0.00      2.56
    6    0    1      0.03      1.90
    7    0    1     -0.07      6.24
    8    0    1     -0.03     -3.87
    9    0    1      0.28      1.13
   10    0    1     -0.93      1.15
   11    0    1     -0.18     -1.18
   12    0    1      0.02     -3.08
    0    1    1      0.04     29.77
    1    1    1    -27.69    -10.22
    2    1    1    -11.85    -52.30
    3    1    1     -8.48      1.16
    4    1    1     -1.07     -1.10
    5    1    1     -0.63     -2.53
    6    1    1      0.98      5.11
    7    1    1     -6.34      1.39
    8    1    1     -1.49     -1.68
    9    1    1     -0.93     -0.37
   10    1    1      1.51     -1.94
   11    1    1      0.60     -1.81
   12    1    1     -1.77      0.85
    0    2    1    -33.85     -0.17
    1    2    1     59.53     21.32
    2    2    1    -16.08    -20.50
    3    2    1     -4.63      6.13
    4    2    1     -9.28     -9.35
    5    2    1     11.31     -5.25
    6    2    1     -1.18      2.15
    7    2    1     -0.28     -0.17
    8    2    1     -0.80      1.85
    9    2    1     -2.56      0.33
   10    2    1     -3.37      4.05
   11    2    1      4.06     -1.11
   12    2    1     -0.18      0.93
    0    3    1      0.08    -31.37
    1    3    1     -9.08    -31.05
    2    3    1      0.99     -0.25
    3    3    1    -22.96      5.42
    4    3    1     -4.77     -3.33
    5    3    1      8.80      0.40
    6    3    1      4.37     -2.85
    7    3    1      2.79     -1.14
    8    3    1      2.81     -1.01
    9    3    1      2.20      0.27
   10    3    1      4.16     -1.24
   11    3    1     -1.64     -0.88
   12    3    1     -0.02     -3.14
    0    4    1     -8.46     -0.06
    1    4    1     30.69     13.07
    2    4    1      5.01    -23.16
    3    4    1    -14.15     -2.11
    4    4    1     -0.20     -2.58
    5    4    1     -1.27      2.71
    6    4    1     -1.08      0.29
    7    4    1     -2.98     -1.10
    8    4    1     -1.59      4.14
    9    4    1      0.32      1.07
   10    4    1      0.05      0.65
   11    4    1      2.37      0.04
   12    4    1     -2.24     -2.39
    0    5    1     -0.08     29.15
    1    5    1    -26.07     -4.07
    2    5    1     -1.74      6.67
    3    5    1      8.82      7.22
    4    5    1     -5.24     -1.10
    5    5    1     -2.51      0.24
    6    5    1      1.73     -3.72
    7    5    1     -1.77      3.98
    8    5    1      0.96     -4.19
    9    5    1     -1.15      2.34
   10    5    1     -0.39     -3.10
   11    5    1      0.31      0.35
   12    5    1     -2.31      0.08
    0    6    1     14.28     -0.08
    1    6    1    -22.48     16.47
    2    6    1     -2.47     11.23
    3    6    1     -6.04     -1.19
    4    6    1      3.78     -1.00
    5    6    1      2.89      1.23
    6    6    1     -1.98      5.62
    7    6    1     -3.27      1.98
    8    6    1     -3.67     -1.70
    9    6    1     -3.08     -1.29
   10    6    1     -0.43      0.60
   11    6    1     -0.44     -0.45
   12    6    1     -0.01     -1.67
    0    7    1     -0.11    -21.07
    1    7    1     -3.78     -4.98
    2    7    1      9.05      4.24
    3    7    1     -5.48      3.41
    4    7    1     -4.42      2.97
    5    7    1     -4.84     -1.95
    6    7    1      2.39     -2.21
    7    7    1     -3.77      0.88
    8    7    1     -0.97      0.49
    9    7    1     -0.12      4.18
   10    7    1     -1.25      2.28
   11    7    1      0.39      0.45
   12    7    1     -1.47      2.37
    0    8    1    -22.18      0.04
    1    8    1     -3.48     10.19
    2    8    1      0.46     15.97
    3    8    1      9.00      0.06
    4    8    1      3.14     -0.59
    5    8    1      2.51      3.35
    6    8    1      0.84     -0.34
    7    8    1      2.31      1.48
    8    8    1      0.70     -5.21
    9    8    1     -3.05     -1.23
   10    8    1      2.05      1.25
   11    8    1      1.02     -0.91
   12    8    1      1.90     -0.21
    0    9    1     -0.04    -51.03
    1    9    1    -20.30      2.56
    2    9    1      2.45      1.53
    3    9    1      4.04     -6.12
    4    9    1     -4.09      4.10
    5    9    1     -3.70      1.40
    6    9    1     -1.64      1.43
    7    9    1      1.20     -1.63
    8    9    1     -1.67     -1.23
    9    9    1      0.84      0.18
   10    9    1     -2.85      1.96
   11    9    1      0.79     -0.17
    1   10    1    -17.81      6.01
    2   10    1      1.21     -2.37
    3   10    1      8.29      0.77
    4   10    1     -4.39     -9.88
    5   10    1     -0.51      0.48
    6   10    1      0.53      0.19
    7   10    1     -2.07      1.27
    8   10    1     -2.86     -0.54
    9   10    1     -0.53      1.38
   10   10    1      1.25     -3.84
   11   10    1      2.15     -0.28
    0   11    1      0.25      6.53
    1   11    1     -7.61     11.99
    2   11    1      0.19      5.65
    3   11    1      1.67     -3.14
    4   11    1     -4.09     -1.24
    5   11    1      1.77      1.90
    6   11    1      0.69     -4.26
    7   11    1     -0.58     -2.51
    8   11    1     -0.95     -0.26
    9   11    1     -1.26      1.44
   10   11    1     -1.08     -1.25
   11   11    1      0.63     -1.16
    0   12    1      2.21      0.38
    1   12    1     -5.32     -0.40
    2   12    1      3.52      1.75
    3   12    1     -5.05     -2.98
    4   12    1      0.21     -0.98
    5   12    1      0.91      2.40
    6   12    1     -1.35      2.80
    7   12    1      4.30     -2.04
    8   12    1     -0.87     -1.67
    9   12    1     -1.31     -0.64
   10   12    1      0.37      0.22
   11   12    1      4.82     -0.87
    0   13    1      0.04     -4.85
    1   13    1      7.69      0.20
    2   13    1      2.11      1.97
    3   13    1      3.69      1.85
    4   13    1     -1.18     -0.12
    5   13    1     -4.46     -2.85
    6   13    1      2.74     -3.93
    7   13    1      1.35     -2.66
    8   13    1     -1.33      0.99
    9   13    1      1.68      2.19
   10   13    1      0.66     -0.14
   11   13    1      0.89     -3.26
    0   14    1     -6.51     -0.12
    1   14    1      3.36     -0.45
    2   14    1     -4.27     -0.19
    3   14    1     -0.40     -1.25
    4   14    1      0.22      1.32
    5   14    1      3.88      2.01
    6   14    1     -1.38      0.25
    7   14    1      0.24     -2.17
    8   14    1     -1.98     -0.85
    9   14    1     -0.59      0.80
   10   14    1      1.26      0.95
   11   14    1      3.12     -2.40
    0   15    1      0.38     -0.43
    1   15    1      1.08     -4.91
    2   15    1     -1.77     -2.21
    3   15    1     -0.75     -0.34
    4   15    1     -1.52      3.02
    5   15    1     -0.07     -0.51
    6   15    1     -0.20      0.70
    7   15    1      2.68     -0.50
    8   15    1      0.68     -2.11
    9   15    1     -1.46      0.54
   10   15    1      1.00      2.50
   11   15    1      3.14     -0.11
    0   16    1      4.78     -0.89
    1   16    1      2.72      0.26
    2   16    1      0.48     -1.47
    3   16    1      0.69      1.25
    4   16    1      1.90      1.19
    5   16    1      0.33     -1.58
    6   16    1     -0.72     -1.04
    7   16    1      1.00     -2.79
    8   16    1     -0.36      1.27
    9   16    1     -0.27      0.75
   10   16    1      1.98     -1.58
   11   16    1     -1.19     -3.79
    0   17    1     -0.48      2.56
    1   17    1     -2.84     -2.10
    2   17    1      0.28     -1.15
    3   17    1      0.59     -3.18
    4   17    1      2.10      0.20
    5   17    1      0.72      2.20
    6   17    1     -2.77      0.36
    7   17    1      4.43      0.33
    8   17    1     -1.65      0.02
    9   17    1      0.94     -0.08
   10   17    1     -0.37      4.54
   11   17    1      1.14      2.30
    0   18    1     -0.97     -1.71
    1   18    1     -0.24      1.88
    2   18    1      0.53      2.49
    3   18    1      2.39      0.41
    4   18    1     -1.77     -0.55
    5   18    1     -0.40     -0.71
    6   18    1     -1.92     -3.02
    7   18    1      2.86     -3.31
    8   18    1     -0.64     -2.63
    9   18    1      0.16     -0.13
   10   18    1     -0.30      0.17
    0   19    1      0.01     -0.76
    1   19    1     -3.28      2.90
    2   19    1      1.50      2.95
    3   19    1     -0.38     -1.51
    4   19    1      0.92     -0.46
    5   19    1      1.93     -0.79
    6   19    1     -0.55     -1.31
    7   19    1      3.88     -2.52
    8   19    1     -1.92     -0.23
    9   19    1      1.51      0.14
   10   19    1      0.50     -1.76
    0   20    1     -4.50     -0.76
    1   20    1     -3.14      1.62
    2   20    1      2.85     -0.19
    3   20    1      0.84     -1.06
    4   20    1     -0.73      0.24
    5   20    1     -2.79     -1.44
    6   20    1     -0.45     -1.00
    7   20    1      1.79     -2.23
    8   20    1     -0.76     -0.91
    9   20    1     -1.21     -1.20
    0   21    1      0.25     -5.25
    1   21    1     -0.82      3.05
    2   21    1     -1.08      4.11
    3   21    1      0.84      1.20
    4   21    1     -1.45     -1.52
    5   21    1      1.00      0.93
    6   21    1     -0.04      3.26
    7   21    1      0.14     -2.31
    8   21    1     -1.50     -3.15
    0   22    1      0.03      0.00
    1   22    1     -4.96      1.81
    2   22    1      1.86     -3.71
    3   22    1      0.65      1.00
    4   22    1      0.64     -2.44
    5   22    1     -3.66     -1.45
    6   22    1      2.57      3.28
    7   22    1      4.58      0.93
    0   23    1      0.10      1.90
    1   23    1     -3.62      2.37
    2   23    1     -0.92      2.08
    3   23    1      0.12      0.27
    4   23    1     -0.57     -1.73
    5   23    1      0.70     -0.34
    6   23    1      0.45      3.21
    0   24    1     -0.62     -0.18
    1   24    1     -1.75      0.44
    2   24    1      0.23     -0.74
    3   24    1     -2.39      0.75
    4   24    1     -2.06      0.77
    5   24    1      1.71     -0.26
    0   25    1     -0.04      1.58
    1   25    1      0.04      2.00
    2   25    1     -0.84     -1.06
    3   25    1      0.24     -0.30
    1    0    2    -26.30      0.15
    2    0    2    -63.87     -0.05
    3    0    2     25.77      0.00
    4    0    2     -0.84     -0.03
    5    0    2      0.71     -0.02
    6    0    2     -9.49      0.04
    7    0    2     -0.54      0.06
    8    0    2     -1.93      0.01
    9    0    2     -3.64      0.04
   10    0    2     -2.49      0.00
   11    0    2     -0.29     -0.06
   12    0    2      3.58      0.01
    0    1    2     -0.27   -307.49
    1    1    2      2.46    -13.15
    2    1    2     25.28     23.20
    3    1    2     18.16     24.37
    4    1    2      4.22    -13.99
    5    1    2      7.03      0.77
    6    1    2     -0.71      0.29
    7    1    2      4.91     -1.62
    8    1    2     -1.85      1.37
    9    1    2      2.62     -1.09
   10    1    2      0.14     -0.86
   11    1    2     -0.92      0.43
   12    1    2      0.76     -1.09
    0    2    2     11.84     -0.20
    1    2    2    -53.69    -54.76
    2    2    2     -6.30    -29.06
    3    2    2     12.44     12.41
    4    2    2      9.12      3.57
    5    2    2      0.46      2.68
    6    2    2     -1.27     -4.51
    7    2    2     -4.78      4.12
    8    2    2      4.70      2.79
    9    2    2     -1.17      1.70
   10    2    2      1.58     -0.43
   11    2    2     -1.36      0.11
   12    2    2      0.85     -0.83
    0    3    2     -0.02    -38.41
    1    3    2     21.35    -27.28
    2    3    2      3.07      2.30
    3    3    2      3.28     -6.61
    4    3    2      3.21     -0.69
    5    3    2      9.53     -4.34
    6    3    2     -2.64     -1.46
    7    3    2      2.09      6.91
    8    3    2     -1.08      1.02
    9    3    2      0.10      0.91
   10    3    2      1.90     -3.08
   11    3    2     -0.89      1.42
   12    3    2     -1.61     -2.25
    0    4    2     -3.05      0.17
    1    4    2      1.54     16.04
    2    4    2    -17.80     -1.91
    3    4    2     -2.58     -2.45
    4    4    2      6.30      3.82
    5    4    2     -3.52     -6.83
    6    4    2      3.52     -7.36
    7    4    2      1.58     -2.20
    8    4    2     -1.00     -2.08
    9    4    2     -1.39      2.76
   10    4    2     -0.58     -2.94
   11    4    2     -1.76      0.80
   12    4    2      1.89     -2.35
    1    5    2      0.09     11.11
    2    5    2    -12.39     -5.91
    3    5    2      6.83      3.59
    4    5    2    -12.24      9.53
    5    5    2     -6.63     -5.97
    6    5    2      1.16     -1.00
    7    5    2      1.52      2.88
    8    5    2     -0.84      1.11
    9    5    2     -0.80      0.30
   10    5    2      0.87     -2.21
   11    5    2      2.57     -2.32
   12    5    2     -1.32     -5.94
    0    6    2      2.47      0.03
    1    6    2     17.89      0.52
    2    6    2     12.51     -1.15
    3    6    2     11.52     13.92
    4    6    2     -4.28      9.62
    5    6    2      5.57    -11.05
    6    6    2     -4.18     -2.14
    7    6    2     -1.78     -1.72
    8    6    2      0.37     -1.46
    9    6    2      1.58      0.43
   10    6    2      2.97     -2.63
   11    6    2      3.92     -0.33
   12    6    2     -1.80     -3.18
    0    7    2      0.04      2.72
    1    7    2     -8.54      9.71
    2    7    2      0.54    -16.47
    3    7    2     -1.44     12.36
    4    7    2      2.99      5.62
    5    7    2     -0.04      2.04
    6    7    2     -4.17      2.01
    7    7    2      1.31     -1.28
    8    7    2     -1.64      0.20
    9    7    2     -0.60     -0.36
   10    7    2     -0.74      1.69
   11    7    2      1.80     -2.04
   12    7    2      0.76     -2.40
    0    8    2     -4.20     -0.05
    1    8    2     -0.06     -7.75
    2    8    2     10.92      9.99
    3    8    2      9.43     -4.51
    4    8    2     -0.64     -2.43
    5    8    2      3.19      7.28
    6    8    2     -2.16      5.96
    7    8    2      3.03      2.52
    8    8    2     -0.63      1.66
    9    8    2      1.31     -0.04
   10    8    2     -1.98      0.01
   11    8    2      2.68      0.30
   12    8    2     -2.06     -1.23
    1    9    2    -10.68     10.01
    2    9    2      4.36      1.60
    3    9    2     -3.28     -5.89
    4    9    2      2.83     -1.43
    5    9    2     -2.41     -3.28
    6    9    2     -0.13     -7.00
    7    9    2      2.39      3.96
    8    9    2      2.43      2.20
    9    9    2      0.44     -0.60
   10    9    2     -1.97      4.19
   11    9    2      3.34     -2.12
   12    9    2     -0.51      1.82
    0   10    2     -4.07     -0.14
    1   10    2     -8.42     -6.74
    2   10    2     -5.89      8.17
    3   10    2      2.93     -1.19
    4   10    2     -0.44      2.41
    5   10    2     -2.01     -0.16
    6   10    2      1.59      0.74
    7   10    2      1.99      0.30
    8   10    2      0.77      1.13
    9   10    2      1.85      0.29
   10   10    2     -2.40     -0.22
   11   10    2      2.46      4.20
   12   10    2     -3.90      1.33
    1   11    2     -3.74     -1.46
    2   11    2     -3.74      2.59
    3   11    2      1.04     -2.45
    4   11    2     -5.98     -3.10
    5   11    2     -1.40     -2.44
    6   11    2      1.35     -3.05
    7   11    2      1.04      0.20
    8   11    2      0.68      0.09
    9   11    2      0.59     -0.22
   10   11    2      3.04     -0.04
   11   11    2      7.10      1.88
   12   11    2     -2.28      4.03
    1   12    2     -0.36      4.29
    2   12    2      1.49      0.89
    3   12    2      2.31      4.00
    4   12    2      2.21      5.90
    5   12    2     -0.39      0.64
    6   12    2     -1.40      0.40
    7   12    2      1.20     -0.30
    8   12    2      0.63     -1.64
    9   12    2     -2.36     -1.53
   10   12    2      1.32     -0.85
   11   12    2      1.50      2.95
   12   12    2      1.43      1.46
    0   13    2      0.08    -11.10
    1   13    2      5.11     -2.75
    2   13    2     -2.94     -2.82
    3   13    2     -1.82      5.02
    4   13    2      2.08     -2.31
    5   13    2     -0.30      1.12
    6   13    2      0.39     -0.16
    7   13    2      3.11      1.05
    8   13    2     -1.29      1.17
    9   13    2     -1.13     -1.98
   10   13    2     -0.67     -1.99
   11   13    2      0.26      1.20
    0   14    2      5.76      0.02
    1   14    2      2.78     -4.61
    2   14    2     -2.92     -3.25
    3   14    2      2.44     -3.39
    4   14    2      2.76     -2.04
    5   14    2     -0.79      0.17
    6   14    2     -0.01     -0.23
    7   14    2      1.49      0.93
    8   14    2     -1.92     -1.60
    9   14    2     -2.18     -1.28
   10   14    2     -1.34     -3.02
   11   14    2      0.21     -0.52
    0   15    2      0.66     -2.58
    1   15    2      2.54     -3.75
    2   15    2      1.16      0.25
    3   15    2     -0.86     -0.45
    4   15    2      2.98     -2.42
    5   15    2      0.77     -2.61
    6   15    2      0.16      0.55
    7   15    2      3.95      0.96
    8   15    2      0.98     -0.82
    9   15    2     -1.55      1.71
   10   15    2      0.50      1.09
   11   15    2     -0.90      1.21
    0   16    2     -1.92      0.31
    1   16    2     -4.30      2.98
    2   16    2      1.00      0.64
    3   16    2      3.00     -0.74
    4   16    2      1.06      0.87
    5   16    2      0.32      0.30
    6   16    2      0.84     -3.19
    7   16    2      0.75     -0.09
    8   16    2     -1.29     -1.15
    9   16    2     -1.51     -2.29
   10   16    2     -0.17     -4.57
   11   16    2      1.19      3.11
    0   17    2     -0.24     -1.73
    1   17    2      1.22      3.09
    2   17    2      1.19     -0.32
    3   17    2     -1.06     -0.08
    4   17    2     -0.44     -3.94
    5   17    2      2.72     -1.23
    6   17    2     -0.18     -0.29
    7   17    2      3.45      0.40
    8   17    2     -1.39      2.86
    9   17    2      0.21     -3.54
   10   17    2     -0.50     -0.83
   11   17    2     -0.09     -0.92
    0   18    2     -0.40      0.09
    1   18    2      1.39     -0.69
    2   18    2      3.20      0.52
    3   18    2      0.31     -1.69
    4   18    2     -1.01      4.66
    5   18    2      0.41     -1.77
    6   18    2     -1.10     -2.31
    7   18    2      0.54      0.31
    8   18    2      1.11     -1.44
    9   18    2     -1.36      0.76
   10   18    2     -1.86      1.07
    0   19    2     -0.90     -4.03
    1   19    2     -0.57      3.44
    2   19    2     -0.12      0.22
    3   19    2     -1.99     -0.31
    4   19    2      1.69     -2.81
    5   19    2      6.75     -0.28
    6   19    2      0.02      1.73
    7   19    2      3.13      0.08
    8   19    2      1.28     -0.36
    9   19    2      1.16     -2.68
   10   19    2     -0.70     -1.01
    0   20    2      0.90      0.08
    1   20    2      1.04     -2.75
    2   20    2      0.34     -1.75
    3   20    2     -2.04     -1.65
    4   20    2      1.34     -0.28
    5   20    2      0.02      0.66
    6   20    2      2.00      1.11
    7   20    2     -2.07     -0.40
    8   20    2      0.45     -0.91
    9   20    2     -2.28     -1.63
    0   21    2     -0.32     -0.45
    1   21    2     -0.97      2.27
    2   21    2      0.52     -0.86
    3   21    2     -1.71     -0.78
    4   21    2     -0.78      1.28
    5   21    2      1.74     -0.26
    6   21    2      1.53     -0.14
    7   21    2      2.08     -3.72
    8   21    2     -0.82     -1.22
    0   22    2     -1.68      0.18
    1   22    2      0.35     -1.39
    2   22    2     -1.47     -3.34
    3   22    2      0.07      1.65
    4   22    2      0.21      0.95
    5   22    2     -0.80     -0.12
    6   22    2      0.15      1.33
    7   22    2     -1.10      0.56
    0   23    2      0.17      0.15
    1   23    2      1.43      0.14
    2   23    2     -0.46     -3.23
    3   23    2     -1.28      2.32
    4   23    2      0.96     -1.67
    5   23    2     -0.09     -2.06
    6   23    2     -1.39      0.89
    0   24    2      2.04      0.01
    1   24    2      3.19     -1.67
    2   24    2      1.69     -2.30
    3   24    2      1.96      0.06
    4   24    2     -0.34      0.96
    5   24    2     -0.69     -0.95
    0   25    2      0.14      0.00
    1   25    2     -1.20      2.12
    2   25    2      0.06      0.01
    3   25    2      0.78     -1.34
    1    0    3      0.33     12.23
    2    0    3     -0.06      2.59
    3    0    3     -0.02     -1.90
    4    0    3     -0.40     14.20
    5    0    3     -0.06     -4.05
    6    0    3      0.04      0.13
    7    0    3     -0.18      5.85
    8    0    3     -0.33     -0.05
    9    0    3      0.21      2.19
   10    0    3      0.58     -0.91
   11    0    3      0.10     -0.20
   12    0    3     -0.20      1.49
    0    1    3     -0.16     60.57
    1    1    3     66.25    -14.68
    2    1    3    -42.08    -19.23
    3    1    3      9.11     -3.07
    4    1    3      1.64     10.61
    5    1    3     -1.81    -13.30
    6    1    3      2.35      7.51
    7    1    3     -0.32      4.23
    8    1    3     -2.16      0.99
    9    1    3      1.10      0.72
   10    1    3      2.53      2.98
   11    1    3     -1.85     -1.39
   12    1    3     -1.76     -0.33
    0    2    3      8.65     -0.23
    1    2    3      4.99      4.99
    2    2    3    -18.37    -10.94
    3    2    3      6.20     31.20
    4    2    3     -6.10      1.17
    5    2    3      4.32     -7.13
    6    2    3     -0.30     -4.08
    7    2    3     -1.57      1.34
    8    2    3     -1.45      1.41
    9    2    3     -3.71      1.99
   10    2    3     -2.73     -0.50
   11    2    3      0.98      1.07
   12    2    3     -0.74      2.64
    0    3    3     -0.02     15.46
    1    3    3      4.84    -61.25
    2    3    3    -20.07      5.27
    3    3    3    -15.91     13.28
    4    3    3     -9.28      4.95
    5    3    3      4.57     -6.60
    6    3    3     -0.30      0.08
    7    3    3     -0.91      0.06
    8    3    3      1.60      1.23
    9    3    3      3.29      1.34
   10    3    3      3.16      1.36
   11    3    3     -2.05     -4.08
   12    3    3     -2.26     -0.12
    0    4    3     -2.40      0.17
    1    4    3     -4.04     17.31
    2    4    3      9.21    -17.30
    3    4    3     -1.81     -0.44
    4    4    3     -0.49      0.99
    5    4    3      2.77     -1.93
    6    4    3     -6.13     -4.94
    7    4    3     -1.14     -3.21
    8    4    3     -3.00      0.02
    9    4    3      3.27     -1.41
   10    4    3     -1.99     -3.12
   11    4    3      2.76     -0.15
   12    4    3     -4.01     -1.54
    0    5    3     -0.08      6.58
    1    5    3     -0.55      1.92
    2    5    3     -8.95      1.84
    3    5    3      4.03      6.43
    4    5    3      5.03     -5.71
    5    5    3      0.74     -4.55
    6    5    3      1.98     -3.06
    7    5    3     -2.14      6.16
    8    5    3      2.81      3.00
    9    5    3      0.19      0.65
   10    5    3     -0.23     -2.19
   11    5    3     -0.41     -2.49
   12    5    3     -1.71      3.02
    0    6    3     17.16      0.12
    1    6    3    -26.87     18.40
    2    6    3      4.55      4.68
    3    6    3      2.10      1.86
    4    6    3     -0.61      9.25
    5    6    3     -1.52      0.44
    6    6    3      0.04     -1.09
    7    6    3      1.60      7.99
    8    6    3     -2.40      0.21
    9    6    3      2.54     -0.79
   10    6    3     -0.69      1.06
   11    6    3      0.35      0.14
   12    6    3      3.84      1.95
    0    7    3      0.06     -9.33
    1    7    3     26.38     16.11
    2    7    3     21.12      7.23
    3    7    3     -3.92     -5.06
    4    7    3     -2.92     -5.44
    5    7    3     -0.41     -0.77
    6    7    3      1.47      0.04
    7    7    3     -2.25     -2.17
    8    7    3     -0.99      2.39
    9    7    3     -1.48      2.43
   10    7    3      0.40      0.79
   11    7    3     -2.16      0.04
   12    7    3      0.98     -0.15
    0    8    3    -53.30      0.09
    1    8    3    -12.17     17.10
    2    8    3      7.98      6.56
    3    8    3      9.19     -3.06
    4    8    3      1.75      7.23
    5    8    3      2.83      5.67
    6    8    3     -2.31     -0.20
    7    8    3      0.32      1.47
    8    8    3      0.67     -0.46
    9    8    3      1.66     -1.39
   10    8    3      0.19      4.01
   11    8    3      0.90      0.45
   12    8    3      4.14      2.18
    0    9    3      0.12    -16.93
    1    9    3     -6.87     11.19
    2    9    3      5.35     -4.23
    3    9    3      5.84     -8.29
    4    9    3     -6.88      5.78
    5    9    3     -0.94      0.94
    6    9    3      0.26     -1.46
    7    9    3      3.35      1.33
    8    9    3     -1.84      2.10
    9    9    3      2.31     -0.12
   10    9    3     -0.71     -2.48
   11    9    3     -0.39      0.88
   12    9    3      2.93      0.73
    0   10    3    -11.77     -0.13
    1   10    3      3.51     16.06
    2   10    3      0.21     -2.92
    3   10    3     -2.01     -3.07
    4   10    3      2.99     -5.47
    5   10    3      5.00      0.72
    6   10    3      0.04      1.48
    7   10    3     -5.56     -1.20
    8   10    3     -1.00      0.46
    9   10    3     -0.09      1.61
   10   10    3     -0.43      0.00
   11   10    3      2.47     -1.18
   12   10    3     -0.73      1.08
    0   11    3      0.63      9.42
    1   11    3     -7.03      7.64
    2   11    3     -1.11      2.43
    3   11    3      1.16      3.56
    4   11    3     -4.96      3.11
    5   11    3      1.37      0.07
    6   11    3      4.94     -2.99
    7   11    3      0.21     -1.67
    8   11    3     -3.28      3.15
    9   11    3      0.40      0.99
   10   11    3     -1.80     -1.56
   11   11    3      0.14     -3.64
   12   11    3      3.67     -0.97
    0   12    3      5.30     -0.09
    1   12    3      5.55     -5.82
    2   12    3     -0.88      0.43
    3   12    3     -6.06     -3.77
    4   12    3     -0.35      2.97
    5   12    3     -2.96      3.25
    6   12    3     -5.00      0.47
    7   12    3     -1.86     -1.17
    8   12    3      0.93      0.64
    9   12    3      1.20      0.69
   10   12    3     -1.27      0.26
   11   12    3      1.41      0.15
   12   12    3     -2.07      0.22
    0   13    3      0.25      0.81
    1   13    3      8.21     -3.42
    2   13    3      2.29      3.63
    3   13    3      0.00      2.19
    4   13    3      0.56     -2.85
    5   13    3     -0.23     -3.64
    6   13    3      0.80     -0.44
    7   13    3     -3.92     -4.12
    8   13    3     -1.51      3.07
    9   13    3      1.06      1.59
   10   13    3      2.22     -0.70
   11   13    3     -2.41     -4.89
   12   13    3     -0.29     -0.32
    1   14    3     -2.04     -3.80
    2   14    3      3.53     -0.62
    3   14    3      4.20     -0.24
    4   14    3      3.09      4.73
    5   14    3      0.21      0.95
    6   14    3      0.10     -3.03
    7   14    3     -1.84     -2.53
    8   14    3     -2.82     -0.57
    9   14    3      1.89     -0.54
   10   14    3      1.46     -0.94
   11   14    3      0.05     -4.64
   12   14    3     -1.02      0.08
    0   15    3     -0.42      0.44
    1   15    3     -0.50      0.60
    2   15    3      0.85     -0.84
    3   15    3     -0.13     -0.83
    4   15    3      1.71     -0.78
    5   15    3     -1.36     -3.03
    6   15    3     -0.51      1.94
    7   15    3     -1.99      1.28
    8   15    3      0.35      1.08
    9   15    3      0.68     -0.14
   10   15    3      0.18     -0.66
   11   15    3     -3.45     -0.36
   12   15    3     -4.55      1.41
    0   16    3     -1.78      0.21
    1   16    3     -3.34      1.72
    2   16    3      0.07      0.65
    3   16    3     -4.28     -0.52
    4   16    3      2.35     -0.64
    5   16    3      3.36     -0.62
    6   16    3     -0.42      1.57
    7   16    3      0.05     -4.62
    8   16    3      1.78      0.94
    9   16    3      0.57      3.09
   10   16    3      2.56     -1.52
   11   16    3      1.05     -3.09
    0   17    3     -3.01     -2.24
    1   17    3      0.43      0.24
    2   17    3     -0.13     -0.77
    3   17    3      3.24     -2.49
    4   17    3      0.23     -0.33
    5   17    3     -1.14     -0.65
    6   17    3     -1.25      2.70
    7   17    3     -2.10     -2.48
    8   17    3     -0.80      0.58
    9   17    3      1.71     -3.19
   10   17    3      0.68      2.71
   11   17    3     -2.36      2.68
    0   18    3      2.35      0.35
    1   18    3      0.05      5.07
    2   18    3      1.72      1.43
    3   18    3     -1.93     -1.41
    4   18    3      0.23     -2.73
    5   18    3     -0.59     -0.69
    6   18    3      0.21      0.45
    7   18    3      1.08     -5.12
    8   18    3      1.65      1.92
    9   18    3     -1.08     -2.55
   10   18    3      1.71     -0.27
    0   19    3     -2.34      3.74
    1   19    3      1.09      2.31
    2   19    3      2.91     -1.27
    3   19    3     -1.29      0.62
    4   19    3     -2.00      0.54
    5   19    3      1.01      1.34
    6   19    3     -1.36      2.12
    7   19    3     -2.17     -1.25
    8   19    3     -1.37     -0.06
    9   19    3      0.14      1.05
   10   19    3     -0.09      0.98
    0   20    3     -1.48     -0.08
    1   20    3      3.08      2.13
    2   20    3      2.64     -0.28
    3   20    3      2.51     -1.79
    4   20    3      1.95     -0.39
    5   20    3     -3.52      0.51
    6   20    3      0.07     -1.75
    7   20    3     -2.37     -0.17
    8   20    3     -0.27      2.20
    9   20    3      0.92     -1.12
    0   21    3     -0.25      0.74
    1   21    3      1.02      2.37
    2   21    3     -2.21     -0.13
    3   21    3      0.45      0.53
    4   21    3     -0.15     -2.80
    5   21    3     -2.41      1.86
    6   21    3      1.80      0.57
    7   21    3      0.09     -1.97
    8   21    3     -0.10      0.14
    0   22    3     -0.73     -0.20
    1   22    3     -0.17      2.31
    2   22    3      2.41     -0.71
    3   22    3      1.90      0.64
    4   22    3     -2.05     -0.01
    5   22    3     -4.12     -1.90
    6   22    3      3.51      2.61
    7   22    3      0.17      0.04
    0   23    3     -0.29      0.13
    1   23    3     -0.28      4.57
    2   23    3     -4.20      0.84
    3   23    3      3.41      0.33
    4   23    3     -1.05     -0.88
    5   23    3     -0.88      1.50
    6   23    3      1.91      0.94
    0   24    3      2.78     -0.05
    1   24    3      2.85      2.10
    2   24    3      3.60      0.62
    3   24    3     -1.98     -0.41
    4   24    3     -3.03      1.43
    5   24    3     -0.35      0.20
    0   25    3     -0.12      4.49
    1   25    3     -0.65      1.80
    2   25    3      0.70     -3.12
    3   25    3      2.16     -0.38
    0    0    4   -139.17      0.16
    2    0    4    -10.95     -0.13
    3    0    4     17.72     -0.14
    4    0    4    -11.30      0.01
    5    0    4      1.65      0.00
    6    0    4     -5.61      0.01
    7    0    4      1.87      0.04
    8    0    4      1.46      0.04
    9    0    4     -4.10     -0.42
   10    0    4     -2.44      0.01
   11    0    4     -0.37     -0.44
   12    0    4      0.56     -0.01
   13    0    4      1.21      0.00
    0    1    4     -0.47   -113.97
    2    1    4      2.84     35.89
    3    1    4     11.34      0.16
    4    1    4     14.82     -0.83
    5    1    4     -1.33     -1.32
    6    1    4     -3.54      7.79
    7    1    4      3.36      2.31
    8    1    4      0.42     -2.51
    9    1    4      2.98      1.93
   10    1    4     -1.12      2.25
   11    1    4     -1.89     -0.24
   12    1    4      0.43     -3.89
   13    1    4      0.08      1.77
    0    2    4   -124.02      0.15
    2    2    4     -8.44    -33.87
    3    2    4      8.75     -0.30
    4    2    4     -4.65     -1.59
    5    2    4      1.63     -7.05
    6    2    4     -0.32      0.24
    7    2    4     -1.36      0.30
    8    2    4      4.40      0.66
    9    2    4      0.55     -2.00
   10    2    4     -2.87     -1.97
   11    2    4      2.15      3.19
   12    2    4     -1.77      1.83
   13    2    4      0.11      0.93
    0    3    4     -0.05      2.95
    2    3    4     -9.55     13.19
    3    3    4     -2.09    -15.76
    4    3    4      6.99    -12.99
    5    3    4     -0.08     -3.11
    6    3    4     -8.62     -2.98
    7    3    4      1.95      5.14
    8    3    4      0.50     -1.30
    9    3    4      1.82      0.31
   10    3    4     -1.00     -3.32
   11    3    4      1.08      0.67
   12    3    4     -1.27     -0.53
   13    3    4      1.22      0.12
    0    4    4     -5.40      0.06
    1    4    4     -5.03      6.21
    2    4    4    -10.96     11.53
    3    4    4     -0.60     -5.73
    4    4    4     12.43      7.34
    5    4    4     -8.76     -9.03
    6    4    4      6.39      2.78
    7    4    4      8.76     -3.22
    8    4    4      2.33      0.05
    9    4    4      0.93      0.34
   10    4    4     -2.98      0.82
   11    4    4     -0.77     -0.74
   12    4    4     -3.48      1.58
   13    4    4      0.11      0.11
    0    5    4      0.11    -15.38
    1    5    4     13.68     -7.81
    2    5    4    -15.80      4.46
    3    5    4     14.02     -3.66
    4    5    4      1.77      4.45
    5    5    4    -18.48      1.87
    6    5    4     -4.11     -2.59
    7    5    4     -0.09     -0.09
    8    5    4     -0.67      2.06
    9    5    4     -1.24      1.70
   10    5    4     -1.43     -0.40
   11    5    4      3.41     -1.62
   12    5    4     -2.73     -1.82
    0    6    4      3.54     -0.21
    2    6    4      0.01     -1.13
    3    6    4     12.11      8.02
    4    6    4      1.61      7.18
    5    6    4      0.48     -2.82
    6    6    4      0.92      2.66
    7    6    4     -2.14     -2.64
    8    6    4     -3.92      1.12
    9    6    4      0.47      2.34
   10    6    4      2.19      1.17
   11    6    4     -1.12     -2.47
   12    6    4     -5.35     -2.33
    0    7    4      0.13     14.86
    1    7    4     -8.56     -1.78
    2    7    4      5.64    -21.13
    3    7    4      3.89      2.25
    4    7    4      3.12      4.47
    5    7    4      1.89     -2.84
    6    7    4      4.17      4.97
    7    7    4     -0.45     -3.09
    8    7    4     -0.91     -2.81
    9    7    4     -0.21     -1.88
   10    7    4      0.20      0.70
   11    7    4      0.54     -2.66
   12    7    4     -0.69      1.06
    0    8    4      7.36     -0.11
    1    8    4     11.58      1.52
    2    8    4     -4.26     -2.11
    3    8    4      2.86     -1.32
    4    8    4      6.07     -4.21
    5    8    4     -0.16      7.08
    6    8    4     -4.07      4.26
    7    8    4      3.42     -3.47
    8    8    4      1.06      1.41
    9    8    4     -3.77      0.28
   10    8    4     -0.57      1.51
   11    8    4     -3.68     -2.59
   12    8    4     -2.05     -0.41
    0    9    4     -0.07     -3.43
    1    9    4     -8.92      4.12
    2    9    4     10.53      2.22
    3    9    4     -3.78     -4.80
    4    9    4      1.83     -0.84
    5    9    4      5.36     -2.75
    6    9    4      3.38     -0.96
    7    9    4      0.35     -0.15
    8    9    4      2.49      3.36
    9    9    4      2.29     -0.17
   10    9    4     -1.09      3.94
   11    9    4      2.51     -1.28
   12    9    4     -1.03      4.72
    0   10    4      4.46     -0.35
    1   10    4      3.90      0.68
    2   10    4     -6.48     -0.06
    3   10    4     -3.69      6.53
    4   10    4     -0.28      5.43
    5   10    4     -4.69      2.88
    6   10    4     -1.90     -4.32
    7   10    4      3.29      0.27
    8   10    4      1.56     -1.30
    9   10    4      3.43      0.54
   10   10    4      0.96     -0.72
   11   10    4     -0.28     -3.28
   12   10    4      0.15      2.82
    0   11    4      0.18      7.61
    1   11    4     -1.03      2.82
    2   11    4     -1.72      1.47
    3   11    4      0.72     -4.02
    4   11    4      2.53     -2.37
    5   11    4      0.67      1.07
    6   11    4     -0.89      1.14
    7   11    4     -2.50     -1.95
    8   11    4      0.93      0.19
    9   11    4      0.06     -1.29
   10   11    4      3.13     -0.35
   11   11    4      6.80     -1.12
   12   11    4     -0.88      2.49
    0   12    4     -9.55      0.36
    1   12    4     -2.86     -3.52
    2   12    4      3.04      6.58
    3   12    4      2.07      5.64
    4   12    4     -2.13      1.58
    5   12    4     -0.87     -1.66
    6   12    4     -1.66     -2.30
    7   12    4     -1.01     -1.35
    8   12    4     -0.50     -0.84
    9   12    4     -0.58     -1.84
   10   12    4     -2.14     -2.15
   11   12    4      2.49     -3.69
   12   12    4      4.48      3.47
    0   13    4      0.60     -1.31
    1   13    4     -1.66     -3.15
    2   13    4     -4.24     -0.57
    3   13    4      1.50     -0.19
    4   13    4      4.44     -1.89
    5   13    4     -0.64      2.18
    6   13    4      0.75      0.96
    7   13    4      2.18     -0.85
    8   13    4     -2.85      1.88
    9   13    4     -1.75      1.75
   10   13    4     -0.64     -2.11
   11   13    4     -0.12      2.01
   12   13    4     -2.01     -2.01
    0   14    4     -4.35     -0.44
    1   14    4     -3.73     -1.11
    2   14    4     -1.59      1.84
    3   14    4      2.20      1.28
    4   14    4     -0.92     -5.12
    5   14    4     -1.67      4.17
    6   14    4      2.10      0.28
    7   14    4      2.44     -4.08
    8   14    4     -0.38      0.78
    9   14    4     -0.09      1.51
   10   14    4     -2.29     -0.67
   11   14    4      2.79      0.30
   12   14    4      3.88      0.97
    0   15    4      0.27     -3.07
    1   15    4     -2.28      0.61
    2   15    4     -0.99      2.15
    3   15    4     -1.64     -1.17
    4   15    4     -0.35     -4.42
    5   15    4      2.25     -1.23
    6   15    4     -0.42     -0.42
    7   15    4     -0.37      0.43
    8   15    4     -1.68      0.53
    9   15    4     -3.23      1.33
   10   15    4     -3.74      1.69
   11   15    4      1.13     -0.12
   12   15    4     -1.61     -0.19
    0   16    4     -1.21      0.18
    1   16    4     -1.60     -1.02
    2   16    4     -1.14     -1.99
    3   16    4     -1.47     -1.54
    4   16    4     -1.84     -1.78
    5   16    4     -1.44     -0.59
    6   16    4      1.34     -0.82
    7   16    4      1.34     -2.64
    8   16    4     -0.71      0.84
    9   16    4     -1.19     -0.53
   10   16    4     -2.24     -0.69
   11   16    4     -0.76      1.53
    0   17    4      0.23      4.44
    1   17    4      1.53      0.67
    2   17    4      1.00     -1.84
    3   17    4     -2.52     -1.46
    4   17    4      5.16      0.26
    5   17    4     -0.92     -1.03
    6   17    4     -2.72     -1.23
    7   17    4     -0.37     -0.93
    8   17    4      0.81      2.69
    9   17    4     -2.60      0.80
   10   17    4     -0.66     -0.05
   11   17    4      3.32     -0.88
    0   18    4     -1.10      0.51
    1   18    4      3.48      0.63
    2   18    4     -0.04     -0.21
    3   18    4      1.72      2.90
    4   18    4     -2.98      0.68
    5   18    4     -2.51     -5.66
    6   18    4      1.02     -1.03
    7   18    4     -0.56      0.18
    8   18    4      2.25     -0.41
    9   18    4     -3.27     -0.30
   10   18    4     -0.63      2.07
    0   19    4      0.04     -3.86
    1   19    4     -1.15     -2.30
    2   19    4     -2.60      0.53
    3   19    4     -2.57      1.17
    4   19    4      3.82     -2.12
    5   19    4     -0.67     -0.56
    6   19    4     -2.67      0.34
    7   19    4      0.74      1.45
    8   19    4     -0.06     -1.43
    9   19    4     -0.76     -0.16
    0   20    4     -1.00      0.32
    1   20    4      1.84     -1.08
    2   20    4      0.33      0.11
    3   20    4      1.69      1.99
    4   20    4     -0.86     -2.12
    5   20    4     -0.14     -3.27
    6   20    4      0.53     -0.34
    7   20    4     -3.00     -2.23
    8   20    4     -1.28     -0.15
    9   20    4     -2.85     -1.27
    0   21    4      0.40     -0.39
    1   21    4     -5.28      2.97
    2   21    4     -2.24      1.49
    3   21    4      1.71     -0.25
    4   21    4      0.03     -1.22
    5   21    4     -0.85      3.09
    6   21    4      2.84     -2.62
    7   21    4      0.71      0.61
    8   21    4     -0.93      1.51
    0   22    4     -1.98      0.23
    1   22    4      2.49     -1.32
    2   22    4     -2.52      0.70
    3   22    4     -0.78      1.30
    4   22    4     -0.08     -2.25
    5   22    4     -2.12     -0.74
    6   22    4      0.81     -0.32
    7   22    4     -2.56     -1.39
    0   23    4      0.14      1.59
    1   23    4     -1.95     -3.24
    2   23    4     -1.94     -1.73
    3   23    4      2.37      0.53
    4   23    4      0.25      2.06
    5   23    4     -0.33     -1.46
    6   23    4      0.45      0.29
    0   24    4      1.86     -0.15
    1   24    4      2.04      1.44
    2   24    4     -2.67      0.86
    3   24    4      0.80      0.17
    4   24    4     -1.55     -0.84
    5   24    4     -1.02      0.04
    0   25    4      0.10     -1.38
    1   25    4     -1.85     -1.33
    2   25    4     -0.13     -1.44
    1    0    5      0.99    -59.36
    2    0    5      0.09     50.84
    3    0    5     -0.16    -16.85
    4    0    5     -0.07      9.66
    5    0    5      0.03     -1.63
    6    0    5      0.12     -0.23
    7    0    5      0.02      4.19
    8    0    5     -0.35      0.64
    9    0    5      0.14     -1.31
   10    0    5      2.64     -1.60
   11    0    5      0.00      3.94
   12    0    5     -0.33      2.38
   13    0    5     -0.02     -0.58
    0    1    5     -0.15    -12.72
    1    1    5      9.06     20.79
    2    1    5    -12.64    -14.57
    3    1    5     11.84    -11.57
    4    1    5     14.87      4.92
    5    1    5    -10.15     -6.79
    6    1    5     -2.64      1.46
    7    1    5      1.71      6.02
    8    1    5      0.08      4.41
    9    1    5      1.93      1.16
   10    1    5     -0.07      0.93
   11    1    5      0.89     -0.88
   12    1    5      2.82     -0.01
   13    1    5      2.34      0.05
    0    2    5     37.20      0.00
    1    2    5    -26.93    -36.54
    2    2    5     -2.74     16.07
    3    2    5     16.12     13.71
    4    2    5      0.52      7.50
    5    2    5     -8.05     -7.72
    6    2    5      5.65     -3.77
    7    2    5      2.04      0.61
    8    2    5      2.85      0.00
    9    2    5      0.22     -1.27
   10    2    5      1.41     -0.03
   11    2    5     -0.72      1.23
   12    2    5     -1.21      4.26
   13    2    5      1.66      1.32
    0    3    5      0.08    -14.29
    1    3    5      2.56    -16.96
    2    3    5     -9.17      0.70
    3    3    5      7.91     -1.36
    4    3    5     -6.60      5.50
    5    3    5     -0.63     -3.02
    6    3    5     -5.12      3.55
    7    3    5     -1.10      0.28
    8    3    5      1.21      3.96
    9    3    5      1.66      0.85
   10    3    5      2.86      1.88
   11    3    5      0.49     -3.51
   12    3    5     -1.02      3.28
   13    3    5      2.26     -2.11
    0    4    5     -2.93      0.05
    1    4    5    -33.15     24.51
    2    4    5      9.41      5.56
    3    4    5      2.25      0.02
    4    4    5      0.87     -6.60
    5    4    5     -6.99      4.04
    6    4    5     -6.41      0.98
    7    4    5     -2.04      1.76
    8    4    5      2.53     -0.65
    9    4    5      2.72     -1.80
   10    4    5      0.64     -1.70
   11    4    5     -2.46     -0.32
   12    4    5      0.16      0.66
   13    4    5     -0.37      1.94
    0    5    5      0.18     -1.64
    2    5    5     -6.15     -1.06
    3    5    5      2.50      5.69
    4    5    5      5.20      0.37
    5    5    5     -1.40     -4.57
    6    5    5     -3.67     -3.94
    7    5    5     -0.37      5.10
    8    5    5      0.88      3.14
    9    5    5     -1.58     -2.14
   10    5    5     -3.00      0.14
   11    5    5     -1.99     -3.60
   12    5    5     -2.43     -0.80
   13    5    5      2.76      2.12
    0    6    5     13.96      0.11
    2    6    5     -2.35     -6.87
    3    6    5     -3.64     -0.59
    4    6    5     -8.25      4.39
    5    6    5     -1.92     -0.74
    6    6    5     -2.64     -2.64
    7    6    5      3.37      7.59
    8    6    5      0.51      0.35
    9    6    5     -1.27     -2.29
   10    6    5     -0.80     -0.75
   11    6    5     -0.70      2.95
   12    6    5      3.96     -0.72
   13    6    5     -2.76      2.08
    0    7    5      0.28      8.32
    1    7    5     31.30     25.22
    2    7    5     19.24     -6.20
    3    7    5     -3.51     -8.95
    4    7    5      6.82     -2.03
    5    7    5      2.02     -0.31
    6    7    5     -0.66      2.64
    7    7    5      3.42     -2.27
    8    7    5      4.74      0.33
    9    7    5      0.23     -0.01
   10    7    5      0.89      3.13
   11    7    5     -1.07     -0.04
   12    7    5      4.46     -6.77
   13    7    5     -0.14      0.28
    0    8    5    -33.05     -0.09
    1    8    5      6.25     -7.04
    2    8    5      1.92     -7.60
    3    8    5      0.35     -2.56
    4    8    5      2.28      7.97
    5    8    5      3.84      5.30
    6    8    5     -1.61     -0.88
    7    8    5     -1.25      1.70
    8    8    5      5.06     -2.94
    9    8    5      0.57     -4.02
   10    8    5     -1.42      0.17
   11    8    5      1.61      2.06
   12    8    5      2.89     -2.54
   13    8    5     -2.42     -2.02
    0    9    5     -0.07     14.65
    2    9    5      1.23     -5.76
    3    9    5     -0.32    -10.04
    4    9    5     -4.77      2.45
    5    9    5      0.34     -4.30
    6    9    5     -0.24      1.94
    7    9    5      0.85      4.27
    8    9    5      0.23      2.15
    9    9    5      0.63     -2.30
   10    9    5     -0.01     -0.52
   11    9    5      0.06     -1.76
   12    9    5      0.82      0.00
   13    9    5     -1.27     -0.66
    0   10    5     -0.93     -0.42
    1   10    5      7.03     19.08
    2   10    5     -5.51     -0.38
    3   10    5      2.19     -5.43
    4   10    5      2.93     -0.48
    5   10    5      2.41      1.55
    6   10    5     -2.71     -1.80
    7   10    5     -0.78     -2.29
    8   10    5      1.51      2.29
    9   10    5     -0.72     -1.52
   10   10    5     -3.12      1.61
   11   10    5      1.33     -0.92
   12   10    5      0.09     -2.07
    0   11    5      0.22      0.61
    1   11    5     -3.31     -5.98
    2   11    5     -0.25      5.12
    3   11    5     -1.49      9.87
    4   11    5     -6.28     -1.63
    5   11    5      2.62      0.23
    6   11    5      5.99     -0.40
    7   11    5      0.87      2.85
    8   11    5     -1.48     -1.65
    9   11    5      0.33      2.09
   10   11    5      0.64      1.70
   11   11    5     -0.68     -5.26
   12   11    5      2.37     -0.02
    0   12    5     10.52     -0.70
    1   12    5     -4.85     -4.05
    2   12    5      7.26     -1.78
    3   12    5     -1.32     -4.45
    4   12    5     -0.64      0.68
    5   12    5     -1.36      5.14
    6   12    5     -1.24     -1.66
    7   12    5     -2.19     -0.10
    8   12    5      3.67      1.93
    9   12    5      0.20     -1.09
   10   12    5      0.98     -1.16
   11   12    5     -1.53      0.84
   12   12    5     -1.00     -1.09
    0   13    5     -0.32     -4.36
    1   13    5     -1.51     -2.88
    2   13    5      2.56      1.50
    3   13    5     -2.41     -1.10
    4   13    5      5.31     -1.19
    5   13    5     -0.80      2.75
    6   13    5     -0.94      0.33
    7   13    5     -2.37     -1.19
    8   13    5     -1.95      2.25
    9   13    5      0.00      1.29
   10   13    5     -0.14      1.71
   11   13    5     -3.08     -4.04
   12   13    5     -0.36     -0.80
    0   14    5     -6.13      0.06
    1   14    5     -1.07     -5.50
    2   14    5     -1.79     -5.53
    3   14    5     -0.87      1.35
    4   14    5     -4.25      1.92
    5   14    5     -3.38      2.32
    6   14    5      1.84      0.17
    7   14    5     -1.24      4.35
    8   14    5     -0.46     -1.30
    9   14    5     -0.19     -1.09
   10   14    5     -0.32     -0.48
   11   14    5     -1.45      1.31
   12   14    5      0.72      2.75
    0   15    5      0.22      3.00
    1   15    5      1.96      2.73
    2   15    5     -1.80     -5.68
    3   15    5      1.05     -0.87
    4   15    5      2.33     -2.09
    5   15    5     -1.33     -5.08
    6   15    5     -2.38      0.12
    7   15    5     -2.77      2.63
    8   15    5      0.99      0.52
    9   15    5      0.80     -2.62
   10   15    5      0.33     -2.19
   11   15    5     -4.29     -0.84
   12   15    5     -1.73      1.29
    0   16    5      0.06      1.39
    1   16    5      2.04      0.36
    2   16    5      0.19     -0.39
    3   16    5     -2.23     -3.02
    4   16    5      1.27     -1.41
    5   16    5      0.46      0.84
    6   16    5      0.79      2.39
    7   16    5     -2.00      1.21
    8   16    5      4.05     -0.06
    9   16    5     -1.64      0.17
   10   16    5      1.67     -0.36
   11   16    5      1.50      0.35
    0   17    5     -0.13     -3.27
    1   17    5      2.15      2.35
    2   17    5      0.85     -1.52
    3   17    5     -1.69      3.69
    4   17    5     -1.14     -1.98
    5   17    5     -0.65     -1.32
    6   17    5     -0.17     -0.07
    7   17    5     -4.65     -0.17
    8   17    5      0.59     -3.06
    9   17    5      0.23     -1.20
   10   17    5     -0.39     -0.79
   11   17    5     -2.71      2.96
    0   18    5     -2.17      3.10
    1   18    5     -1.47      0.78
    2   18    5     -0.41      0.00
    3   18    5      0.64     -1.22
    4   18    5     -2.30      0.63
    5   18    5      0.32     -0.45
    6   18    5      2.12     -1.41
    7   18    5     -0.45      1.42
    8   18    5      0.22      0.17
    9   18    5     -2.57     -1.87
   10   18    5      4.06     -0.25
    0   19    5     -0.36     -2.27
    1   19    5      3.34      1.16
    2   19    5      3.16      0.70
    3   19    5     -3.42     -1.42
    4   19    5     -3.78     -1.91
    5   19    5      2.44      3.57
    6   19    5     -1.21     -0.51
    7   19    5     -0.72      0.31
    8   19    5      2.22     -2.92
    9   19    5     -1.34      0.36
    0   20    5      2.86      1.04
    1   20    5      1.66     -0.75
    2   20    5     -0.39     -0.27
    3   20    5      2.54     -1.61
    4   20    5     -0.95      1.90
    5   20    5     -0.84      1.65
    6   20    5      0.25     -1.65
    7   20    5     -2.00      0.29
    8   20    5      0.52      0.82
    9   20    5      1.05     -0.50
    0   21    5     -0.07     -1.70
    1   21    5      2.30     -1.92
    2   21    5      0.65     -1.10
    3   21    5     -0.23     -2.34
    4   21    5     -1.89     -2.23
    5   21    5      0.77      5.17
    6   21    5      0.68     -0.82
    7   21    5     -0.26      1.72
    8   21    5      0.49     -0.72
    0   22    5     -0.66      0.15
    1   22    5      1.51      2.03
    2   22    5      1.72      3.06
    3   22    5      2.79     -2.79
    4   22    5     -3.17     -0.23
    5   22    5     -0.58      1.91
    6   22    5      1.89     -1.10
    7   22    5      1.53     -0.88
    0   23    5     -0.47     -3.47
    1   23    5      0.27      1.32
    2   23    5     -1.63     -2.54
    3   23    5      1.36     -0.11
    4   23    5      1.01      2.73
    5   23    5     -1.61      2.52
    6   23    5      3.67     -0.60
    0   24    5      1.68      0.18
    1   24    5      2.95     -0.13
    2   24    5      1.04      2.21
    3   24    5     -2.54     -3.85
    4   24    5     -1.08      1.32
    0   25    5      0.07      1.79
    1   25    5      1.00     -1.58
    2   25    5      0.58     -3.55
    0    0    6    -76.46      0.53
    1    0    6     15.62      0.08
    2    0    6     23.82      0.14
    3    0    6      6.05      0.01
    4    0    6     -0.87      0.15
    5    0    6     -3.28      0.07
    6    0    6      0.08     -0.04
    7    0    6      5.34     -0.03
    8    0    6     -1.29      0.11
    9    0    6     -0.37      0.29
   10    0    6      2.21     -0.03
   11    0    6     -3.17      0.26
   12    0    6     -3.38     -0.12
   13    0    6      3.00     -0.02
    0    1    6     -0.02     37.37
    1    1    6    -44.14    -19.91
    2    1    6    -17.79     17.37
    3    1    6     10.15      2.36
    4    1    6      6.96      7.82
    5    1    6     -2.37     -2.57
    6    1    6     -1.97      3.89
    7    1    6      2.32      2.12
    8    1    6     -0.71     -4.85
    9    1    6      1.58      1.32
   10    1    6     -0.36      3.71
   11    1    6      1.14     -0.56
   12    1    6      1.90     -0.46
   13    1    6      0.43     -1.39
    0    2    6    -48.58      0.42
    1    2    6    -35.88     29.55
    2    2    6     13.07    -19.67
    3    2    6     -6.86     -3.48
    4    2    6     -2.79    -13.28
    5    2    6      0.26      6.58
    6    2    6      3.46      8.64
    7    2    6      1.22     -0.27
    8    2    6      1.60      0.70
    9    2    6      2.14     -3.26
   10    2    6     -1.62      1.11
   11    2    6     -0.86      2.24
   12    2    6     -0.55      1.99
   13    2    6      2.23     -0.82
    0    3    6      0.22     56.38
    1    3    6    -17.47      8.86
    2    3    6     -4.07     21.89
    3    3    6    -11.19     -8.44
    4    3    6     -1.14    -13.27
    5    3    6    -11.22     -3.28
    6    3    6      1.17     -7.38
    7    3    6     -0.40      1.29
    8    3    6      0.73     -5.78
    9    3    6     -1.63      0.08
   10    3    6     -1.65      1.39
   11    3    6      2.18     -1.40
   12    3    6      1.48      3.80
   13    3    6     -0.24      1.53
    0    4    6    -24.12      0.09
    1    4    6    -12.14      4.61
    2    4    6     -3.91     19.48
    3    4    6    -12.33     -8.33
    4    4    6      2.74     -5.09
    5    4    6     -5.23      8.54
    6    4    6     -6.06      5.94
    7    4    6      5.49     -1.57
    8    4    6      3.35     -2.53
    9    4    6      0.96      0.38
   10    4    6     -3.01      2.15
   11    4    6     -1.43     -2.22
   12    4    6     -0.73      0.71
   13    4    6      0.91      0.24
    0    5    6     -0.01    -14.50
    1    5    6     21.28    -12.27
    2    5    6     -9.71      3.27
    3    5    6      7.92     -5.57
    4    5    6      6.43     -3.39
    5    5    6    -15.80      4.81
    6    5    6     -0.51     -8.93
    7    5    6     -0.43     -3.83
    8    5    6      3.50      2.20
    9    5    6     -0.34     -0.91
   10    5    6      1.39     -0.92
   11    5    6      1.19     -0.01
   12    5    6     -1.12      2.15
   13    5    6     -0.36      1.17
    0    6    6     10.76     -0.14
    2    6    6     -4.80      1.92
    3    6    6      7.82     -7.38
    4    6    6      5.29      5.17
    5    6    6      1.80      3.05
    6    6    6      1.99      1.24
    7    6    6     -5.21     -1.02
    8    6    6     -4.31     -0.46
    9    6    6      0.22      2.11
   10    6    6      2.57      0.59
   11    6    6      0.46     -3.10
   12    6    6     -1.77     -1.44
   13    6    6     -2.59      0.91
    0    7    6     -0.06      3.60
    1    7    6      7.55     -6.73
    2    7    6     -0.59    -11.21
    3    7    6      5.05     -1.45
    4    7    6     -0.74     -3.94
    5    7    6      5.73     -1.82
    6    7    6      8.10      4.54
    7    7    6     -5.45      1.65
    8    7    6     -0.65      1.57
    9    7    6     -0.02      1.06
   10    7    6      1.75      1.10
   11    7    6     -1.92      4.48
   12    7    6     -1.91      3.19
   13    7    6     -2.20      1.28
    0    8    6      9.42     -0.09
    1    8    6      4.39      7.24
    2    8    6     -7.34    -10.43
    3    8    6      4.84     -2.75
    4    8    6      0.87     -4.77
    5    8    6     -0.94      0.80
    6    8    6     -1.07     -3.04
    7    8    6      2.32     -1.50
    8    8    6      2.89      0.33
    9    8    6     -1.91      1.01
   10    8    6      0.07      0.29
   11    8    6     -0.82     -0.99
   12    8    6      3.43      0.27
   13    8    6     -0.69      0.33
    0    9    6     -0.18    -11.70
    1    9    6     -6.53     -9.36
    2    9    6      1.43     13.21
    3    9    6      0.89     -3.32
    4    9    6      4.83     -8.60
    5    9    6      4.96      0.83
    6    9    6      1.75     -0.19
    7    9    6     -1.99     -4.60
    8    9    6     -1.36     -0.08
    9    9    6      2.36      1.14
   10    9    6      1.08      3.66
   11    9    6     -2.59      1.05
   12    9    6      2.97      3.31
   13    9    6     -3.56      0.36
    0   10    6     -2.07     -0.36
    1   10    6      1.50     -0.19
    2   10    6      0.39     -2.92
    3   10    6     -5.37      3.06
    4   10    6     -3.44     -0.66
    5   10    6     -4.92     -3.19
    6   10    6      2.43     -2.16
    7   10    6     -0.66      0.32
    8   10    6      3.64     -2.38
    9   10    6      1.72     -1.32
   10   10    6      4.30     -1.96
   11   10    6     -1.46     -3.11
   12   10    6      2.14      3.56
   13   10    6      1.17     -0.43
    0   11    6     -0.19      7.64
    1   11    6     -1.34      2.71
    2   11    6      1.11      3.07
    3   11    6     11.36     -2.07
    4   11    6      2.36      0.23
    5   11    6     -0.87      1.70
    6   11    6     -5.05      2.64
    7   11    6      0.49      0.54
    8   11    6     -2.42      1.24
    9   11    6      0.65     -3.83
   10   11    6     -0.31     -0.84
   11   11    6     -0.99     -2.37
   12   11    6      5.34     -1.29
   13   11    6     -1.19      2.64
    0   12    6     -0.12     -0.17
    1   12    6      0.56      2.86
    2   12    6     -0.47      6.22
    3   12    6     -0.39      3.76
    4   12    6     -0.90     -2.72
    5   12    6      3.43     -0.23
    6   12    6     -0.84      1.89
    7   12    6     -2.96      2.38
    8   12    6      2.09      0.14
    9   12    6      0.61     -0.50
   10   12    6     -1.97     -4.32
   11   12    6      3.22     -3.23
   12   12    6      0.81      4.05
   13   12    6     -1.34      1.15
    0   13    6      0.84      5.09
    1   13    6     -2.26      2.71
    2   13    6      4.44     -7.75
    3   13    6      4.50      0.15
    4   13    6     -1.23      0.93
    5   13    6      1.17      1.41
    6   13    6     -3.45      0.22
    7   13    6      0.03      0.14
    8   13    6     -0.74      2.65
    9   13    6     -1.95     -1.36
   10   13    6     -1.67      1.65
   11   13    6     -2.67     -2.71
   12   13    6      2.60     -6.86
    0   14    6     -2.98     -1.44
    1   14    6      0.32      0.61
    2   14    6      0.48      1.02
    3   14    6      1.52     -3.81
    4   14    6     -2.81     -6.43
    5   14    6     -1.91     -1.21
    6   14    6     -1.38     -0.96
    7   14    6      2.70     -0.83
    8   14    6      1.42      2.81
    9   14    6      1.60      2.48
   10   14    6     -3.70      0.91
   11   14    6      3.80     -0.49
   12   14    6     -0.51      3.05
    0   15    6      0.31      4.30
    1   15    6     -0.82      2.98
    2   15    6     -0.87      5.92
    3   15    6     -3.42      0.70
    4   15    6     -2.64     -1.37
    5   15    6      7.02     -1.10
    6   15    6     -0.69     -2.42
    7   15    6     -3.59      0.17
    8   15    6      2.70     -0.08
    9   15    6      0.09     -0.25
   10   15    6     -1.28      4.99
   11   15    6      1.82      1.09
   12   15    6     -0.04     -2.72
    0   16    6      1.71     -0.77
    1   16    6     -1.47      1.90
    2   16    6      2.38     -0.75
    3   16    6     -2.21      2.75
    4   16    6     -3.01     -1.03
    5   16    6     -2.67     -2.56
    6   16    6     -1.29      0.49
    7   16    6     -1.08      3.03
    8   16    6      1.68     -0.45
    9   16    6      0.70      3.74
   10   16    6      0.20      1.24
   11   16    6     -1.89     -1.12
    0   17    6      1.05      0.14
    1   17    6      3.59      1.26
    2   17    6     -0.08      1.28
    3   17    6     -1.04     -1.41
    4   17    6      1.07     -0.39
    5   17    6     -2.41      2.52
    6   17    6     -3.23     -3.24
    7   17    6      1.20     -2.32
    8   17    6      1.83      2.50
    9   17    6     -2.39      2.33
   10   17    6     -0.86      0.48
   11   17    6      1.90      0.68
    0   18    6     -0.55      0.00
    1   18    6     -3.52     -1.64
    2   18    6      0.62      0.23
    3   18    6      3.52      2.21
    4   18    6     -1.68     -3.39
    5   18    6     -1.72     -0.18
    6   18    6     -0.21      3.19
    7   18    6      0.61      0.68
    8   18    6      0.85     -2.65
    9   18    6      1.42      1.89
   10   18    6     -0.60      2.49
    0   19    6     -0.03     -4.51
    1   19    6     -0.07     -2.77
    2   19    6      0.32      1.38
    3   19    6      0.28     -3.60
    4   19    6     -0.62     -0.45
    5   19    6     -4.09      1.61
    6   19    6     -2.13      0.89
    7   19    6      2.21      2.97
    8   19    6      1.46      0.35
    9   19    6     -1.57      2.01
    0   20    6     -1.78     -0.51
    1   20    6      0.27      3.34
    2   20    6      2.62      1.73
    3   20    6      1.16     -0.79
    4   20    6     -2.16     -4.36
    5   20    6      2.04      1.34
    6   20    6     -0.79      0.26
    7   20    6      0.84     -1.76
    8   20    6      0.96     -0.34
    9   20    6     -1.24      0.97
    0   21    6      0.44      2.04
    1   21    6     -3.36     -0.73
    2   21    6      0.51      1.69
    3   21    6      2.33     -0.10
    4   21    6     -4.53      1.89
    5   21    6     -3.32      2.96
    6   21    6      0.77     -0.99
    7   21    6     -0.67      2.21
    8   21    6     -0.54      0.70
    0   22    6     -0.07     -0.15
    1   22    6      1.95      4.39
    2   22    6     -2.11      2.16
    3   22    6     -2.06     -4.31
    4   22    6      1.66     -0.57
    5   22    6      0.62      1.55
    6   22    6     -1.54      0.07
    7   22    6     -0.06     -0.23
    0   23    6      0.28      0.22
    1   23    6      1.48     -3.85
    2   23    6      2.77      0.73
    3   23    6      1.66      2.10
    4   23    6     -3.42      1.89
    5   23    6     -1.38      0.06
    6   23    6      2.04     -0.47
    0   24    6      0.85     -0.30
    1   24    6     -3.62      2.36
    2   24    6     -2.41     -0.82
    3   24    6      2.13     -0.98
    4   24    6      3.31     -0.13
    0   25    6      0.21     -2.38
    1   25    6     -0.12      0.06
    2   25    6     -0.38      2.18
    1    0    7      0.38    -13.67
    2    0    7     -0.01     25.19
    3    0    7     -0.33    -16.59
    4    0    7      0.20    -13.65
    6    0    7      0.07      4.48
    7    0    7     -0.01     -0.16
    8    0    7     -0.47     -0.30
    9    0    7      0.15     -1.44
   10    0    7      1.10      0.41
   11    0    7     -0.13      1.08
   12    0    7     -0.48     -2.26
   13    0    7      0.02     -4.16
    0    1    7     -0.06    -26.13
    1    1    7    -28.40     22.28
    3    1    7     -5.42    -18.55
    4    1    7     16.84      8.26
    5    1    7    -10.15     -5.34
    6    1    7     -2.21     -4.13
    7    1    7      2.87      3.54
    8    1    7     -1.46      2.88
    9    1    7     -0.90      0.64
   10    1    7     -0.08     -1.57
   11    1    7      4.05      0.52
   12    1    7      5.22      1.55
   13    1    7     -0.53     -0.39
   14    1    7     -0.71     -1.83
    0    2    7    -28.41     -0.13
    1    2    7     13.27     -7.42
    3    2    7      0.21      3.19
    4    2    7      2.83      3.67
    5    2    7     -5.23      3.81
    6    2    7      0.09      1.19
    7    2    7      1.61     -0.35
    8    2    7      9.55     -0.24
    9    2    7     -1.23      0.33
   10    2    7     -0.30     -1.69
   11    2    7     -2.33     -1.10
   12    2    7      1.72     -0.07
   13    2    7      1.01     -0.27
    0    3    7      0.06    -10.81
    1    3    7     -1.84     20.85
    3    3    7      5.08    -10.72
    4    3    7     -5.05     -0.53
    5    3    7      3.40      6.35
    6    3    7     -4.29      0.85
    7    3    7      0.86      1.46
    8    3    7     -1.83     -3.07
    9    3    7      1.27     -2.98
   10    3    7      3.59     -2.60
   11    3    7     -1.13     -1.90
   12    3    7      1.23      2.20
   13    3    7      1.51     -1.76
    0    4    7    -12.66     -0.09
    1    4    7    -13.88      0.02
    2    4    7      5.99      1.49
    3    4    7      2.97     -7.88
    4    4    7      6.28     -6.85
    5    4    7     -1.66     -1.30
    6    4    7     -7.75      4.97
    7    4    7     -0.07      1.66
    8    4    7      2.67      1.25
    9    4    7      2.59      0.82
   10    4    7      1.60     -3.13
   11    4    7     -2.32      0.28
   12    4    7     -0.56      2.68
   13    4    7      0.76     -1.15
    0    5    7      0.16     -3.10
    1    5    7     17.46     19.64
    3    5    7     -0.29      6.20
    4    5    7      0.10      4.37
    5    5    7      5.62      1.20
    6    5    7     -1.28      1.39
    7    5    7      2.73      4.19
    8    5    7      0.45      3.18
    9    5    7     -0.44      1.54
   10    5    7     -1.39     -0.77
   11    5    7     -0.41     -0.51
   12    5    7     -2.05     -3.81
   13    5    7      4.36      5.13
    0    6    7     18.08     -0.16
    1    6    7     15.32    -23.85
    2    6    7     -2.50    -10.84
    3    6    7     -2.91      0.24
    4    6    7     -2.61      0.76
    5    6    7     -7.92      1.03
    6    6    7     -1.28     -3.45
    7    6    7      3.87      2.84
    8    6    7     -0.57     -1.52
    9    6    7     -1.22     -0.72
   10    6    7      2.82      0.76
   11    6    7     -1.94      4.50
   12    6    7     -4.79     -0.98
   13    6    7      1.60     -0.32
    0    7    7      0.21      3.55
    2    7    7      3.41      8.96
    3    7    7      3.18     -3.89
    4    7    7      8.24     -0.89
    5    7    7      3.96     -3.42
    6    7    7     -0.86      4.93
    7    7    7      1.73     -1.74
    8    7    7     -0.99     -4.27
    9    7    7     -3.21      3.82
   10    7    7     -1.04      2.37
   11    7    7      1.22     -2.41
   12    7    7     -0.60     -6.52
   13    7    7     -0.38      2.99
    0    8    7    -12.99     -0.11
    1    8    7      6.22    -26.02
    2    8    7     -8.24     -1.54
    3    8    7     -6.98     -4.34
    4    8    7      0.03      2.38
    5    8    7      1.63      2.65
    6    8    7      2.64      2.63
    7    8    7     -0.49     -1.67
    8    8    7      3.50     -4.98
    9    8    7      0.84     -1.64
   10    8    7      1.42      1.93
   11    8    7     -1.72      1.12
   12    8    7     -2.47     -2.08
   13    8    7      0.22      0.23
    0    9    7     -0.31      6.41
    1    9    7      4.51     -4.62
    2    9    7     -0.44      0.42
    3    9    7      3.40    -12.19
    4    9    7     -0.56     -1.10
    5    9    7      2.95     -2.96
    6    9    7     -0.70      2.89
    7    9    7      2.52      1.00
    8    9    7     -2.66     -0.63
    9    9    7     -3.51     -1.43
   10    9    7      1.86      0.29
   11    9    7     -0.17     -2.38
   12    9    7     -1.55      0.15
   13    9    7     -4.50      1.00
    0   10    7      6.59     -0.08
    1   10    7      0.84      9.61
    2   10    7     -0.21      1.36
    3   10    7      4.06      0.24
    4   10    7      1.32      1.09
    5   10    7     -1.75     -1.20
    6   10    7      1.31     -3.96
    7   10    7      4.18     -1.02
    8   10    7      0.33     -0.45
    9   10    7      0.10      0.91
   10   10    7     -0.02     -0.08
   11   10    7     -3.89     -0.89
   12   10    7      0.15     -0.05
   13   10    7     -0.25     -2.31
    0   11    7     -0.30     -2.44
    1   11    7      3.04      2.53
    2   11    7     -0.56     -0.06
    3   11    7     -6.35      6.35
    4   11    7     -5.27      0.18
    5   11    7      5.03     -0.26
    6   11    7      0.42      0.87
    7   11    7      0.92      0.71
    8   11    7      0.66     -2.79
    9   11    7     -2.08      2.61
   10   11    7      1.46      1.31
   11   11    7     -1.29     -3.30
   12   11    7     -0.58     -1.47
   13   11    7      0.91      0.76
    0   12    7     -1.10     -0.14
    1   12    7     -5.79     -1.17
    2   12    7      5.69     -2.81
    3   12    7      1.51     -1.68
    4   12    7     -1.41      0.27
    5   12    7      0.28      3.11
    6   12    7     -3.17     -1.86
    7   12    7     -1.61     -1.14
    8   12    7     -1.33      3.14
    9   12    7      3.96      2.04
   10   12    7      4.18     -1.51
   11   12    7     -4.14      1.64
   12   12    7     -3.23      0.87
   13   12    7     -1.58     -0.82
    0   13    7     -0.58      2.19
    1   13    7     -0.95      3.57
    2   13    7     -4.69     -0.50
    3   13    7      0.28      3.31
    4   13    7      5.08      2.79
    5   13    7      5.51      1.94
    6   13    7      0.26     -2.39
    7   13    7      0.41     -1.88
    8   13    7     -0.98     -0.07
    9   13    7     -2.36      2.73
   10   13    7      0.71     -0.02
   11   13    7     -0.65     -1.43
   12   13    7      1.21     -2.05
    0   14    7     -5.12      0.56
    1   14    7      1.36     -4.84
    2   14    7     -0.85      0.10
    3   14    7     -1.64      2.23
    4   14    7     -0.60     -1.32
    5   14    7     -1.17      2.04
    6   14    7      1.36      1.93
    7   14    7      1.37      2.68
    8   14    7      1.28      0.34
    9   14    7     -0.57     -0.56
   10   14    7      0.55      0.62
   11   14    7     -3.42      1.42
   12   14    7      0.00      1.35
    0   15    7      0.54      2.22
    1   15    7     -4.82     -0.99
    2   15    7     -6.57      0.02
    3   15    7     -0.22      0.01
    4   15    7      1.91      0.63
    5   15    7      0.65     -0.82
    6   15    7      0.55     -0.43
    7   15    7      3.96      4.39
    8   15    7     -1.36     -0.57
    9   15    7     -0.70      0.25
   10   15    7      1.66     -0.77
   11   15    7     -1.20      0.05
    0   16    7     -2.90     -0.54
    1   16    7      0.51     -1.07
    2   16    7     -3.79      1.40
    3   16    7      1.34      0.18
    4   16    7     -1.65     -3.05
    5   16    7     -3.95      0.80
    6   16    7     -1.47      2.79
    7   16    7     -0.01      2.99
    8   16    7      0.16     -2.67
    9   16    7     -0.98      3.10
   10   16    7     -2.94     -0.06
   11   16    7      1.96      1.80
    0   17    7      1.48      2.49
    1   17    7      1.42      3.21
    2   17    7      0.98      0.93
    3   17    7     -2.09     -0.19
    4   17    7     -1.50      0.11
    5   17    7     -0.07     -2.40
    6   17    7      0.55      0.18
    7   17    7      0.81      2.65
    8   17    7     -0.76     -3.12
    9   17    7     -1.20     -0.18
   10   17    7      1.56     -5.36
    0   18    7     -5.11      0.83
    1   18    7      2.22     -0.93
    2   18    7      2.54     -0.37
    3   18    7      2.95      1.03
    4   18    7     -1.75      3.04
    5   18    7      0.90     -0.49
    6   18    7     -2.30      0.98
    7   18    7      1.08     -1.07
    8   18    7     -2.67      0.28
    9   18    7     -1.98      0.01
   10   18    7      1.84      2.04
    0   19    7      1.36     -0.84
    1   19    7     -0.21      3.30
    2   19    7      3.39      0.37
    3   19    7     -1.27     -1.37
    4   19    7     -0.97      1.58
    5   19    7      1.79     -0.24
    6   19    7     -1.98      0.31
    7   19    7      0.11      3.45
    8   19    7     -0.53     -1.36
    9   19    7     -1.64      0.79
    0   20    7     -2.81      0.21
    1   20    7      2.67     -1.63
    2   20    7      0.73     -3.91
    3   20    7     -0.98      0.78
    4   20    7     -1.42      3.76
    5   20    7      4.31     -1.26
    6   20    7     -2.33     -1.60
    7   20    7      1.03      0.12
    8   20    7     -1.89     -0.18
    9   20    7      0.95      0.99
    0   21    7      0.45      0.67
    1   21    7      1.52     -2.36
    2   21    7      2.87     -0.78
    3   21    7     -4.84     -4.25
    4   21    7     -0.94      0.42
    5   21    7      3.75      1.59
    6   21    7     -0.35     -0.63
    7   21    7     -2.13      0.04
    8   21    7      0.72     -2.13
    0   22    7     -5.46      0.45
    1   22    7      0.02      0.92
    2   22    7     -0.49     -0.79
    3   22    7     -0.22     -1.78
    4   22    7     -0.62      1.94
    5   22    7      0.06     -0.04
    6   22    7      0.14     -2.69
    7   22    7      2.40     -0.18
    0   23    7     -0.33      0.49
    1   23    7      1.90      1.64
    2   23    7      1.73     -2.96
    3   23    7     -2.59     -1.06
    4   23    7      1.47      2.34
    5   23    7     -0.95      0.77
    6   23    7     -0.03      0.51
    0   24    7     -2.02      0.15
    1   24    7      2.34     -0.34
    2   24    7     -0.02      1.91
    3   24    7     -0.99     -1.33
    4   24    7      1.98     -1.33
    0   25    7      0.11     -0.17
    1   25    7     -1.38      0.31
    0    0    8    -16.08      0.05
    1    0    8     -2.90      0.09
    3    0    8     18.14      0.12
    4    0    8      8.13     -0.02
    5    0    8     -2.11      0.02
    6    0    8     -5.61     -0.05
    7    0    8      6.62     -0.11
    8    0    8     -2.91      0.07
    9    0    8     -1.97      0.11
   10    0    8      2.33     -0.04
   11    0    8     -1.40      0.07
   12    0    8     -0.29     -0.01
   13    0    8     -2.45     -0.04
   14    0    8     -1.51      0.04
    0    1    8      0.57     28.45
    1    1    8     -9.10      1.65
    3    1    8     -3.76      2.49
    4    1    8      2.27      0.88
    5    1    8      5.91     -1.51
    6    1    8      4.30      0.81
    7    1    8      0.74     -0.67
    8    1    8      0.26     -1.73
    9    1    8      1.15     -1.94
   10    1    8      0.39      1.46
   11    1    8      0.27      4.49
   12    1    8      1.18     -0.02
   13    1    8      0.41     -3.51
   14    1    8      0.91      0.15
    0    2    8     28.59     -0.04
    1    2    8    -18.77     28.33
    3    2    8     -4.39     -0.49
    4    2    8     -7.89     -5.59
    5    2    8     -2.71     11.20
    6    2    8     -2.07     -0.12
    7    2    8      0.88      2.21
    8    2    8     -7.60      0.34
    9    2    8      2.97     -3.16
   10    2    8      0.59     -1.38
   11    2    8     -1.40     -0.45
   12    2    8      2.16      0.74
   13    2    8      1.21      1.03
   14    2    8      0.07     -0.79
    0    3    8      0.28     55.23
    1    3    8     18.12     25.20
    3    3    8     -8.87      7.77
    4    3    8    -16.27     -6.38
    5    3    8      8.87     -0.94
    6    3    8      7.69     -0.41
    7    3    8     -0.18     -1.78
    8    3    8      1.55     -6.49
    9    3    8      1.33     -0.89
   10    3    8      0.86      1.97
   11    3    8      0.46      0.59
   12    3    8      3.04     -1.12
   13    3    8     -0.35     -0.81
   14    3    8      0.47     -1.59
    0    4    8      8.47     -0.12
    1    4    8    -13.90     -2.41
    3    4    8     -7.65      2.12
    4    4    8     -4.03      3.09
    5    4    8     -2.92     17.05
    6    4    8    -10.94      2.56
    7    4    8      1.16     -1.95
    8    4    8     -2.00     -2.77
    9    4    8      1.14     -0.13
   10    4    8     -1.22      2.28
   11    4    8     -1.14     -1.17
   12    4    8      1.51      0.60
   13    4    8      1.76      0.12
   14    4    8      1.44     -2.25
    0    5    8      0.15     -1.67
    1    5    8     13.14     -8.88
    3    5    8     -7.27     -2.82
    4    5    8      5.38     -3.62
    5    5    8     -1.45      7.76
    6    5    8     -1.32      1.93
    7    5    8     -3.17     -3.47
    8    5    8     -0.72      1.56
    9    5    8      0.48      0.62
   10    5    8      1.08     -0.91
   11    5    8     -1.07      0.06
   12    5    8     -2.00      0.31
   13    5    8      0.66      2.21
    0    6    8     -3.18     -0.10
    3    6    8      3.36     -8.12
    4    6    8     -5.12      1.94
    5    6    8      1.79      3.25
    6    6    8      0.87     -3.63
    7    6    8      1.22      2.87
    8    6    8     -2.67     -3.17
    9    6    8     -2.06      2.50
   10    6    8      0.00     -1.57
   11    6    8      5.18     -1.43
   12    6    8      1.36     -0.33
   13    6    8     -0.75      0.35
    0    7    8     -0.03    -11.62
    1    7    8      1.80     -3.62
    2    7    8     -3.26     -3.07
    3    7    8     -2.77     -6.22
    4    7    8      0.00     -0.44
    5    7    8      1.69     -2.50
    6    7    8      5.33      0.53
    7    7    8     -2.07      1.74
    8    7    8     -3.71     -0.61
    9    7    8      1.66     -1.21
   10    7    8      0.82      0.24
   11    7    8     -1.55      1.17
   12    7    8     -1.29     -1.70
   13    7    8     -0.64      2.80
    0    8    8      7.98     -0.08
    1    8    8     -2.29     -2.98
    3    8    8     -7.53     -6.56
    4    8    8     -6.52     -7.74
    5    8    8      1.21     -2.14
    6    8    8      0.13     -4.94
    7    8    8      0.15      1.88
    8    8    8      3.02      3.18
    9    8    8     -0.32      2.51
   10    8    8      1.21     -0.81
   11    8    8      3.00      2.24
   12    8    8      4.46     -1.36
   13    8    8     -1.75      3.02
    0    9    8     -0.23     -0.45
    1    9    8     -1.14    -10.17
    3    9    8      0.65      0.11
    4    9    8      0.51      5.65
    5    9    8     -1.18      2.93
    6    9    8      0.55     -2.58
    7    9    8     -1.58     -5.03
    8    9    8     -1.68     -4.48
    9    9    8      1.00      1.25
   10    9    8      0.41      0.99
   11    9    8      0.65      2.43
   12    9    8      5.06     -2.94
   13    9    8     -2.94      0.01
    0   10    8     -2.28      0.05
    1   10    8     -0.80      3.56
    2   10    8      5.35      0.60
    3   10    8     -8.38     -2.92
    4   10    8     -6.41     -3.59
    5   10    8     -1.21      0.81
    6   10    8      1.61     -0.23
    7   10    8     -0.33     -0.71
    8   10    8      0.75      3.12
    9   10    8      0.62     -3.04
   10   10    8      5.72     -1.17
   11   10    8     -1.22      4.08
   12   10    8      1.22     -5.37
   13   10    8      0.79      1.02
    0   11    8     -0.25      4.84
    1   11    8      1.43      1.56
    2   11    8     -3.07      1.55
    3   11    8      7.02      2.59
    4   11    8     -0.95      1.25
    5   11    8     -2.00     -1.54
    6   11    8     -1.45      0.31
    7   11    8      0.34      3.20
    8   11    8     -2.59     -2.37
    9   11    8     -0.93     -3.40
   10   11    8     -5.81     -3.79
   11   11    8      0.60     -3.74
   12   11    8      7.31     -1.00
   13   11    8     -0.37      0.98
    0   12    8      4.65     -0.18
    1   12    8      2.60     -1.69
    2   12    8     -4.33     -1.08
    3   12    8      0.69     -5.84
    4   12    8      2.58      1.45
    5   12    8      1.42     -2.45
    6   12    8      1.68      4.81
    7   12    8     -0.18     -1.31
    8   12    8      3.47      2.97
    9   12    8     -4.87     -2.07
   10   12    8     -2.59      1.07
   11   12    8     -1.77      0.08
   12   12    8     -4.44     -5.14
   13   12    8     -0.26      1.94
    0   13    8     -0.53      1.79
    1   13    8     -1.42     -0.80
    2   13    8      1.90      0.99
    3   13    8      1.29     -2.16
    4   13    8     -3.45      2.46
    5   13    8     -0.33      1.38
    6   13    8     -1.87      5.01
    7   13    8      4.37      0.66
    8   13    8      1.99     -1.64
    9   13    8     -1.09     -1.32
   10   13    8     -3.38      3.99
   11   13    8     -1.65     -4.76
   12   13    8      3.26     -1.47
    0   14    8      1.88     -2.42
    1   14    8      0.58      3.25
    2   14    8      0.85      1.23
    3   14    8      2.91      2.35
    4   14    8     -1.47     -2.88
    5   14    8     -3.41     -7.11
    6   14    8     -1.38      4.95
    7   14    8      2.61      1.52
    8   14    8      3.19     -1.57
    9   14    8     -1.17      3.29
   10   14    8      1.50      0.84
   11   14    8      1.79      0.06
   12   14    8     -4.26     -1.73
    0   15    8     -2.46     -2.19
    1   15    8     -1.72      2.95
    2   15    8     -1.16     -1.65
    3   15    8     -1.51      0.00
    4   15    8     -3.96      1.17
    5   15    8     -0.08      2.12
    6   15    8     -0.95      1.68
    7   15    8      1.37      0.80
    8   15    8      0.64     -1.44
    9   15    8      2.94     -3.33
   10   15    8      0.14      3.18
   11   15    8     -0.95     -0.31
    0   16    8      1.44     -2.27
    1   16    8      1.45     -2.97
    2   16    8      6.84      0.02
    3   16    8     -0.82      4.10
    4   16    8     -5.31      0.07
    5   16    8     -0.40     -6.08
    6   16    8     -4.99      0.81
    7   16    8     -0.47      1.14
    8   16    8      1.53     -2.83
    9   16    8      1.59      1.91
   10   16    8      2.18      1.89
   11   16    8      0.12     -3.03
    0   17    8     -0.02      2.39
    1   17    8      0.75      7.00
    2   17    8      0.03     -1.18
    3   17    8      0.74     -1.65
    4   17    8      0.96      1.38
    5   17    8     -1.35      2.96
    6   17    8      0.08      0.54
    7   17    8      1.63      0.09
    8   17    8     -1.19      0.28
    9   17    8      3.75     -0.05
   10   17    8      2.19     -0.44
    0   18    8     -4.15     -0.35
    1   18    8     -0.59     -3.25
    2   18    8      2.73     -1.32
    3   18    8     -2.72      3.04
    4   18    8     -1.78      1.89
    5   18    8      0.53      2.62
    6   18    8     -0.27      2.53
    7   18    8     -0.75     -2.88
    8   18    8      4.11     -3.33
    9   18    8      1.68      2.66
   10   18    8      0.28      3.45
    0   19    8     -0.48     -1.85
    1   19    8      1.51      0.79
    2   19    8     -0.32     -2.11
    3   19    8     -1.23     -4.66
    4   19    8     -3.44      0.84
    5   19    8      0.34     -0.08
    6   19    8     -0.14      0.20
    7   19    8     -0.86     -1.13
    8   19    8     -1.87     -1.09
    9   19    8      0.95     -0.58
    0   20    8     -2.96     -0.22
    1   20    8     -1.04      1.93
    2   20    8      0.90      0.07
    3   20    8      0.55      0.19
    4   20    8     -0.14      1.90
    5   20    8      5.09      2.95
    6   20    8      0.95      1.78
    7   20    8      2.09     -2.52
    8   20    8     -0.03     -1.30
    0   21    8     -0.15     -0.07
    1   21    8      1.35     -1.51
    2   21    8      0.75      0.91
    3   21    8     -3.07      1.87
    4   21    8     -4.35     -0.17
    5   21    8      0.37      0.64
    6   21    8      2.16      0.84
    7   21    8      0.30     -1.15
    8   21    8      0.29     -0.62
    0   22    8      1.13     -0.75
    1   22    8     -2.00      1.27
    2   22    8     -0.13     -1.76
    3   22    8      0.94     -4.15
    4   22    8      4.53      2.14
    5   22    8      0.25      5.55
    6   22    8     -1.14     -2.33
    7   22    8      1.88     -1.99
    0   23    8     -0.39      1.74
    1   23    8      3.63      0.81
    2   23    8      1.58      3.10
    3   23    8     -0.61      1.94
    4   23    8     -1.87     -2.60
    5   23    8     -1.10     -1.00
    0   24    8     -2.64     -0.69
    1   24    8     -1.14      0.07
    2   24    8      0.15     -0.78
    3   24    8      1.86      1.19
    4   24    8      1.33      2.07
    0   25    8     -0.21     -1.41
    1   25    8      0.27      4.23
    1    0    9     -0.36      6.78
    2    0    9      0.01      9.90
    3    0    9     -0.05      5.45
    4    0    9     -0.02    -14.53
    5    0    9      0.06     14.52
    6    0    9      0.04      2.73
    8    0    9     -0.21      1.42
    9    0    9     -0.18     -0.83
   10    0    9     -0.33      0.01
   11    0    9      0.18     -3.10
   12    0    9     -0.31     -4.34
   13    0    9     -0.02     -1.22
   14    0    9      0.05     -1.00
    0    1    9     -0.09     -4.55
    1    1    9     -4.96    -10.60
    2    1    9      6.82      9.25
    3    1    9    -10.38     -3.44
    4    1    9      4.24      1.76
    5    1    9      5.49     -2.36
    6    1    9      4.23     -1.78
    7    1    9     -1.65      1.16
    8    1    9      1.83     -3.43
    9    1    9     -0.25      3.02
   10    1    9     -2.14      0.14
   11    1    9      1.32      1.64
   12    1    9      1.16     -0.78
   13    1    9     -1.77     -1.45
   14    1    9     -0.16     -1.88
    0    2    9    -28.28     -0.08
    1    2    9     21.36     10.21
    2    2    9    -16.53    -18.60
    3    2    9     -6.56      1.87
    4    2    9      3.82      0.06
    5    2    9     -4.28      2.99
    6    2    9     -3.64      1.29
    7    2    9      4.21     -3.15
    8    2    9      4.19      2.91
    9    2    9     -0.47     -4.43
   10    2    9     -2.81     -1.74
   11    2    9     -1.93     -1.49
   12    2    9      2.38     -3.28
   13    2    9      0.38      1.45
   14    2    9     -2.42      1.84
    0    3    9     -0.16     31.09
    1    3    9     -9.49      5.27
    2    3    9    -11.95      4.24
    3    3    9      2.06     -7.19
    4    3    9     -7.78     -5.78
    5    3    9      1.02      4.03
    6    3    9     -1.39      9.96
    7    3    9      0.24      1.50
    8    3    9      1.40     -6.28
    9    3    9      4.17      0.10
   10    3    9     -1.50     -1.01
   11    3    9     -0.39     -0.34
   12    3    9      0.89      0.88
   13    3    9      1.48     -1.74
   14    3    9      0.09     -3.53
    0    4    9     -5.95     -0.21
    1    4    9      8.26     -2.46
    3    4    9     -4.62     -1.48
    4    4    9      2.87     -6.19
    5    4    9      3.40     -8.26
    6    4    9     -2.17      7.48
    7    4    9     -0.35      0.11
    8    4    9      0.92      3.68
    9    4    9     -0.57     -2.21
   10    4    9     -1.84     -4.43
   11    4    9     -2.61      0.96
   12    4    9     -1.92      2.23
   13    4    9      1.39     -4.06
   14    4    9      0.22      0.80
    0    5    9      0.10     -6.95
    3    5    9     -4.67      2.71
    4    5    9     -4.95     -0.21
    5    5    9     -2.45      6.87
    6    5    9      0.25      0.48
    7    5    9      2.77     -0.11
    8    5    9     -0.49      4.26
    9    5    9      1.20      0.11
   10    5    9     -2.71     -3.04
   11    5    9      2.09     -0.03
   12    5    9     -0.22      2.41
   13    5    9      1.70     -0.42
   14    5    9      0.75     -0.97
    0    6    9      8.07     -0.23
    1    6    9     18.28    -17.63
    2    6    9      9.84     -4.47
    3    6    9     -3.72    -15.88
    4    6    9      0.24     -0.31
    5    6    9     -5.39     -1.38
    6    6    9      1.21     -2.98
    7    6    9      5.93     -0.02
    8    6    9      0.39      3.14
    9    6    9      5.13      0.77
   10    6    9      1.60     -0.56
   11    6    9     -2.02      1.99
   12    6    9     -7.52      1.25
   13    6    9      6.31     -2.84
   14    6    9     -1.28      0.19
    0    7    9      0.09     -5.25
    1    7    9    -21.72     -6.34
    3    7    9     -6.06      5.42
    4    7    9      0.58      2.44
    5    7    9      6.31     -1.34
    6    7    9      2.17      0.56
    7    7    9     -1.11     -0.11
    8    7    9     -2.80     -2.93
    9    7    9      0.40      0.57
   10    7    9      3.52      0.03
   11    7    9      3.13      1.16
   12    7    9     -0.28      1.37
   13    7    9      0.48     -1.66
   14    7    9      0.17     -1.68
    0    8    9     -7.22     -0.06
    1    8    9     -4.82     -0.63
    2    8    9      2.50     -3.44
    3    8    9    -16.34    -16.04
    4    8    9     -0.44     -3.17
    5    8    9      0.37      1.34
    6    8    9      4.95     -0.53
    7    8    9     -3.68     -1.23
    8    8    9     -1.23      2.02
    9    8    9      2.67      2.37
   10    8    9      1.67     -0.53
   11    8    9     -5.27      0.24
   12    8    9     -2.66     -0.49
   13    8    9      1.21      3.14
    0    9    9     -0.17      6.44
    1    9    9     -4.46     -2.23
    2    9    9      6.15      5.25
    3    9    9     -1.32     -7.91
    4    9    9     -4.02      1.94
    5    9    9     -1.32     -0.17
    6    9    9     -0.55     -1.86
    7    9    9      0.43     -2.15
    8    9    9     -3.97     -1.05
    9    9    9     -0.52     -0.40
   10    9    9      0.57     -2.28
   11    9    9      0.00      2.33
   12    9    9     -1.06      3.18
   13    9    9     -4.10     -0.55
    0   10    9     -4.47      0.36
    1   10    9      3.55      6.11
    3   10    9     -0.57     -0.86
    4   10    9     -2.95      3.49
    5   10    9     -0.80     -5.62
    6   10    9      2.47      1.09
    7   10    9      1.59     -3.21
    8   10    9     -1.07      1.65
    9   10    9     -0.15      1.69
   10   10    9     -0.50     -1.76
   11   10    9     -3.65      1.40
   12   10    9     -1.43      2.07
   13   10    9      2.52      0.58
    0   11    9     -0.05     -5.49
    1   11    9      5.45      4.48
    2   11    9     -2.45     -2.86
    3   11    9     -1.61     -2.38
    4   11    9     -4.86     -0.63
    5   11    9      2.05      4.04
    6   11    9     -1.96      1.18
    7   11    9      2.75     -2.33
    8   11    9      2.64     -0.45
    9   11    9      3.12     -2.12
   10   11    9      0.02     -1.87
   11   11    9     -1.59      0.67
   12   11    9      1.76      1.45
   13   11    9      0.24      0.89
    0   12    9     10.03     -0.05
    1   12    9      1.01     -3.89
    2   12    9      4.99      0.43
    3   12    9      7.28      0.95
    4   12    9      0.57     -3.32
    5   12    9      0.21     -2.06
    6   12    9     -1.37      1.55
    7   12    9     -2.89     -0.89
    8   12    9     -0.74     -0.21
    9   12    9      3.57      4.04
   10   12    9      3.36     -4.87
   11   12    9     -2.80      0.32
   12   12    9     -4.16      0.54
    0   13    9     -0.09      5.07
    1   13    9     -7.49     -0.42
    2   13    9      2.26     -2.23
    3   13    9     -1.99      2.50
    4   13    9      2.17      1.22
    5   13    9      2.36      2.31
    6   13    9      0.52      0.90
    7   13    9     -1.28     -0.81
    8   13    9      1.51      0.39
    9   13    9      1.54     -2.06
   10   13    9     -0.99     -2.09
   11   13    9     -2.30      2.82
   12   13    9      2.36      0.47
    0   14    9     -2.64      0.58
    1   14    9     -0.75      1.47
    2   14    9     -0.80      7.05
    3   14    9     -1.37     -1.25
    4   14    9     -0.36     -3.90
    5   14    9     -0.07     -2.67
    6   14    9     -0.98     -0.99
    7   14    9      1.49      0.17
    8   14    9      1.15      1.68
    9   14    9      2.00      1.49
   10   14    9     -1.06     -2.64
   11   14    9     -0.83      2.45
   12   14    9     -0.74      1.39
    0   15    9      0.09      4.07
    1   15    9     -1.37     -0.77
    2   15    9     -0.94     -1.23
    3   15    9      4.37     -0.56
    4   15    9     -0.39      1.47
    5   15    9      1.96      1.69
    6   15    9      0.56     -0.91
    7   15    9      3.38      0.51
    8   15    9     -0.61     -0.54
    9   15    9      3.90     -0.74
   10   15    9      2.65      1.84
   11   15    9     -0.24      0.48
    0   16    9      1.75     -1.14
    1   16    9      1.41      1.71
    2   16    9      0.61      2.93
    3   16    9     -2.03      1.01
    4   16    9      0.35      0.85
    5   16    9     -1.59     -2.64
    6   16    9      1.72      0.83
    7   16    9      3.72     -1.55
    8   16    9     -1.00     -0.15
    9   16    9     -0.73      1.80
   10   16    9     -4.69     -2.40
   11   16    9      0.10     -0.17
    0   17    9      0.40      3.60
    1   17    9     -1.09      1.25
    2   17    9      0.60     -0.14
    3   17    9     -3.22     -3.44
    4   17    9     -1.87      1.06
    5   17    9      1.04      1.66
    6   17    9      1.53      3.17
    7   17    9     -1.60      0.08
    8   17    9     -1.34      0.47
    9   17    9      2.33      0.70
   10   17    9      1.81     -0.09
    0   18    9      0.91     -0.18
    1   18    9      4.20      1.35
    2   18    9      0.71     -3.49
    3   18    9      1.10     -0.14
    4   18    9      0.43      2.62
    5   18    9     -2.56      0.69
    6   18    9     -0.31     -0.51
    7   18    9      6.19     -1.29
    8   18    9     -1.39      1.29
    9   18    9     -1.97      2.84
   10   18    9     -3.58     -0.95
    0   19    9      0.67      1.16
    1   19    9     -0.26     -3.22
    2   19    9      1.28     -0.95
    3   19    9      0.04     -1.49
    4   19    9      0.93      0.57
    5   19    9      1.38     -2.70
    6   19    9     -0.17      4.07
    7   19    9     -1.63      0.55
    8   19    9      1.11      0.64
    9   19    9      0.01     -0.91
    0   20    9     -0.26     -0.85
    1   20    9      1.16     -1.19
    2   20    9      0.38     -4.81
    3   20    9     -2.26      1.03
    4   20    9      0.30      3.71
    5   20    9     -0.43     -2.99
    6   20    9     -0.76     -0.51
    7   20    9      2.45      1.12
    8   20    9     -2.64      1.29
    0   21    9      0.57      5.73
    1   21    9      1.28     -3.53
    2   21    9     -1.82     -0.65
    3   21    9     -1.72     -0.99
    4   21    9      1.86     -0.13
    5   21    9      0.52      0.31
    6   21    9     -1.28      1.41
    7   21    9     -1.06     -2.10
    8   21    9     -0.98      0.59
    0   22    9      1.08      0.26
    1   22    9      0.93     -0.52
    2   22    9     -3.32     -3.61
    3   22    9     -2.85      4.32
    4   22    9      0.42      0.38
    5   22    9      0.31     -0.54
    6   22    9      0.76     -1.12
    7   22    9      1.88      0.91
    0   23    9     -0.02      4.47
    1   23    9      0.53     -1.47
    2   23    9     -0.87     -2.91
    3   23    9     -1.76      0.86
    4   23    9      1.04      0.12
    5   23    9     -0.72      1.17
    0   24    9      1.18      0.29
    1   24    9      4.63     -0.49
    2   24    9     -2.87      0.70
    3   24    9     -3.11      0.16
    4   24    9      0.17     -3.15
    0    0   10    -15.28     -0.47
    1    0   10     -8.68      0.15
    2    0   10     -2.23      0.00
    3    0   10     12.56     -0.04
    4    0   10     -3.75      0.00
    5    0   10     -6.98     -0.03
    6    0   10     -6.77      0.02
    7    0   10      4.94     -0.14
    8    0   10      0.37     -0.18
    9    0   10     -3.37     -0.21
   10    0   10      1.54      0.01
   11    0   10      4.67     -0.20
   12    0   10     -0.82      0.29
   13    0   10     -3.18     -0.04
   14    0   10     -0.39      0.06
    0    1   10      0.06     -2.90
    1    1   10      5.01      3.57
    2    1   10    -14.12    -17.04
    4    1   10     -1.33     -1.08
    5    1   10      8.53      1.62
    6    1   10     -1.61      8.27
    7    1   10      6.05     -0.56
    8    1   10      0.46      6.21
    9    1   10     -0.70     -0.52
   10    1   10     -1.73      0.47
   11    1   10      0.46      3.39
   12    1   10      1.36     -1.16
   13    1   10      2.33      0.81
   14    1   10      1.55     -0.04
    0    2   10     41.47     -0.29
    1    2   10      9.88      4.74
    2    2   10      2.93     -6.87
    4    2   10     -6.66      1.36
    5    2   10     -3.13     -5.05
    6    2   10      0.88     -4.50
    7    2   10     -1.11      2.92
    8    2   10     -5.25     -0.73
    9    2   10      0.17     -6.13
   10    2   10      2.64     -0.89
   11    2   10      0.85      0.88
   12    2   10     -2.34     -0.59
   13    2   10     -0.39      0.48
   14    2   10      0.25     -1.35
    0    3   10     -0.04     -2.06
    1    3   10      9.58     23.45
    4    3   10     -9.16      4.39
    5    3   10     11.25     -4.85
    6    3   10      1.89      4.12
    7    3   10     -0.29      1.53
    8    3   10     -0.34      5.29
    9    3   10     -1.09     -4.57
   10    3   10     -1.23      0.91
   11    3   10      0.01      0.66
   12    3   10      3.73     -1.20
   13    3   10      0.36     -1.35
   14    3   10     -2.17     -0.48
    0    4   10     21.39     -0.23
    1    4   10     -4.11    -23.04
    4    4   10      0.54      7.29
    5    4   10      4.52      2.18
    6    4   10     -4.60      0.16
    7    4   10     -5.91      1.77
    8    4   10     -2.73     -1.84
    9    4   10      2.84     -3.68
   10    4   10     -0.49     -1.87
   11    4   10      0.06      0.94
   12    4   10     -2.16     -1.91
   13    4   10      1.42     -0.17
   14    4   10      1.42     -1.04
    0    5   10     -0.05      3.82
    1    5   10     13.04      1.91
    2    5   10      3.63      1.05
    3    5   10     -7.34     -1.13
    4    5   10      9.36      2.65
    5    5   10     11.63      4.65
    6    5   10     -3.29      3.98
    7    5   10     -2.61     -4.52
    8    5   10     -1.46      5.12
    9    5   10      1.53      0.89
   10    5   10      1.11      0.15
   11    5   10     -0.03     -3.74
   12    5   10     -0.45      0.18
   13    5   10     -1.28      0.35
   14    5   10      0.01     -1.57
    1    6   10     -1.21     -5.09
    2    6   10      6.86      3.31
    3    6   10     -2.66      0.25
    4    6   10      0.99     -0.24
    5    6   10      1.75     -0.49
    6    6   10      2.04     -0.52
    7    6   10      0.13      5.31
    8    6   10     -2.26      4.62
    9    6   10     -2.98      0.07
   10    6   10     -1.55     -0.50
   11    6   10      2.99     -0.39
   12    6   10     -0.84      1.71
   13    6   10      2.52     -0.60
   14    6   10     -0.56      1.40
    0    7   10     -0.19     -9.78
    1    7   10     -4.17      1.07
    3    7   10     -6.63      4.58
    4    7   10     -4.96      4.50
    5    7   10     -2.31     -5.48
    6    7   10      0.72     -0.54
    7    7   10      3.83     -0.22
    8    7   10     -1.26      1.66
    9    7   10      3.44      1.47
   10    7   10     -1.41      2.19
   11    7   10     -0.55     -2.89
   12    7   10     -2.36     -3.39
   13    7   10      0.87      4.26
   14    7   10      1.74     -1.09
    0    8   10     -0.95     -0.06
    1    8   10     -4.26      3.30
    2    8   10     -6.73     -0.80
    3    8   10     -2.84     -3.43
    4    8   10      4.24    -10.17
    5    8   10      3.02      4.21
    6    8   10     -4.90     -4.27
    7    8   10     -3.41      0.73
    8    8   10     -0.81      1.73
    9    8   10      0.20      1.66
   10    8   10      1.07      0.15
   11    8   10      4.84      0.27
   12    8   10     -1.60     -5.07
   13    8   10      1.30      2.95
    0    9   10     -0.02     -1.19
    1    9   10     -5.23     -6.69
    2    9   10      0.14     -4.64
    3    9   10     -4.02     11.61
    4    9   10     -7.66      5.85
    5    9   10     -1.93     -0.50
    6    9   10     -1.95     -2.09
    7    9   10      2.31     -3.42
    8    9   10      3.04     -2.82
    9    9   10     -0.27     -2.17
   10    9   10     -0.36     -1.88
   11    9   10      7.62     -0.52
   12    9   10     -0.32     -4.28
   13    9   10     -0.68      1.68
    0   10   10      6.64      0.11
    1   10   10     -3.73     -4.67
    2   10   10      0.65      9.55
    3   10   10     -0.95     -3.28
    4   10   10      5.25     -1.95
    5   10   10     -5.58      2.99
    6   10   10     -0.90      1.41
    7   10   10     -2.03      0.43
    8   10   10     -1.90      0.34
    9   10   10     -1.57     -2.15
   10   10   10      3.15      3.60
   11   10   10      0.38     -1.58
   12   10   10     -4.03     -8.22
   13   10   10     -0.52      0.43
    0   11   10      0.15      2.41
    1   11   10      2.29      1.16
    2   11   10     -3.10      5.56
    3   11   10      0.01      4.30
    4   11   10      3.29      0.47
    5   11   10     -2.55     -1.05
    6   11   10      0.11      0.01
    7   11   10     -1.34      2.17
    8   11   10      5.04     -0.43
    9   11   10     -5.50      2.18
   10   11   10     -1.70     -2.28
   11   11   10      4.98     -2.08
   12   11   10     -2.12     -0.02
   13   11   10      0.29      2.24
    0   12   10      0.34      0.41
    1   12   10      2.29      0.26
    2   12   10      3.20      3.84
    3   12   10      2.82     -2.16
    4   12   10      2.42      3.25
    5   12   10      0.34     -1.08
    6   12   10      4.11      5.70
    7   12   10      3.04     -1.06
    8   12   10     -0.35      0.38
    9   12   10     -4.03     -0.11
   10   12   10     -1.86      8.36
   11   12   10     -3.56     -0.78
   12   12   10     -0.96     -7.94
    0   13   10     -1.15     -3.82
    1   13   10     -0.96      1.26
    2   13   10      1.30     -3.98
    3   13   10      2.14     -4.13
    4   13   10     -0.84     -2.29
    5   13   10     -7.82      2.06
    6   13   10      2.42      1.29
    7   13   10      2.41     -0.44
    8   13   10      3.06     -4.98
    9   13   10     -1.57      2.56
   10   13   10     -0.50      3.76
   11   13   10      0.07     -2.39
   12   13   10     -4.36      2.73
    0   14   10     -6.67      0.83
    1   14   10      2.67      6.18
    2   14   10      1.06     -0.52
    3   14   10     -1.48      0.07
    4   14   10      2.51     -1.36
    5   14   10      1.47     -5.11
    6   14   10      2.91      4.85
    7   14   10      2.87     -3.85
    8   14   10      0.16     -1.74
    9   14   10     -1.40      0.32
   10   14   10      1.40      2.77
   11   14   10     -1.58      2.19
   12   14   10     -1.81     -0.15
    0   15   10     -4.74      3.27
    1   15   10     -0.30      4.08
    2   15   10      1.19     -3.20
    3   15   10      4.10     -1.19
    4   15   10     -4.94      6.54
    5   15   10     -7.15      3.10
    6   15   10      3.22      4.12
    7   15   10      1.73     -0.18
    8   15   10     -2.34     -0.65
    9   15   10      4.40     -2.05
   10   15   10      0.88     -0.57
   11   15   10     -1.79      0.27
    0   16   10      1.93      0.59
    1   16   10      7.82      1.56
    2   16   10      1.77     -1.13
    3   16   10     -0.65      1.04
    4   16   10     -1.33      2.24
    5   16   10     -0.94     -0.96
    6   16   10      0.34     -0.12
    7   16   10      2.38      0.71
    8   16   10      0.29      0.82
    9   16   10     -1.48     -3.57
   10   16   10      0.95     -1.70
   11   16   10     -1.21     -1.08
    0   17   10     -1.17      1.36
    1   17   10     -1.11      2.68
    2   17   10      0.25     -5.80
    3   17   10      2.37      1.71
    4   17   10      3.23      2.14
    5   17   10     -1.07      0.74
    6   17   10     -0.55      4.37
    7   17   10     -2.53     -0.61
    8   17   10     -1.47     -4.14
    9   17   10      2.75     -0.80
   10   17   10      4.11     -2.05
    0   18   10     -1.54      0.17
    1   18   10      3.96     -3.38
    2   18   10     -1.94     -1.15
    3   18   10     -2.17      0.99
    4   18   10     -1.11      1.94
    5   18   10      0.14      1.51
    6   18   10      0.47      2.01
    7   18   10      0.13      1.43
    8   18   10     -0.39      1.05
    9   18   10      0.85     -3.35
   10   18   10     -0.84      0.01
    0   19   10     -0.28      2.50
    1   19   10      0.10     -2.15
    2   19   10     -0.30     -1.28
    3   19   10      2.33     -2.00
    4   19   10      1.33      0.48
    5   19   10      0.75     -3.91
    6   19   10      1.15     -0.76
    7   19   10     -2.62     -0.51
    8   19   10     -2.38     -1.46
    9   19   10      2.21     -0.72
    0   20   10     -1.36      0.17
    1   20   10     -1.46      0.35
    2   20   10     -0.41      0.72
    3   20   10     -0.49      3.50
    4   20   10     -0.06      2.78
    5   20   10      3.34      0.31
    6   20   10      1.11      0.26
    7   20   10     -3.30     -1.48
    8   20   10     -0.42      0.11
    0   21   10     -0.70      1.11
    1   21   10      0.51      1.47
    2   21   10     -1.03      2.17
    3   21   10     -2.51     -0.93
    4   21   10     -2.34     -3.04
    5   21   10      3.51     -1.26
    6   21   10      0.67      0.47
    7   21   10     -2.10     -2.21
    0   22   10      1.92      0.14
    1   22   10      0.15     -1.68
    2   22   10      1.75     -1.17
    3   22   10      3.79     -1.96
    4   22   10     -0.49      2.26
    5   22   10     -0.24      4.38
    6   22   10     -1.17     -4.09
    0   23   10     -1.48      2.09
    1   23   10      2.24      0.01
    2   23   10      0.59      0.50
    3   23   10     -0.03      0.00
    4   23   10     -0.29     -3.60
    5   23   10      4.50     -0.60
    0   24   10      0.53      0.44
    1   24   10      4.18     -0.43
    2   24   10     -0.17      0.25
    3   24   10      0.05     -2.35
    1    0   11     -0.26    -10.44
    2    0   11      0.08      1.13
    3    0   11      0.00     13.81
    4    0   11     -0.03    -12.51
    5    0   11      0.14     -4.27
    6    0   11      0.03     -7.20
    7    0   11     -0.01      5.15
    8    0   11      0.01     -4.43
    9    0   11     -0.14      0.85
   10    0   11     -0.12      3.79
   11    0   11      0.04     -1.67
   12    0   11     -0.06     -0.32
   13    0   11     -0.07     -0.53
   14    0   11      0.05      0.48
    0    1   11     -0.09     12.00
    1    1   11      7.29    -20.58
    2    1   11      4.61     12.82
    4    1   11     -0.24      6.86
    5    1   11     10.86     -1.45
    6    1   11      0.53      1.28
    7    1   11     -2.91     -3.21
    8    1   11      2.31     -0.33
    9    1   11     -5.76      1.20
   10    1   11     -1.97      2.11
   11    1   11     -2.00      2.07
   12    1   11     -1.48      0.18
   13    1   11      0.20     -0.75
   14    1   11     -1.70      1.03
    0    2   11      3.21      0.23
    1    2   11      4.30     12.94
    4    2   11      0.09      6.40
    5    2   11     -0.11     -1.38
    6    2   11      2.94     -3.12
    7    2   11     -0.43      2.87
    8    2   11     -1.52     -2.27
    9    2   11      4.44     -5.49
   10    2   11     -0.04      1.18
   11    2   11     -1.12     -0.16
   12    2   11     -1.21     -2.74
   13    2   11     -0.97      0.04
   14    2   11     -2.43      2.17
    0    3   11     -0.28     28.94
    1    3   11      6.36     -4.16
    2    3   11    -16.71     11.23
    4    3   11     -5.78     -5.63
    5    3   11      0.04     -0.18
    6    3   11      3.20      5.15
    7    3   11     -4.44      0.47
    8    3   11      5.42     -3.66
    9    3   11     -4.62      0.36
   10    3   11     -1.55      1.46
   11    3   11     -0.53      0.43
   12    3   11     -0.01      0.71
   13    3   11     -1.05     -0.45
   14    3   11      0.92     -0.42
    0    4   11     25.40     -0.11
    2    4   11      0.13      9.47
    3    4   11     -7.15      2.91
    4    4   11     -3.02      4.95
    5    4   11     10.76     -1.09
    6    4   11      1.53      3.07
    7    4   11     -0.96     -0.91
    8    4   11      1.58      3.59
    9    4   11      2.41     -3.35
   10    4   11     -2.83      1.08
   11    4   11     -1.01     -2.01
   12    4   11      1.61      2.19
   13    4   11     -0.46     -4.10
   14    4   11     -1.02      0.67
    1    5   11     -8.10    -18.54
    2    5   11     -0.12     -0.80
    3    5   11    -14.86      9.91
    4    5   11     -7.09      0.04
    5    5   11     -2.93      4.65
    6    5   11      3.39      0.65
    7    5   11      0.52     -2.38
    8    5   11      1.79      1.46
    9    5   11     -0.56      0.34
   10    5   11     -3.37      0.59
   11    5   11      0.41      1.37
   12    5   11      1.84      6.09
   13    5   11     -3.21     -3.39
   14    5   11      0.77      0.56
    0    6   11     -2.43     -0.29
    2    6   11      4.62    -12.56
    4    6   11      5.77      5.93
    5    6   11     -3.61      3.95
    6    6   11     -3.89     -8.38
    7    6   11      3.46     -3.74
    8    6   11      2.46      3.96
    9    6   11      0.77      0.24
   10    6   11      1.59     -3.19
   11    6   11     -0.60     -2.51
   12    6   11     -1.70      0.10
   13    6   11     -0.33     -3.92
   14    6   11     -2.10      0.18
    0    7   11     -0.16     -6.52
    1    7   11    -10.72     -7.52
    2    7   11      1.78     -0.76
    3    7   11    -29.59     18.73
    4    7   11     -2.58     -1.21
    5    7   11      7.94     -2.38
    6    7   11      1.05     -1.78
    7    7   11     -3.20      2.50
    8    7   11      1.14     -1.83
    9    7   11      1.56     -4.80
   10    7   11      1.32     -0.91
   11    7   11      2.06      2.44
   12    7   11     -1.25      3.79
   13    7   11      0.21     -3.94
    0    8   11     -3.23     -0.06
    1    8   11     -8.52      6.41
    2    8   11     -1.98    -10.89
    4    8   11      4.28      7.88
    5    8   11     -0.85     -2.00
    6    8   11     -0.01     -2.66
    7    8   11     -1.88     -0.08
    8    8   11     -3.34      2.86
    9    8   11      2.28      1.44
   10    8   11      1.98     -0.98
   11    8   11     -1.17     -2.15
   12    8   11      0.99      0.43
   13    8   11     -1.11      3.68
    0    9   11      0.18     12.75
    1    9   11      8.24      0.14
    2    9   11     -2.86      3.41
    3    9   11     -8.11      3.53
    4    9   11     -0.52      2.46
    5    9   11     -1.81     -3.25
    6    9   11     -0.46     -2.43
    7    9   11     -0.35     -0.47
    8    9   11      2.49      3.12
    9    9   11     -1.03      1.18
   10    9   11      0.55     -2.87
   11    9   11      2.04      3.34
   12    9   11      1.06      5.19
   13    9   11     -1.20     -1.18
    0   10   11     -3.69      0.26
    1   10   11      6.79      4.95
    2   10   11      5.91      1.76
    3   10   11     -7.14      4.56
    4   10   11     -0.61      6.65
    5   10   11      2.41     -1.47
    6   10   11      0.51      1.16
    7   10   11     -2.85     -3.75
    8   10   11     -1.15     -1.44
    9   10   11      0.97     -2.56
   10   10   11     -1.18      0.56
   11   10   11     -3.23      0.77
   12   10   11      3.12      1.17
   13   10   11      0.21      1.38
    0   11   11      0.02     -5.06
    1   11   11     -0.83      1.98
    2   11   11     -4.27     -4.64
    3   11   11     -0.23     -4.18
    4   11   11     -4.98      2.41
    5   11   11     -3.00      4.18
    6   11   11      1.46     -0.91
    7   11   11     -0.44      0.40
    8   11   11      0.45      0.00
    9   11   11      2.29      1.31
   10   11   11     -3.16     -2.55
   11   11   11     -0.72      2.00
   12   11   11      0.82      3.66
   13   11   11      0.22     -2.97
    0   12   11      2.18      0.10
    1   12   11      0.91      0.97
    2   12   11      1.14     -2.68
    3   12   11      1.43      2.09
    4   12   11     -0.85      0.10
    5   12   11      3.79     -0.42
    6   12   11     -0.46      2.01
    7   12   11     -3.10     -1.10
    8   12   11     -2.40     -2.81
    9   12   11     -3.20     -1.69
   10   12   11     -1.66     -1.58
   11   12   11      0.51      3.88
   12   12   11     -1.07     -1.41
    0   13   11     -0.28     -2.43
    1   13   11     -0.96      2.47
    2   13   11      6.82     -2.74
    3   13   11     -0.28      0.26
    4   13   11     -2.57      1.72
    5   13   11      1.35     -0.08
    6   13   11      2.18      1.16
    7   13   11     -0.33      1.24
    8   13   11      1.44     -2.33
    9   13   11      4.69     -4.36
   10   13   11     -6.29     -1.84
   11   13   11     -1.27      1.54
   12   13   11      2.58      1.55
    0   14   11      0.11      0.63
    1   14   11     -3.32      2.01
    2   14   11     -5.12     -2.29
    3   14   11      2.90     -2.49
    4   14   11      2.22     -1.52
    5   14   11      1.37     -2.17
    6   14   11      0.22     -0.64
    7   14   11      0.36      0.90
    8   14   11      2.40      1.10
    9   14   11     -2.09     -6.36
   10   14   11      0.23     -2.10
   11   14   11      0.30      4.34
    0   15   11     -0.22      3.91
    1   15   11     -0.09     -0.24
    2   15   11      1.52      0.00
    3   15   11     -1.41      2.50
    4   15   11      1.16     -0.35
    5   15   11     -3.89     -0.86
    6   15   11     -2.71     -1.20
    7   15   11      0.42     -2.17
    8   15   11      0.45      0.73
    9   15   11      1.71     -0.58
   10   15   11     -2.16      4.75
   11   15   11      0.52     -0.67
    0   16   11      2.53     -1.13
    1   16   11      0.88      2.51
    2   16   11     -2.44      2.58
    3   16   11     -2.78      2.01
    4   16   11      0.89      1.21
    5   16   11      0.57     -4.64
    6   16   11      0.73      0.83
    7   16   11     -0.03      1.34
    8   16   11     -1.39     -1.42
    9   16   11     -0.01     -4.41
   10   16   11      1.19     -3.81
   11   16   11     -1.57     -0.02
    0   17   11      0.06     -1.27
    1   17   11      2.63     -0.41
    2   17   11     -1.17      0.99
    3   17   11     -0.43      0.39
    4   17   11      2.54     -1.24
    5   17   11     -1.63      2.26
    6   17   11      0.47     -1.16
    7   17   11     -0.63     -4.79
    8   17   11     -0.17      0.00
    9   17   11      3.29      3.02
   10   17   11     -0.99      2.89
    0   18   11     -0.01     -0.42
    1   18   11     -0.26      0.69
    2   18   11      1.47     -0.35
    3   18   11     -2.06      1.19
    4   18   11      1.01      2.29
    5   18   11      0.21     -2.35
    6   18   11      1.67      1.18
    7   18   11      1.05      0.20
    8   18   11      1.41     -0.65
    9   18   11     -2.15      0.31
    0   19   11     -0.02     -0.83
    1   19   11      0.13     -1.88
    2   19   11     -0.76     -0.70
    3   19   11     -1.18     -1.43
    4   19   11      2.50      0.32
    5   19   11     -0.21      0.71
    6   19   11     -0.33      2.14
    7   19   11     -0.35     -3.25
    8   19   11      1.98      2.01
    9   19   11      0.38     -1.45
    0   20   11     -0.06     -1.06
    1   20   11     -2.27      0.05
    2   20   11      0.23     -3.23
    3   20   11     -1.41     -0.22
    4   20   11     -1.12      0.28
    5   20   11     -0.56     -0.58
    6   20   11      1.56     -1.09
    7   20   11      0.40      1.25
    8   20   11      0.53      0.46
    0   21   11     -0.33      3.74
    1   21   11     -0.58     -1.75
    2   21   11     -4.09      1.38
    3   21   11      1.60      1.29
    4   21   11      0.84     -1.34
    5   21   11     -0.95      1.01
    6   21   11     -0.61      0.49
    7   21   11     -0.28     -3.42
    0   22   11      6.20      0.06
    1   22   11     -2.59      0.20
    2   22   11     -3.36      1.44
    3   22   11      0.17      0.66
    4   22   11      0.65     -0.45
    5   22   11     -0.08      1.40
    6   22   11     -0.93     -0.06
    0   23   11      0.38     -2.12
    1   23   11      1.21     -5.25
    2   23   11     -1.62      3.67
    3   23   11      2.31      4.97
    4   23   11     -1.29      0.76
    5   23   11     -0.36     -0.66
    0   24   11      4.52      0.40
    1   24   11      0.52      0.12
    2   24   11     -3.17      1.37
    3   24   11     -0.49      1.19
    0    0   12    -20.65     -0.20
    1    0   12     -8.80      0.05
    2    0   12    -12.65      0.11
    3    0   12      1.78      0.04
    4    0   12     -2.83      0.01
    5    0   12      7.33      0.10
    6    0   12      3.22      0.09
    7    0   12      5.23     -0.13
    8    0   12      7.79     -0.14
    9    0   12     -0.71     -0.02
   10    0   12      1.12     -0.03
   11    0   12      3.86     -0.02
   12    0   12     -0.42      0.08
   13    0   12      1.93     -0.05
   14    0   12     -1.12     -0.06
    0    1   12     -0.21      3.38
    1    1   12      0.20      3.84
    2    1   12    -12.69     -6.44
    3    1   12     -5.27     -9.65
    4    1   12     -0.81     11.33
    5    1   12     -2.63      3.96
    6    1   12     -2.39      5.98
    7    1   12      5.00     -4.95
    8    1   12      0.47      3.32
    9    1   12     -4.33      0.61
   10    1   12     -0.02     -1.84
   11    1   12      0.59      0.53
   12    1   12      0.19      2.01
   13    1   12      0.58      1.05
   14    1   12      1.13     -1.48
    0    2   12      0.05      0.11
    1    2   12     19.96      2.51
    2    2   12     -2.99     -2.82
    3    2   12     -6.91     -2.16
    4    2   12     -2.49      8.77
    5    2   12     -7.14     -5.25
    6    2   12      6.09     -0.57
    7    2   12      3.75     -2.93
    8    2   12      3.92      0.66
    9    2   12     -2.33     -1.97
   10    2   12      1.50      1.74
   11    2   12      2.74     -2.42
   12    2   12     -2.26     -2.67
   13    2   12      0.98     -1.25
   14    2   12      0.62     -1.50
    0    3   12     -0.19    -18.22
    1    3   12    -12.41      3.71
    2    3   12     -0.02      2.43
    3    3   12      8.11      2.94
    4    3   12     -2.79      0.91
    5    3   12      0.26     -3.84
    6    3   12      2.26      4.16
    7    3   12      2.09      7.06
    8    3   12     -1.81      1.51
    9    3   12     -3.77     -2.66
   10    3   12     -1.04     -1.35
   11    3   12      1.46      1.15
   12    3   12      0.73      2.13
   13    3   12      0.69     -1.62
   14    3   12     -2.90     -2.35
    0    4   12     11.07     -0.13
    1    4   12      3.66    -22.18
    2    4   12     -3.16     -4.90
    3    4   12      0.53      3.64
    4    4   12      6.95      4.08
    5    4   12     -4.17     -8.60
    6    4   12      1.72      3.65
    7    4   12     -3.97      1.19
    8    4   12      3.97      2.50
    9    4   12     -2.94     -1.54
   10    4   12     -0.10     -1.46
   11    4   12     -1.78     -0.63
   12    4   12      1.06     -2.65
   13    4   12     -2.33      1.19
   14    4   12      0.32      1.16
    1    5   12     -8.28     -0.24
    2    5   12      3.37    -12.67
    3    5   12     -6.49      1.17
    4    5   12      7.62     -6.91
    5    5   12      6.05     -0.42
    6    5   12      1.22      7.52
    7    5   12      0.58      0.19
    8    5   12      2.60      3.66
    9    5   12     -2.54      0.14
   10    5   12     -2.45      1.32
   11    5   12      0.17     -3.57
   12    5   12     -1.22      1.73
   13    5   12     -1.35     -1.84
   14    5   12      0.30     -1.61
    0    6   12     -9.46      0.00
    1    6   12      4.28     -8.83
    2    6   12     -2.14      0.23
    3    6   12      6.70      8.57
    4    6   12      0.06     -2.89
    5    6   12     -1.88     -6.38
    6    6   12      0.94      0.51
    7    6   12      2.57      1.04
    8    6   12      4.15      0.78
    9    6   12     -0.89     -0.71
   10    6   12      0.47      0.47
   11    6   12     -1.72     -0.67
   12    6   12      0.52      1.95
   13    6   12      3.29      0.15
   14    6   12     -1.68     -1.97
    0    7   12     -0.38     -4.98
    1    7   12      2.00      1.26
    2    7   12     -4.34     -5.43
    3    7   12     -2.43      3.02
    4    7   12     -9.09     -3.40
    5    7   12     -1.07     -4.09
    6    7   12     -0.69      2.33
    7    7   12      8.18      2.33
    8    7   12      2.27      1.66
    9    7   12      1.73      1.41
   10    7   12      1.18      3.31
   11    7   12     -0.01     -4.53
   12    7   12     -4.09     -0.91
   13    7   12      0.84     -1.29
    0    8   12      0.61     -0.14
    1    8   12     -2.90      5.14
    2    8   12     -3.81     -2.60
    3    8   12      3.82      0.01
    4    8   12      0.58      0.47
    5    8   12     -2.23      6.33
    6    8   12     -2.13      1.51
    7    8   12     -3.47     -6.12
    8    8   12      1.36     -2.98
    9    8   12     -1.67      0.79
   10    8   12      0.26      3.57
   11    8   12      0.39     -4.18
   12    8   12     -3.31     -1.80
   13    8   12      3.36      1.10
    0    9   12     -0.10      4.01
    1    9   12     -7.65     -1.88
    2    9   12      4.37      1.99
    3    9   12     -2.87      0.65
    4    9   12    -10.42     -1.09
    5    9   12      2.86      4.73
    6    9   12      0.32      4.00
    7    9   12      1.61      3.14
    8    9   12     -1.61     -2.02
    9    9   12     -1.15     -1.02
   10    9   12      2.90     -3.27
   11    9   12      3.48     -3.17
   12    9   12     -5.24      1.83
   13    9   12     -0.92      0.62
    0   10   12      4.25     -0.28
    1   10   12     -1.01     -0.26
    2   10   12      1.40      7.40
    3   10   12      1.98      4.13
    4   10   12     -0.15     -1.51
    5   10   12     -4.01      5.87
    6   10   12     -1.16      2.04
    7   10   12     -0.16     -1.75
    8   10   12      1.41     -6.00
    9   10   12     -3.72      2.67
   10   10   12      2.53      0.62
   11   10   12     -1.54     -8.06
   12   10   12     -5.73     -4.82
   13   10   12      1.35      0.81
    0   11   12      0.35     -6.37
    1   11   12     -3.84     -0.49
    2   11   12      5.59     -1.98
    3   11   12      0.90     -2.24
    4   11   12      3.33     -4.39
    5   11   12      0.08      3.76
    6   11   12      3.78     -1.25
    7   11   12     -0.30     -0.67
    8   11   12     -0.63     -2.42
    9   11   12     -3.69      4.81
   10   11   12      4.13     -2.01
   11   11   12     -0.10     -3.98
   12   11   12     -6.36      1.12
    0   12   12     -1.90      0.13
    1   12   12      1.75     -3.92
    2   12   12     -0.82      3.79
    3   12   12      2.49     -1.75
    4   12   12     -0.61     -2.64
    5   12   12     -0.19      5.09
    6   12   12      3.10      2.36
    7   12   12      4.75     -1.56
    8   12   12     -1.69     -5.86
    9   12   12     -0.09      1.82
   10   12   12      0.99      6.13
   11   12   12     -5.02     -3.55
   12   12   12     -1.85     -1.97
    0   13   12      0.63      7.76
    1   13   12      3.25     -3.39
    2   13   12     -0.98     -2.92
    3   13   12      2.38     -1.41
    4   13   12      0.62     -2.27
    5   13   12     -8.01     -0.92
    6   13   12      6.61      0.20
    7   13   12      0.01     -2.06
    8   13   12      1.76     -2.37
    9   13   12     -1.46      1.89
   10   13   12      7.16      4.11
   11   13   12      4.03     -0.06
   12   13   12     -4.09      1.20
    0   14   12     -0.39      2.50
    1   14   12      5.20      2.28
    2   14   12     -4.58     -0.14
    3   14   12     -2.94     -3.23
    4   14   12      4.79      1.69
    5   14   12      2.79      3.68
    6   14   12      3.02      0.28
    7   14   12      0.74     -2.41
    8   14   12     -0.63     -2.51
    9   14   12      0.59     -0.12
   10   14   12      2.89      1.28
   11   14   12     -1.65      1.58
    0   15   12     -1.10      3.39
    1   15   12      2.89     -4.85
    2   15   12     -3.90     -3.74
    3   15   12      0.98      0.50
    4   15   12     -0.78     -0.80
    5   15   12     -6.74      1.94
    6   15   12      4.11     -2.10
    7   15   12     -0.27     -5.16
    8   15   12     -1.43      0.29
    9   15   12     -1.79     -0.37
   10   15   12      0.23     -1.18
   11   15   12      1.36      2.44
    0   16   12      3.44      2.55
    1   16   12      9.18     -0.07
    2   16   12     -2.58     -1.05
    3   16   12      0.36     -2.05
    4   16   12      2.53      1.27
    5   16   12      0.83      2.23
    6   16   12      4.08     -0.95
    7   16   12      0.37     -0.12
    8   16   12     -1.29      0.90
    9   16   12     -0.97     -3.26
   10   16   12     -0.97     -3.15
    0   17   12      0.30      1.36
    1   17   12     -1.53     -3.37
    2   17   12     -1.42     -0.06
    3   17   12      0.11      0.72
    4   17   12      2.78      2.77
    5   17   12      2.84      3.55
    6   17   12      1.23      1.08
    7   17   12      2.89     -2.52
    8   17   12      0.66     -0.07
    9   17   12     -2.52     -0.15
   10   17   12      0.67      0.63
    0   18   12     -0.48      0.42
    1   18   12     -1.12     -2.70
    2   18   12     -1.71     -1.82
    3   18   12     -1.52     -1.85
    4   18   12     -0.78     -0.82
    5   18   12     -3.91      2.48
    6   18   12      4.18      0.78
    7   18   12     -1.45      2.84
    8   18   12     -2.13     -0.68
    9   18   12     -0.66     -1.50
    0   19   12     -0.16      1.48
    1   19   12     -1.84     -1.75
    2   19   12      0.66      0.94
    3   19   12      2.43     -1.64
    4   19   12      2.72      0.21
    5   19   12      0.94     -2.68
    6   19   12      2.60     -1.29
    7   19   12     -1.00      1.86
    8   19   12     -0.10      0.88
    9   19   12     -4.23     -2.35
    0   20   12     -0.60      0.55
    1   20   12     -1.59      0.45
    2   20   12      0.58      1.40
    3   20   12     -1.00      0.57
    4   20   12     -3.03      3.81
    5   20   12     -0.39     -0.40
    6   20   12      1.25      0.26
    7   20   12     -2.61      0.97
    8   20   12      0.62      0.87
    0   21   12     -0.09     -2.58
    1   21   12     -1.35      0.75
    2   21   12     -1.72      1.70
    3   21   12     -0.19     -3.36
    4   21   12     -1.36     -1.25
    5   21   12      3.18     -2.78
    6   21   12     -1.35      1.47
    7   21   12     -1.23      1.25
    0   22   12      3.11      1.16
    1   22   12     -0.72     -1.42
    2   22   12      2.75      0.27
    3   22   12      1.75      0.44
    4   22   12     -2.03      1.62
    5   22   12     -0.88     -3.20
    6   22   12      0.70     -1.02
    0   23   12     -0.07     -1.14
    1   23   12     -0.52     -3.91
    2   23   12      0.24      1.67
    3   23   12     -3.83     -0.63
    4   23   12      0.98      0.04
    5   23   12      2.54     -0.26
    0   24   12      2.30      1.79
    1   24   12      0.08     -0.75
    2   24   12     -2.66      0.09
    3   24   12     -0.53     -1.09
    1    0   13      0.00    -18.55
    2    0   13     -0.01     -5.69
    3    0   13      0.02      5.15
    5    0   13      0.05    -10.50
    6    0   13     -0.08      1.58
    7    0   13      0.05      4.16
    8    0   13     -0.03     -2.29
    9    0   13      0.02      7.59
   10    0   13     -0.04      2.73
   11    0   13      0.05      2.33
   12    0   13      0.00      3.14
   13    0   13      0.01     -1.37
   14    0   13      0.02      2.07
    0    1   13      0.23      3.48
    1    1   13     -1.41    -21.43
    2    1   13      4.47     -3.03
    3    1   13      1.34     -6.03
    4    1   13     -4.07      3.27
    5    1   13     -1.45     -3.13
    6    1   13     -3.90     -2.35
    7    1   13      4.80      0.05
    8    1   13     -2.15     -0.53
    9    1   13     -1.95     -2.81
   10    1   13      0.55     -1.61
   11    1   13     -1.85      1.78
   12    1   13      0.26      2.89
   13    1   13      0.16     -0.08
   14    1   13      1.12      0.83
    0    2   13     23.36      0.34
    2    2   13      4.73      3.62
    3    2   13     -4.69     -7.18
    4    2   13      5.15      3.67
    5    2   13     -5.96     -6.96
    6    2   13      2.96     -2.90
    7    2   13     -3.36      5.58
    8    2   13      0.99     -1.78
    9    2   13      2.58      2.36
   10    2   13      3.11     -0.37
   11    2   13      0.27      2.17
   12    2   13      0.58     -0.64
   13    2   13     -0.18      0.35
   14    2   13      0.58      2.89
    0    3   13     -0.05    -18.93
    1    3   13     10.47     -7.68
    2    3   13     -3.49      6.44
    3    3   13      1.12      1.80
    4    3   13      3.89     -0.03
    5    3   13      1.41     -8.73
    6    3   13     -2.58      3.96
    7    3   13      0.32      4.98
    8    3   13      2.81     -1.39
    9    3   13     -4.53     -5.05
   10    3   13     -0.47      2.31
   11    3   13     -1.27      0.83
   12    3   13      0.14      0.73
   13    3   13     -1.85      0.25
   14    3   13      2.86     -0.10
    0    4   13     45.84      0.11
    1    4   13    -11.88     -1.19
    2    4   13      4.68      8.19
    3    4   13      0.08      9.31
    4    4   13     -4.18      4.82
    5    4   13      4.90     -3.23
    6    4   13      3.73     -2.41
    7    4   13     -0.62      3.97
    8    4   13      0.53     -1.02
    9    4   13      2.92      3.12
   10    4   13     -0.17      0.88
   11    4   13     -1.16      0.82
   12    4   13      5.65     -0.29
   13    4   13     -0.91      1.46
   14    4   13     -0.89     -1.24
    0    5   13     -0.10    -15.91
    1    5   13      9.26    -13.32
    2    5   13     -2.07    -11.53
    3    5   13      0.48     10.16
    4    5   13      3.72     -3.59
    5    5   13      0.93      1.54
    6    5   13     -3.52      5.19
    7    5   13     -3.04     -1.93
    8    5   13      4.75     -4.82
    9    5   13     -0.81     -0.63
   10    5   13     -1.03      0.59
   11    5   13     -4.18     -0.15
   12    5   13      2.62      2.45
   13    5   13     -5.00     -1.10
   14    5   13      1.47      0.93
    0    6   13     -4.11     -0.07
    1    6   13    -13.62      6.43
    2    6   13      5.08     -6.51
    3    6   13     13.78     17.76
    4    6   13      0.23      6.12
    5    6   13     -0.19     -1.13
    6    6   13     -1.51     -4.00
    7    6   13      5.38     -1.33
    8    6   13     -0.63      2.66
    9    6   13     -0.18      1.48
   10    6   13      2.47     -1.81
   11    6   13      0.84     -0.11
   12    6   13      2.69      1.53
   13    6   13     -2.02     -0.79
    0    7   13     -0.29      0.49
    1    7   13      4.21      0.99
    2    7   13    -10.75      3.18
    3    7   13    -10.50      2.10
    4    7   13      5.04     -3.32
    5    7   13      4.94      0.89
    6    7   13     -5.49      1.22
    7    7   13     -5.16      1.26
    8    7   13      1.26      1.31
    9    7   13      3.33     -2.70
   10    7   13     -0.84     -4.38
   11    7   13     -2.13      1.77
   12    7   13     -0.48      2.02
   13    7   13     -0.16     -0.09
    0    8   13      6.98     -0.02
    1    8   13     -5.84      1.53
    2    8   13      0.54     -2.69
    3    8   13      5.65     16.14
    4    8   13      1.74      3.16
    5    8   13     -5.30     -3.40
    6    8   13      0.42     -3.14
    7    8   13      0.05      1.78
    8    8   13     -0.15     -1.18
    9    8   13     -0.80      2.26
   10    8   13     -0.68     -3.24
   11    8   13     -2.38     -3.63
   12    8   13      4.54     -0.06
   13    8   13     -1.56      3.29
    0    9   13      0.11      5.50
    1    9   13      5.66     -2.32
    2    9   13      0.69      2.01
    3    9   13      0.47      3.62
    4    9   13      9.19     -0.60
    5    9   13     -4.30     -0.69
    6    9   13     -1.96      0.37
    7    9   13     -2.81      0.48
    8    9   13     -0.54      3.98
    9    9   13     -0.09     -1.11
   10    9   13      0.93     -5.24
   11    9   13     -0.50      5.42
   12    9   13      2.87      1.19
   13    9   13      0.99      0.73
    0   10   13      1.46     -0.03
    1   10   13      2.24     -1.17
    2   10   13      1.70      9.00
    3   10   13     -0.37      1.74
    4   10   13     -0.33      4.96
    5   10   13      1.41     -0.34
    6   10   13      0.55      0.74
    7   10   13     -1.90     -1.52
    8   10   13      1.35     -1.94
    9   10   13      8.85      0.35
   10   10   13     -3.36     -1.02
   11   10   13     -0.47     -0.64
   12   10   13      6.26     -0.36
   13   10   13     -0.54      2.04
    0   11   13      0.32     -5.07
    1   11   13      7.71     -3.64
    2   11   13     -1.07     -7.73
    3   11   13      6.52      2.62
    4   11   13     -0.67      0.62
    5   11   13     -0.11      1.00
    6   11   13      2.19      1.23
    7   11   13     -0.62      0.63
    8   11   13     -2.91      3.94
    9   11   13     -0.76      1.20
   10   11   13      0.75      0.62
   11   11   13      3.12      3.54
   12   11   13      0.16     -0.73
    0   12   13      0.28      0.13
    1   12   13      3.73      1.30
    2   12   13     -1.99     -4.52
    3   12   13      3.16     -1.55
    4   12   13      2.41      3.39
    5   12   13      3.26      0.05
    6   12   13      0.14     -0.54
    7   12   13      0.62      0.91
    8   12   13     -2.80     -1.48
    9   12   13     -2.85     -3.04
   10   12   13     -3.95      2.84
   11   12   13      2.02      1.91
   12   12   13      2.33     -0.96
    0   13   13      0.44      1.67
    1   13   13     -3.94      3.05
    2   13   13     -2.58      3.91
    3   13   13     -2.50     -3.17
    4   13   13     -0.42     -0.11
    5   13   13     -1.42     -0.85
    6   13   13      1.04      0.23
    7   13   13     -0.61      2.61
    8   13   13      0.12     -0.68
    9   13   13     -4.18      1.90
   10   13   13     -3.60      1.49
   11   13   13      2.67      1.87
   12   13   13      0.01      2.15
    0   14   13      2.25      0.84
    1   14   13     -0.79     -1.15
    2   14   13     -2.72     -4.50
    3   14   13      1.98      1.02
    4   14   13      1.08     -1.65
    5   14   13     -1.99      0.65
    6   14   13      1.31     -0.22
    7   14   13      0.20      1.19
    8   14   13      0.52      0.31
    9   14   13     -2.84     -4.80
   10   14   13      1.97      3.18
   11   14   13     -0.18      4.59
    0   15   13     -0.41     -0.20
    1   15   13      3.74      1.38
    2   15   13     -0.47      4.54
    3   15   13      0.56     -2.45
    4   15   13      1.12     -1.76
    5   15   13     -2.45      1.03
    6   15   13     -0.18     -0.61
    7   15   13      2.47     -0.78
    8   15   13      0.23     -1.28
    9   15   13     -6.23      0.72
   10   15   13     -3.34     -0.08
   11   15   13      2.26      1.07
    0   16   13      1.41     -0.69
    1   16   13     -0.12      0.08
    2   16   13      0.98      2.77
    3   16   13     -0.08      1.64
    4   16   13     -3.12     -1.08
    5   16   13     -0.24      1.59
    6   16   13      0.05      1.70
    7   16   13     -2.44      0.40
    8   16   13     -1.00      0.19
    9   16   13      1.61     -3.04
   10   16   13      4.04     -0.95
    0   17   13     -0.87     -1.04
    1   17   13      2.22      1.26
    2   17   13      3.25      0.05
    3   17   13      0.14      2.40
    4   17   13      1.36      0.05
    5   17   13     -6.41     -0.58
    6   17   13      2.90      1.27
    7   17   13      0.23      0.10
    8   17   13     -3.52      0.36
    9   17   13     -0.97      2.26
   10   17   13     -0.94     -0.70
    0   18   13     -0.41     -0.14
    1   18   13      0.92     -0.38
    2   18   13      1.74     -0.50
    3   18   13     -1.88      0.98
    4   18   13     -0.32     -2.49
    5   18   13      2.73      2.02
    6   18   13      0.01      0.46
    7   18   13     -2.45     -1.10
    8   18   13      1.92     -2.58
    9   18   13     -0.18      0.73
    0   19   13     -0.62      0.94
    1   19   13      0.40     -0.55
    2   19   13      0.08     -3.13
    3   19   13      0.25      2.31
    4   19   13     -0.02      0.69
    5   19   13     -1.60     -0.96
    6   19   13      1.59      0.68
    7   19   13      0.38      0.39
    8   19   13     -0.25     -2.34
    0   20   13      4.51      0.00
    1   20   13     -0.83     -0.44
    2   20   13     -0.43     -0.50
    3   20   13     -1.78     -1.46
    4   20   13     -1.28     -0.26
    5   20   13     -0.33      0.90
    6   20   13      1.07     -0.25
    7   20   13     -2.58      0.31
    8   20   13      0.95     -2.42
    0   21   13     -0.51      0.45
    1   21   13      1.56     -0.56
    2   21   13     -1.69      2.05
    3   21   13     -1.12     -0.71
    4   21   13      0.49     -0.41
    5   21   13      1.53      1.30
    6   21   13     -0.10      2.57
    7   21   13      0.60     -1.51
    0   22   13      3.37      0.13
    1   22   13     -4.97     -0.22
    2   22   13      0.86      2.80
    3   22   13      3.59     -1.83
    4   22   13      0.63      1.17
    5   22   13     -0.97      1.87
    6   22   13      1.07      0.16
    0   23   13      0.64     -6.96
    1   23   13      2.04     -1.17
    2   23   13      0.95      2.78
    3   23   13     -0.51      2.01
    4   23   13     -0.93     -2.43
    0   24   13      0.39     -0.03
    1   24   13     -3.60     -0.58
    2   24   13      0.72      0.34
    0    0   14     20.77     -0.09
    2    0   14    -18.64      0.12
    3    0   14     -3.35      0.10
    4    0   14     21.60     -0.07
    5    0   14     -0.96      0.06
    6    0   14      1.31      0.00
    7    0   14     -6.56     -0.15
    8    0   14      6.83     -0.04
    9    0   14     -0.49     -0.02
   10    0   14     -0.28     -0.04
   11    0   14      1.53     -0.10
   12    0   14      2.13      0.01
   13    0   14      2.94      0.00
   14    0   14     -1.98      0.00
    0    1   14     -0.08     20.75
    1    1   14      7.58     -6.05
    2    1   14     -5.10     -0.10
    3    1   14     -2.37      0.67
    4    1   14      9.43      3.28
    5    1   14     -0.52     -6.11
    6    1   14     -3.84      0.01
    7    1   14      2.94     -7.70
    8    1   14      2.51     -1.53
    9    1   14     -0.19      1.97
   10    1   14      1.32     -1.39
   11    1   14     -1.81     -2.89
   12    1   14     -1.03      2.98
   13    1   14     -0.56     -1.29
   14    1   14      0.34     -1.28
    0    2   14     -0.33      0.23
    1    2   14     14.69     10.45
    2    2   14     11.58      4.48
    3    2   14     -6.30      1.08
    5    2   14     -7.09      4.27
    6    2   14      7.83     -3.91
    7    2   14     -0.25     -1.64
    8    2   14      0.49      0.40
    9    2   14     -0.31      1.31
   10    2   14      0.56     -0.34
   11    2   14      3.25     -2.65
   12    2   14     -1.11     -1.60
   13    2   14      0.18      0.38
   14    2   14     -2.10     -0.41
    1    3   14    -12.55     -6.43
    2    3   14     -4.41      2.70
    3    3   14      3.08      5.66
    5    3   14     -9.32      8.89
    6    3   14      3.32     -2.74
    7    3   14     -3.33      1.65
    8    3   14      1.34     -1.29
    9    3   14     -2.27      2.80
   10    3   14      0.48     -0.80
   11    3   14     -3.99     -2.23
   12    3   14     -1.41      0.15
   13    3   14      1.08      1.49
   14    3   14     -1.81     -1.38
    0    4   14      4.01      0.00
    1    4   14      0.96      9.24
    2    4   14     -4.25     -9.16
    3    4   14      0.76      1.28
    5    4   14     -1.55     -2.83
    6    4   14     11.98     -1.46
    7    4   14      0.10      0.94
    8    4   14     -1.48      2.13
    9    4   14     -0.03      2.23
   10    4   14     -0.97     -0.41
   11    4   14     -0.56     -0.51
   12    4   14      1.63     -1.56
   13    4   14     -3.16      0.12
   14    4   14     -2.56      2.50
    0    5   14     -0.44     12.53
    1    5   14     -8.04     -0.57
    2    5   14      2.45      0.25
    3    5   14      2.31     -6.89
    4    5   14     -2.04     -5.34
    5    5   14     -3.87      5.82
    6    5   14      4.73      2.13
    7    5   14     -1.02     -0.98
    8    5   14      2.85     -1.09
    9    5   14      0.34      4.80
   10    5   14     -2.28     -0.34
   11    5   14     -0.59     -0.58
   12    5   14      0.15     -2.78
   13    5   14     -0.90      2.22
    0    6   14    -11.33      0.60
    1    6   14      4.85     -2.38
    2    6   14    -10.99     -0.12
    3    6   14      6.44      6.58
    4    6   14     -4.06      1.26
    5    6   14     -4.02     -4.42
    6    6   14      3.14     -0.01
    7    6   14      1.89     -4.62
    8    6   14      4.91     -1.59
    9    6   14     -1.11      1.20
   10    6   14      2.05      2.62
   11    6   14     -4.68     -0.74
   12    6   14     -0.79      4.29
   13    6   14     -1.23      0.25
    0    7   14     -0.74     -1.52
    1    7   14     -2.40     -1.74
    2    7   14     -1.82      3.34
    3    7   14      0.35     -6.16
    5    7   14     -3.94     -2.51
    6    7   14      1.06      1.01
    7    7   14      0.74     -2.28
    8    7   14     -1.52     -2.69
    9    7   14      1.80      1.78
   10    7   14      3.86      3.65
   11    7   14     -1.40      0.30
   12    7   14     -2.45     -2.19
   13    7   14      0.41     -3.30
    0    8   14      0.78      0.32
    1    8   14     -2.24      8.57
    2    8   14     -5.54      1.18
    3    8   14      0.38      0.72
    4    8   14     -3.79      4.42
    5    8   14      2.42      2.28
    6    8   14      2.64      1.22
    7    8   14      2.64     -6.04
    8    8   14     -0.39     -2.23
    9    8   14      0.08      0.05
   10    8   14      0.51     -2.39
   11    8   14     -1.36     -3.92
   12    8   14     -0.87      2.08
   13    8   14      0.74      2.36
    0    9   14     -0.59     -1.05
    1    9   14     -2.01      0.50
    2    9   14      5.00     -2.75
    3    9   14      3.06      4.61
    4    9   14     -7.37      4.25
    5    9   14      5.91      6.64
    6    9   14      0.71      0.99
    7    9   14     -2.50      2.44
    8    9   14     -5.51     -4.72
    9    9   14      1.26      2.66
   10    9   14      1.04     -3.70
   11    9   14     -2.78      0.26
   12    9   14     -6.56      4.38
   13    9   14      0.45     -0.08
    0   10   14      3.96     -0.02
    1   10   14     -2.70      6.47
    2   10   14      2.74     -0.38
    3   10   14     -6.61      1.00
    4   10   14     -0.56      1.59
    5   10   14      3.07     -0.20
    6   10   14      1.54      1.27
    7   10   14      1.21      1.40
    8   10   14     -3.17      1.45
    9   10   14     -0.81      1.19
   10   10   14     -1.81     -0.69
   11   10   14     -4.45     -4.74
   12   10   14     -3.04      1.58
    0   11   14     -0.04     -0.78
    1   11   14     -2.84     -1.42
    2   11   14      9.04      4.02
    3   11   14      4.31     -1.38
    4   11   14     -1.16      1.36
    5   11   14      5.13      4.03
    6   11   14      2.26      0.93
    7   11   14     -2.33     -4.07
    8   11   14     -3.80     -4.58
    9   11   14     -2.10      8.13
   10   11   14      2.22     -2.29
   11   11   14     -5.88      1.45
   12   11   14     -6.52      6.23
    0   12   14     -2.74     -0.60
    1   12   14     -2.04     -1.45
    2   12   14     -3.66      2.27
    3   12   14      0.77     -3.63
    4   12   14     -0.54     -3.45
    5   12   14     -0.05      5.48
    6   12   14      3.15     -1.95
    7   12   14      2.48      1.00
    8   12   14     -5.52     -3.62
    9   12   14      2.15      0.04
   10   12   14      2.62     -0.92
   11   12   14     -7.36     -2.09
   12   12   14     -0.42      0.20
    0   13   14      0.87      0.53
    1   13   14     -3.99     -1.67
    2   13   14      1.81      0.06
    3   13   14     -0.74     -2.78
    4   13   14     -1.07     -5.80
    5   13   14     -1.08     -2.70
    6   13   14      2.15     -3.42
    7   13   14      0.12     -4.33
    8   13   14     -2.53     -2.03
    9   13   14     -2.57     -0.57
   10   13   14      5.38     -2.32
   11   13   14      1.89      3.35
    0   14   14      4.16      0.55
    1   14   14     -2.99      1.32
    2   14   14     -3.40      5.84
    3   14   14     -1.84     -1.74
    4   14   14     -0.47     -1.65
    5   14   14      2.24      7.29
    6   14   14      0.48     -4.55
    7   14   14     -4.79      0.11
    8   14   14     -2.06     -1.75
    9   14   14      2.07      2.16
   10   14   14      2.61     -3.01
   11   14   14     -1.08     -3.94
    0   15   14      0.78      1.89
    1   15   14      2.51     -8.58
    2   15   14     -1.01      2.69
    3   15   14     -1.58      2.42
    4   15   14     -0.67     -2.81
    5   15   14     -2.07     -0.49
    6   15   14      2.03     -2.73
    7   15   14      0.06     -1.63
    8   15   14     -2.34      1.33
    9   15   14     -0.35      0.57
   10   15   14     -2.08     -2.94
   11   15   14      2.39      1.11
    0   16   14      5.02      0.82
    1   16   14      1.89      1.20
    2   16   14      0.05      3.10
    3   16   14     -0.39     -2.25
    4   16   14      1.55     -1.55
    5   16   14      3.55      2.85
    6   16   14     -2.33     -2.42
    7   16   14     -4.42     -4.13
    8   16   14      1.42      0.61
    9   16   14     -0.13      1.83
   10   16   14      0.12     -1.71
    0   17   14      1.33      0.00
    1   17   14     -3.01     -4.21
    2   17   14      0.71     -0.45
    3   17   14     -2.19      1.95
    4   17   14     -1.05      0.05
    5   17   14      2.94      2.71
    6   17   14      2.37     -4.65
    7   17   14      0.27      1.14
    8   17   14     -2.99     -0.50
    9   17   14     -0.49     -0.13
   10   17   14     -0.84      0.21
    0   18   14      0.61      0.18
    1   18   14     -2.61      1.20
    2   18   14     -0.37     -2.97
    3   18   14     -1.26     -2.63
    4   18   14     -0.06     -2.04
    5   18   14     -0.67     -0.38
    6   18   14      1.06     -1.54
    7   18   14      0.58     -1.11
    8   18   14      0.61     -1.49
    9   18   14     -2.81      4.97
    0   19   14      0.40      3.83
    1   19   14     -0.92      1.30
    2   19   14     -0.18      0.34
    3   19   14     -0.07     -1.22
    4   19   14      3.72      2.73
    5   19   14      2.60      2.39
    6   19   14      1.58     -4.63
    7   19   14      2.25      1.91
    8   19   14     -2.24     -0.42
    0   20   14     -1.80      0.65
    1   20   14     -1.22      4.36
    2   20   14      3.07      2.11
    3   20   14     -4.19     -0.80
    4   20   14     -2.97      1.03
    5   20   14     -3.11     -1.24
    6   20   14      3.48      1.18
    7   20   14      0.54      0.97
    0   21   14      0.48     -1.83
    1   21   14     -0.76      1.74
    2   21   14      0.77     -0.44
    3   21   14      0.68     -2.38
    4   21   14      1.76      1.07
    5   21   14     -3.71      0.10
    6   21   14     -0.21      0.20
    7   21   14      0.41      1.81
    0   22   14     -1.51     -0.04
    1   22   14     -2.72      0.83
    2   22   14      4.36      1.38
    3   22   14     -0.28      2.52
    4   22   14      0.12      0.54
    5   22   14     -2.60     -1.49
    0   23   14      1.16     -2.11
    1   23   14     -0.84      0.01
    2   23   14      1.41      0.95
    3   23   14      0.28     -0.45
    4   23   14      0.41     -0.08
    0   24   14     -1.20      0.65
    1   24   14     -3.06      0.16
    1    0   15      0.15     -0.85
    2    0   15     -0.01     -6.75
    3    0   15     -0.03      5.50
    4    0   15     -0.01      2.87
    5    0   15      0.08      1.40
    6    0   15     -0.07     -2.55
    7    0   15      0.01     -1.55
    8    0   15      0.02     -1.66
    9    0   15      0.17      2.42
   10    0   15     -0.02      2.08
   11    0   15     -0.01      3.11
   12    0   15     -0.07      0.13
   13    0   15     -0.03     -1.68
   14    0   15      0.00     -0.59
    0    1   15      0.38      5.92
    1    1   15    -14.83     -9.62
    2    1   15      4.80     -4.71
    3    1   15     -3.61      1.85
    4    1   15      2.69      3.79
    5    1   15     -7.67      5.31
    6    1   15      0.35     -1.83
    7    1   15      1.86      2.84
    8    1   15     -0.13     -0.34
    9    1   15      3.76     -2.81
   10    1   15     -0.27     -3.02
   11    1   15      1.01      0.21
   12    1   15      4.35      1.99
   13    1   15     -0.69      0.81
   14    1   15      1.85     -0.07
    0    2   15     -8.26      0.07
    1    2   15    -15.84      4.08
    2    2   15      1.01      1.47
    3    2   15     -8.24     -1.91
    4    2   15      3.03      3.61
    5    2   15     -6.64     -2.36
    6    2   15      2.42     -3.51
    7    2   15      1.23     -1.17
    8    2   15      0.30      1.47
    9    2   15     -2.96      0.96
   10    2   15      0.78     -0.25
   11    2   15      2.63      2.42
   12    2   15      1.65     -1.43
   13    2   15     -0.94     -1.96
   14    2   15      0.18     -0.40
    0    3   15      0.16    -55.32
    1    3   15      0.73      7.03
    2    3   15      0.22      2.96
    3    3   15     -1.10      5.22
    4    3   15      0.86     -1.51
    5    3   15     -2.57      0.86
    6    3   15     -5.20     -5.08
    7    3   15      0.35      4.21
    8    3   15      1.74     -3.17
    9    3   15      1.68     -5.44
   10    3   15     -1.11     -1.55
   11    3   15      1.65      1.29
   12    3   15     -0.39     -5.78
   13    3   15      0.76      0.88
   14    3   15      1.24      0.41
    0    4   15     -5.50     -0.03
    1    4   15     -9.96    -11.49
    2    4   15     -9.79      1.34
    3    4   15      9.90      1.59
    4    4   15     -5.54      0.10
    5    4   15     -0.48     -2.72
    6    4   15      8.12      2.58
    7    4   15      2.32      1.71
    8    4   15     -4.09     -0.98
    9    4   15     -1.11      3.25
   10    4   15      1.87      1.87
   11    4   15     -0.92      3.21
   12    4   15      3.51     -1.56
   13    4   15     -0.72      2.45
    0    5   15     -0.06    -21.29
    1    5   15     -1.39      8.15
    2    5   15     -0.23    -12.97
    3    5   15     11.59     -1.01
    4    5   15      2.02      2.07
    5    5   15     -1.58     -2.47
    6    5   15     -2.28      0.76
    7    5   15      0.50     -5.01
    8    5   15      0.69     -2.02
    9    5   15      2.62     -2.69
   10    5   15     -0.05      0.13
   11    5   15      1.16     -0.21
   12    5   15      1.67     -3.05
   13    5   15     -1.24     -0.21
    0    6   15     -9.07     -0.06
    1    6   15     -9.13     -7.47
    2    6   15     -3.97      6.92
    4    6   15      0.10     -3.87
    5    6   15      2.33      0.94
    6    6   15      1.54      3.80
    7    6   15      3.00      1.57
    8    6   15     -2.96     -2.16
    9    6   15     -1.21      0.16
   10    6   15      0.63     -2.52
   11    6   15     -0.01      3.42
   12    6   15      2.20     -0.37
   13    6   15     -1.88     -0.16
    0    7   15     -0.21     -2.36
    1    7   15      0.85      5.44
    2    7   15     -4.13     -4.76
    3    7   15      4.81      1.47
    6    7   15     -0.72     -4.65
    7    7   15     -2.49     -0.96
    8    7   15      1.86      3.84
    9    7   15      3.11      0.32
   10    7   15     -4.79     -2.74
   11    7   15     -1.04      3.36
   12    7   15      2.10     -1.84
   13    7   15      1.78      0.22
    0    8   15      6.38      0.29
    1    8   15     -2.36     -3.52
    2    8   15     -0.32      0.65
    3    8   15     -1.94      4.84
    4    8   15      2.71     -3.19
    5    8   15     -0.31      1.21
    6    8   15     -0.30      2.05
    7    8   15      0.08      5.97
    8    8   15      2.93      1.50
    9    8   15     -0.56     -2.07
   10    8   15     -6.40      0.35
   11    8   15      3.38      1.01
   12    8   15      2.32     -1.69
   13    8   15      1.41      1.18
    0    9   15      0.08     -3.65
    1    9   15      4.26     -0.09
    2    9   15      4.31      2.99
    3    9   15      6.85     -0.97
    4    9   15      4.20      0.54
    5    9   15     -1.57     -0.87
    6    9   15     -3.14     -0.49
    7    9   15     -1.28      0.25
    8    9   15      0.00      0.48
    9    9   15      2.23     -6.25
   10    9   15     -4.87     -1.12
   11    9   15     -2.12      4.13
   12    9   15      0.42     -3.28
   13    9   15      3.92      0.20
    0   10   15     -7.40     -0.20
    1   10   15     -5.95     -7.36
    2   10   15     -0.34      1.06
    3   10   15      5.73     -1.21
    4   10   15     -1.46     -0.50
    5   10   15      1.34      1.18
    6   10   15      4.25     -1.06
    7   10   15     -5.70      0.64
    8   10   15      3.50      2.23
    9   10   15      4.98     -2.91
   10   10   15     -1.57     -1.48
   11   10   15      3.99     -3.55
   12   10   15      2.41     -3.44
    0   11   15     -0.17     -5.63
    1   11   15      0.07      0.17
    2   11   15      0.41     -1.84
    3   11   15     -2.60     -5.43
    4   11   15      1.88     -1.66
    5   11   15     -1.55     -0.23
    6   11   15      1.14     -0.97
    7   11   15     -0.57      0.33
    8   11   15     -3.20      2.71
    9   11   15     -1.30     -4.44
   10   11   15     -1.13      3.49
   11   11   15      1.36      0.29
   12   11   15     -1.66     -4.35
    0   12   15     -0.60     -0.63
    1   12   15      1.17     -1.21
    2   12   15      0.45      0.75
    3   12   15      3.48     -3.32
    4   12   15      0.37      1.45
    5   12   15      3.43      2.58
    6   12   15     -1.62     -1.61
    7   12   15      0.70      0.11
    8   12   15      3.42      1.58
    9   12   15      0.46      2.29
   10   12   15     -0.96     -0.98
   11   12   15      4.18     -2.84
   12   12   15      0.99     -0.38
    0   13   15      0.44     -3.14
    1   13   15     -2.65      0.08
    2   13   15     -5.01      2.51
    3   13   15      0.14     -4.43
    4   13   15      0.71     -2.63
    5   13   15      1.82     -1.39
    6   13   15      1.91     -2.78
    7   13   15      2.41      1.93
    8   13   15      0.35      0.64
    9   13   15     -1.16      2.68
   10   13   15      1.46      0.44
   11   13   15      4.01     -0.92
    0   14   15      0.06      0.00
    1   14   15      1.30      0.65
    2   14   15      2.24      0.26
    3   14   15     -5.54      0.37
    4   14   15      0.13     -2.25
    5   14   15      0.58      1.88
    6   14   15     -0.63     -1.32
    7   14   15      0.34     -0.66
    8   14   15     -0.62      1.19
    9   14   15      0.55      3.93
   10   14   15      3.19      2.12
   11   14   15      2.16      1.08
    0   15   15     -0.02      1.01
    1   15   15     -0.30      1.23
    2   15   15     -0.55      2.86
    3   15   15     -0.50     -0.87
    4   15   15     -2.69      1.54
    5   15   15      1.19      1.45
    6   15   15     -0.25     -1.44
    7   15   15     -0.42     -0.16
    8   15   15      0.37      0.44
    9   15   15     -4.25      0.81
   10   15   15     -1.90     -1.65
    0   16   15     -2.83      0.41
    1   16   15      2.31     -1.26
    2   16   15      2.07     -0.93
    3   16   15     -0.83      1.60
    4   16   15     -0.59      1.13
    5   16   15      0.13      3.70
    6   16   15      2.43     -2.60
    7   16   15      0.83     -0.54
    8   16   15     -1.59      3.09
    9   16   15      0.81      1.65
   10   16   15      1.49     -0.34
    0   17   15     -0.57     -1.74
    1   17   15      2.14      2.04
    2   17   15      1.17     -3.17
    3   17   15      1.50      3.12
    4   17   15      0.67      2.41
    5   17   15      0.76     -1.46
    6   17   15      1.00     -1.65
    7   17   15      0.48      1.64
    8   17   15     -2.45     -0.46
    9   17   15      1.78      0.99
    0   18   15     -0.29      0.69
    1   18   15      2.19     -2.05
    2   18   15     -1.19     -2.85
    3   18   15      3.19      0.12
    4   18   15      0.46     -0.28
    5   18   15      0.35      4.72
    6   18   15      2.53     -1.50
    7   18   15      0.50     -0.56
    8   18   15     -0.67      0.74
    9   18   15      0.32      1.36
    0   19   15      0.15     -3.38
    1   19   15     -2.31     -2.30
    2   19   15      0.33     -0.88
    3   19   15      0.16      2.17
    4   19   15     -2.25      2.55
    5   19   15      0.36     -2.38
    6   19   15      1.54      0.99
    7   19   15      0.56      2.81
    8   19   15     -4.75     -1.30
    0   20   15      1.62      0.17
    1   20   15     -2.87     -0.10
    2   20   15     -1.92     -0.98
    3   20   15      0.10     -0.19
    4   20   15     -0.39     -0.85
    5   20   15     -0.51      0.87
    6   20   15      2.29     -1.65
    7   20   15     -0.69     -0.58
    0   21   15     -0.17     -4.28
    1   21   15     -0.41      1.88
    2   21   15      0.23      2.12
    3   21   15     -1.67     -0.41
    4   21   15      0.56     -1.98
    5   21   15      1.38      1.89
    6   21   15     -0.31     -0.36
    0   22   15     -0.03     -0.20
    1   22   15     -3.94     -3.56
    2   22   15      0.72      1.47
    3   22   15      1.81      2.75
    4   22   15     -0.85     -0.49
    5   22   15      0.52     -0.86
    0   23   15      0.50     -3.77
    1   23   15      0.76      2.89
    2   23   15      1.21      0.43
    3   23   15     -0.83     -0.17
    0    0   16     40.68     -0.04
    1    0   16     -6.40      0.01
    2    0   16    -19.61      0.03
    3    0   16     -0.45      0.05
    4    0   16      4.55     -0.02
    5    0   16    -11.70     -0.06
    6    0   16     -0.51      0.01
    7    0   16     -5.94      0.02
    8    0   16      4.77      0.10
    9    0   16      0.46      0.02
   10    0   16     -1.10     -0.02
   11    0   16     -3.39     -0.08
   12    0   16      5.74     -0.01
   13    0   16      2.03      0.08
    0    1   16     -0.04    -12.27
    1    1   16      4.92    -10.18
    2    1   16      0.09     -1.91
    3    1   16     -0.58      4.45
    4    1   16     -0.52    -15.39
    5    1   16      3.19      8.75
    6    1   16    -10.49     -3.56
    7    1   16      2.31      1.55
    8    1   16      1.15     -4.19
    9    1   16     -0.32      1.35
   10    1   16      0.31     -2.56
   11    1   16     -2.82     -1.28
   12    1   16     -1.68      2.23
   13    1   16      0.10     -2.27
    1    2   16      1.40      1.42
    2    2   16      8.32      6.03
    3    2   16      0.57     -0.65
    4    2   16     -1.39    -12.69
    5    2   16     -1.92     10.86
    6    2   16      2.76      0.93
    7    2   16     -2.88     -0.49
    8    2   16      0.64     -2.45
    9    2   16      3.41     -1.21
   10    2   16      0.54     -0.14
   11    2   16     -1.76      2.00
   12    2   16      0.99     -0.59
   13    2   16      1.35     -0.59
    0    3   16      0.10     -5.56
    1    3   16     10.13     -8.10
    2    3   16     -9.56    -11.88
    3    3   16      4.61      4.70
    4    3   16     -0.85      1.12
    5    3   16      2.10      8.22
    6    3   16     -1.34    -16.10
    7    3   16      3.80      4.78
    8    3   16     -0.35      2.71
    9    3   16      0.48     -1.16
   10    3   16      0.67     -0.43
   11    3   16     -1.66     -2.68
   12    3   16     -3.71      1.38
   13    3   16      2.66      0.81
    0    4   16     21.44      0.18
    1    4   16      3.57      0.98
    2    4   16     -3.60     -2.48
    3    4   16     -4.01     -6.60
    4    4   16     -1.84      3.77
    5    4   16      8.39      9.51
    6    4   16      6.22     -4.42
    7    4   16     -0.72      2.93
    8    4   16     -1.14     -0.74
    9    4   16      4.20      2.90
   10    4   16     -2.48     -0.22
   11    4   16     -3.68      1.88
   12    4   16     -0.49     -1.60
   13    4   16      2.95      0.46
    0    5   16      0.20     13.92
    1    5   16      3.48     -5.62
    2    5   16     -6.12      3.80
    3    5   16      0.08     -5.82
    4    5   16     -0.60      2.69
    6    5   16      6.65     -4.00
    7    5   16     -2.02      0.12
    8    5   16      2.70      0.19
    9    5   16      0.71      2.20
   10    5   16      0.92      1.33
   11    5   16      0.16      1.29
   12    5   16      1.35     -1.04
   13    5   16     -2.10      3.75
    0    6   16      2.01      1.57
    1    6   16      0.22     -1.68
    2    6   16     -0.57     -3.99
    3    6   16     -6.97      5.15
    4    6   16      0.52      3.87
    5    6   16     -2.32      2.71
    6    6   16     -1.45     -2.70
    7    6   16     -1.34     -0.44
    8    6   16      3.23     -2.24
    9    6   16      4.38     -2.09
   10    6   16      2.55      3.00
   11    6   16      0.25     -0.10
   12    6   16     -4.63      0.41
   13    6   16      0.75      1.20
    0    7   16      0.44      0.07
    1    7   16      4.84     -3.60
    2    7   16     -5.74      9.58
    3    7   16      1.56     -6.55
    5    7   16     -1.31      0.34
    6    7   16     -3.24      1.02
    7    7   16     -1.98     -2.87
    8    7   16     -1.29     -4.92
    9    7   16     -0.54      0.37
   10    7   16      1.08      2.28
   11    7   16     -1.74      3.36
   12    7   16      1.21      0.20
   13    7   16      1.39     -1.31
    0    8   16     -2.14      1.47
    1    8   16     -2.82      6.18
    2    8   16      0.83     -1.56
    3    8   16      1.76      0.40
    4    8   16      1.11      2.15
    5    8   16      0.54     -0.35
    6    8   16      1.22      1.62
    7    8   16     -1.15      0.09
    8    8   16     -4.62      1.39
    9    8   16      1.32     -2.27
   10    8   16      0.85     -0.93
   11    8   16      1.90     -2.88
   12    8   16     -1.39      5.78
   13    8   16     -0.26      0.19
    0    9   16      0.06     -0.93
    1    9   16      5.13      8.02
    2    9   16      3.26     -0.93
    3    9   16      2.67      4.30
    4    9   16     -1.34      6.31
    5    9   16     -0.89      0.68
    6    9   16      2.82     -1.65
    7    9   16      1.35     -1.21
    8    9   16     -1.48      0.72
    9    9   16     -0.42      0.16
   10    9   16     -0.23     -0.91
   11    9   16     -4.93      0.97
   12    9   16     -1.86      3.82
    0   10   16      1.84      0.26
    1   10   16     -1.31      0.73
    2   10   16      4.24     -5.67
    3   10   16      0.65     -3.70
    4   10   16      1.65      4.44
    5   10   16      7.25     -3.78
    6   10   16      1.66      1.71
    7   10   16     -0.38      2.73
    8   10   16     -5.66      1.61
    9   10   16      4.59      3.38
   10   10   16     -2.67      1.23
   11   10   16      1.30      1.59
   12   10   16      4.76      5.85
    0   11   16      0.03     -3.55
    1   11   16      0.96      0.87
    2   11   16      5.46     -1.48
    3   11   16     -0.19      2.92
    4   11   16     -0.33     -3.64
    5   11   16      3.69      1.15
    6   11   16      4.50     -2.12
    7   11   16      3.11     -4.60
    8   11   16     -2.67     -0.36
    9   11   16     -3.95      4.18
   10   11   16      2.41      0.26
   11   11   16     -4.69      6.25
   12   11   16     -2.56      3.44
    0   12   16     -2.26     -0.67
    1   12   16      0.78      3.76
    2   12   16     -0.44     -3.71
    3   12   16     -3.53     -2.94
    4   12   16     -1.61      0.29
    5   12   16     -0.84      1.52
    6   12   16      1.46      1.88
    7   12   16     -1.30     -0.63
    8   12   16     -8.57     -1.43
    9   12   16      5.11      3.71
   10   12   16     -1.21      0.13
   11   12   16     -0.33      3.01
   12   12   16      3.61      2.65
    0   13   16      0.12      4.03
    1   13   16     -0.32      1.02
    2   13   16      4.81      2.87
    3   13   16     -0.17      0.30
    4   13   16     -3.29     -1.06
    5   13   16      3.80     -1.79
    6   13   16     -0.92     -2.95
    7   13   16      4.41      0.15
    8   13   16     -3.73      7.04
    9   13   16     -3.17     -2.57
   10   13   16      0.04     -3.19
   11   13   16      1.76      6.13
    0   14   16      1.88     -0.03
    1   14   16     -2.19      1.88
    2   14   16     -2.40      1.52
    3   14   16     -1.16      1.21
    4   14   16     -3.75      0.68
    5   14   16     -0.46      2.86
    6   14   16     -1.55     -3.61
    7   14   16     -5.29     -2.28
    8   14   16     -2.81     -0.52
    9   14   16      2.05      2.51
   10   14   16     -2.03      0.43
   11   14   16      0.80     -3.23
    0   15   16      0.52     -2.84
    1   15   16      2.91     -3.09
    2   15   16      4.17     -2.10
    3   15   16     -3.41      3.27
    4   15   16     -2.42     -1.55
    5   15   16      1.85     -3.83
    6   15   16     -1.04      0.95
    7   15   16     -1.06      3.19
    8   15   16     -1.65      0.25
    9   15   16      0.19     -1.62
   10   15   16     -4.30     -2.89
    0   16   16      2.77     -0.50
    1   16   16     -3.11      0.08
    2   16   16      1.33      0.64
    3   16   16      2.58      1.31
    4   16   16     -0.89      2.17
    5   16   16      1.17      2.65
    6   16   16     -4.59     -1.75
    7   16   16      0.06     -1.77
    8   16   16      0.99      3.43
    9   16   16      1.08     -0.51
   10   16   16     -2.27      1.05
    0   17   16      1.28     -3.35
    1   17   16      1.22     -1.42
    2   17   16     -1.31     -0.37
    3   17   16     -2.51      1.72
    4   17   16     -4.43      1.22
    5   17   16      3.51      0.19
    6   17   16      0.87      1.56
    7   17   16     -2.50      0.95
    8   17   16     -4.07     -0.90
    9   17   16      4.34      1.38
    0   18   16      3.91     -1.06
    1   18   16     -3.32      1.13
    2   18   16     -0.51     -3.23
    3   18   16      0.19     -0.91
    4   18   16      0.65     -0.30
    5   18   16      1.65     -1.22
    6   18   16     -4.74     -3.25
    7   18   16      1.80     -2.38
    8   18   16     -2.73      2.88
    9   18   16     -0.52      3.41
    0   19   16      1.23      1.07
    1   19   16      3.37      2.99
    2   19   16     -0.06     -0.67
    3   19   16     -3.81      1.72
    4   19   16      1.45      2.52
    5   19   16      0.44      3.63
    6   19   16      3.65     -5.79
    7   19   16      0.56     -1.30
    8   19   16     -5.93     -1.51
    0   20   16      0.08      0.09
    1   20   16     -0.58      1.21
    2   20   16      0.81      1.82
    3   20   16     -3.47     -0.46
    4   20   16     -0.74     -3.12
    5   20   16      1.21      2.28
    6   20   16      0.25      1.22
    7   20   16      0.17     -2.39
    0   21   16     -0.02     -0.87
    1   21   16      3.65      1.95
    2   21   16      1.75     -3.66
    3   21   16      2.39      1.12
    4   21   16      0.52      0.22
    5   21   16     -1.28      2.41
    6   21   16      2.06     -3.14
    0   22   16      0.89     -0.63
    1   22   16     -0.48      1.00
    2   22   16      1.46     -1.47
    3   22   16     -0.26      0.01
    4   22   16      0.16      0.53
    5   22   16     -1.21      3.71
    0   23   16      0.26      1.31
    1   23   16      0.04      2.86
    2   23   16      0.84     -1.12
    3   23   16      1.06      0.85
    1    0   17      0.07     14.08
    3    0   17     -0.22      2.18
    4    0   17      0.05     -9.20
    5    0   17      0.03      6.07
    6    0   17     -0.02     -2.10
    7    0   17     -0.17      4.49
    8    0   17      0.06     -3.79
    9    0   17      0.11     -1.10
   10    0   17     -0.04      0.72
   11    0   17     -0.07      0.49
   12    0   17     -0.10     -6.39
   13    0   17     -0.08      1.07
    0    1   17      0.44     21.89
    1    1   17      4.24      0.50
    2    1   17      4.09    -11.52
    3    1   17      1.94      3.76
    4    1   17      2.29      3.13
    5    1   17     -2.42     -0.25
    6    1   17    -10.96     -2.56
    7    1   17      1.53      1.77
    8    1   17     -0.56     -1.82
    9    1   17      2.67     -1.57
   10    1   17      1.40     -2.87
   11    1   17      1.74     -3.69
   12    1   17      0.59      0.99
   13    1   17     -2.94      1.37
    0    2   17    -19.99     -0.36
    1    2   17     -5.26      9.31
    2    2   17     -0.34     -1.00
    3    2   17     -0.48      1.54
    4    2   17      5.14      2.50
    5    2   17      4.39      2.33
    6    2   17     -5.97      0.78
    7    2   17      1.67      5.53
    8    2   17      1.49      1.38
    9    2   17     -6.63     -1.73
   10    2   17     -2.20     -0.24
   11    2   17      1.84      0.86
   12    2   17     -2.62     -2.64
   13    2   17      1.76     -1.69
    0    3   17      0.11     -9.75
    1    3   17      6.24      1.34
    2    3   17     -2.47     12.83
    3    3   17     -1.75      0.74
    4    3   17      4.23      5.58
    6    3   17     -8.79     -3.91
    7    3   17     -2.34      1.18
    8    3   17      5.42      1.79
    9    3   17      2.63     -0.65
   10    3   17     -0.10     -0.42
   11    3   17      1.95     -1.34
   12    3   17     -1.40     -2.97
   13    3   17     -1.79      1.23
    0    4   17    -25.11      0.17
    1    4   17      5.86      0.92
    2    4   17     -8.80     -2.54
    3    4   17      4.28     -3.09
    4    4   17     -0.45      3.29
    7    4   17      0.10      5.28
    8    4   17     -4.64      0.00
    9    4   17     -3.64     -2.47
   10    4   17      0.40     -0.61
   11    4   17     -0.75     -0.70
   12    4   17     -4.64     -0.88
   13    4   17      1.48      1.91
    0    5   17     -0.24      1.71
    1    5   17    -14.01      7.22
    2    5   17      5.15      1.23
    3    5   17      4.40     -8.25
    4    5   17     -1.14      0.81
    5    5   17     -0.87     -0.38
    6    5   17      0.83     -1.96
    7    5   17      0.49     -2.71
    8    5   17      0.62      1.51
    9    5   17      1.53     -0.52
   10    5   17     -0.46     -3.41
   11    5   17      3.71      0.83
   12    5   17     -0.42     -2.19
   13    5   17     -1.55      1.71
    0    6   17    -11.16      0.02
    1    6   17     -1.41      2.16
    2    6   17    -11.77      1.28
    3    6   17      4.82     -1.83
    4    6   17     -0.46     -6.62
    6    6   17     -4.75      1.14
    7    6   17     -0.16      2.21
    8    6   17      1.47     -1.09
    9    6   17     -1.10     -1.11
   10    6   17      1.16      1.22
   11    6   17      1.31     -1.27
   12    6   17     -0.70     -1.75
   13    6   17     -1.21     -1.31
    0    7   17      0.06      0.59
    1    7   17     -3.33      2.42
    2    7   17      5.04      3.20
    3    7   17      1.10      1.82
    4    7   17     -4.15     -0.75
    6    7   17      2.79     -2.22
    7    7   17      3.10     -3.08
    8    7   17      0.79      4.52
    9    7   17      1.48      0.28
   10    7   17     -4.67      0.05
   11    7   17      1.21      0.13
   12    7   17      1.41     -0.50
   13    7   17      0.26     -1.18
    0    8   17      3.25      0.26
    1    8   17     -0.06     -0.39
    2    8   17     -1.05     -1.50
    3    8   17      1.78     -2.97
    5    8   17      0.32      3.07
    6    8   17     -3.75      0.06
    7    8   17     -0.25      4.08
    8    8   17      4.72     -2.49
    9    8   17     -2.02     -2.76
   10    8   17     -3.08      7.23
   11    8   17      2.89      1.72
   12    8   17      0.21     -1.92
    0    9   17      0.39      1.86
    1    9   17     -4.00      2.90
    2    9   17      1.90      2.40
    3    9   17      2.46     -0.23
    4    9   17      1.06     -1.27
    5    9   17      0.24     -0.78
    6    9   17      0.40     -2.70
    7    9   17      2.35      5.60
    8    9   17      2.98     -1.90
    9    9   17     -4.29     -4.53
   10    9   17      0.76      0.58
   11    9   17     -3.05     -3.05
   12    9   17     -2.46     -0.77
    0   10   17     -5.22      0.20
    1   10   17     -0.61     -4.41
    2   10   17      1.90      0.32
    3   10   17     -2.20     -0.23
    4   10   17     -2.20      1.87
    5   10   17     -1.61      0.66
    6   10   17      4.21      1.37
    7   10   17     -2.63      0.61
    8   10   17     -0.94      0.92
    9   10   17     -2.31     -0.33
   10   10   17      1.40      5.66
   11   10   17      2.37     -1.03
   12   10   17     -1.24      0.05
    0   11   17     -0.65      1.16
    1   11   17     -2.41      1.39
    2   11   17      1.16     -2.84
    3   11   17      0.35     -8.46
    4   11   17      0.31     -0.14
    5   11   17      3.45     -1.76
    6   11   17     -1.25      0.54
    7   11   17      1.37      4.14
    8   11   17      0.32     -2.71
    9   11   17     -3.60     -5.16
   10   11   17     -2.40      0.14
   11   11   17     -2.65     -1.99
   12   11   17     -4.64     -2.50
    0   12   17     -4.63     -0.07
    1   12   17      2.09      4.22
    2   12   17     -1.43      1.58
    3   12   17     -3.04     -0.07
    4   12   17     -2.45     -1.95
    5   12   17     -0.67      1.18
    6   12   17     -5.79     -2.59
    7   12   17      1.72     -2.41
    8   12   17      4.44      1.66
    9   12   17     -1.51      0.31
   10   12   17     -3.17      0.65
   11   12   17     -1.17     -5.04
    0   13   17     -0.46     -1.16
    1   13   17     -3.01     -1.93
    2   13   17     -1.06      1.14
    3   13   17     -4.05      0.66
    4   13   17     -1.47     -1.28
    5   13   17      3.29     -3.11
    6   13   17     -1.06      3.38
    7   13   17     -0.60      2.32
    8   13   17      2.57     -2.84
    9   13   17      2.06     -0.61
   10   13   17     -1.49     -1.36
   11   13   17      0.57     -1.95
    0   14   17      1.56     -0.40
    1   14   17     -0.36      0.59
    2   14   17      3.66      1.47
    3   14   17     -5.13     -0.32
    4   14   17     -0.04      1.75
    5   14   17     -1.14     -1.31
    6   14   17     -1.21     -2.16
    7   14   17      3.14     -0.46
    8   14   17      1.45     -0.04
    9   14   17      1.73      0.61
   10   14   17      1.08      1.03
   11   14   17     -0.44     -0.67
    0   15   17      0.10      4.71
    1   15   17      3.29     -1.53
    2   15   17     -0.19     -1.28
    3   15   17      0.71      3.70
    4   15   17     -2.42     -0.79
    5   15   17      3.81      1.99
    6   15   17     -1.37     -1.68
    7   15   17     -0.15     -0.95
    8   15   17      2.92      0.60
    9   15   17      0.41     -0.58
   10   15   17     -1.30     -4.12
    0   16   17     -1.08      0.19
    1   16   17      3.29     -0.35
    2   16   17      0.03      1.46
    3   16   17      0.45     -0.50
    4   16   17      0.24      1.80
    5   16   17     -0.80      0.72
    6   16   17     -2.09     -0.29
    7   16   17      0.47     -0.09
    8   16   17     -0.01      2.49
    9   16   17      0.40     -0.46
   10   16   17      1.08      0.41
    0   17   17      0.43      1.54
    1   17   17     -0.02     -1.97
    2   17   17     -1.26     -0.69
    3   17   17      1.60     -2.64
    4   17   17      3.26      2.74
    5   17   17      2.22     -0.51
    6   17   17     -1.79     -4.49
    7   17   17      0.00     -1.46
    8   17   17      0.21      1.62
    9   17   17      1.76      1.43
    0   18   17     -2.88      0.01
    1   18   17      2.04      0.93
    2   18   17     -1.85     -0.61
    3   18   17      2.95     -1.29
    4   18   17      2.74     -1.03
    5   18   17     -1.06      0.88
    6   18   17      0.73     -0.38
    7   18   17      2.60     -3.28
    8   18   17     -0.51      3.00
    0   19   17      0.14     -1.53
    1   19   17     -2.05     -1.09
    2   19   17     -1.82     -0.30
    3   19   17      1.11     -0.93
    4   19   17     -2.63      1.20
    5   19   17      1.60     -0.54
    6   19   17      0.01     -1.98
    7   19   17      1.36      1.31
    8   19   17     -2.79     -0.53
    0   20   17     -1.07     -0.12
    1   20   17     -2.32      2.77
    2   20   17      0.60     -2.35
    3   20   17      0.09     -0.68
    4   20   17      0.10      0.63
    5   20   17     -0.52      0.91
    6   20   17      0.78     -0.74
    7   20   17      2.03     -1.09
    0   21   17     -0.77     -0.97
    1   21   17     -1.71      3.04
    2   21   17     -0.76      3.79
    3   21   17      2.40     -0.34
    4   21   17     -0.69     -0.42
    5   21   17      0.54      0.48
    6   21   17     -1.92     -0.18
    0   22   17     -1.78     -0.35
    1   22   17      0.02     -1.65
    2   22   17      0.46     -0.32
    3   22   17      1.27      2.29
    4   22   17     -2.30     -0.86
    0   23   17      0.10     -1.81
    1   23   17     -2.23      2.83
    2   23   17      0.28      0.81
    0    0   18      9.90     -0.05
    1    0   18     -2.63      0.00
    2    0   18    -17.95      0.00
    3    0   18      2.43      0.04
    4    0   18     -9.09     -0.09
    6    0   18     -8.69      0.03
    7    0   18      0.63      0.00
    8    0   18     -1.70      0.04
    9    0   18      1.06      0.05
   10    0   18     -2.94     -0.03
   11    0   18      0.93      0.01
   12    0   18      3.87     -0.03
   13    0   18      0.48      0.12
    0    1   18      0.03    -13.60
    1    1   18      1.81     -5.79
    2    1   18      2.25      3.36
    3    1   18     -0.20      5.01
    4    1   18     -5.14     -0.02
    5    1   18     11.39      5.66
    6    1   18     -6.23     -0.23
    7    1   18      0.62     -0.61
    8    1   18      0.89     -4.73
    9    1   18     -0.48      0.90
   10    1   18      2.84     -0.51
   11    1   18      0.50      1.78
   12    1   18     -0.93     -3.18
   13    1   18     -1.68     -2.84
    0    2   18    -16.23      0.05
    2    2   18     -4.77      6.95
    3    2   18      4.03      0.28
    4    2   18     -5.85      2.63
    5    2   18      7.83     -0.88
    6    2   18    -14.34      9.28
    7    2   18      0.56     -5.17
    8    2   18     -3.35     -0.65
    9    2   18      0.54     -1.66
   10    2   18     -1.50     -1.25
   11    2   18      0.47      2.01
   12    2   18      1.20      3.54
   13    2   18     -1.67     -2.44
    0    3   18      0.04     -9.01
    1    3   18     -4.51     -6.54
    2    3   18     -0.10     -4.24
    3    3   18     -9.70      2.80
    4    3   18     -0.82     -0.99
    5    3   18     12.44      0.29
    6    3   18     -0.56    -12.84
    7    3   18      0.94      4.49
    8    3   18     -2.56      2.28
    9    3   18     -0.89     -3.80
   10    3   18      1.26      0.77
   11    3   18     -0.75      1.92
   12    3   18     -4.31     -1.20
   13    3   18      1.52     -3.37
    0    4   18     15.33     -0.20
    1    4   18      1.34     -5.45
    2    4   18    -10.60      6.90
    3    4   18     -0.85     -4.55
    4    4   18      4.50      5.00
    5    4   18      3.82      0.63
    6    4   18     -5.82     -8.13
    7    4   18      4.35     -4.10
    8    4   18      1.11      0.29
    9    4   18      1.92      3.38
   10    4   18      0.55     -2.81
   11    4   18     -1.81     -1.26
   12    4   18      0.05      1.74
   13    4   18      2.10      0.20
    0    5   18      0.94     -8.50
    1    5   18     -5.40     -1.99
    2    5   18     -2.99      1.42
    3    5   18      0.91      5.66
    4    5   18      4.22     -2.94
    5    5   18      5.72     -2.13
    6    5   18      1.99     -3.36
    7    5   18      1.45      1.10
    8    5   18     -1.31     -1.55
    9    5   18      2.05     -2.64
   10    5   18      2.51      2.52
   11    5   18      0.93      0.70
   12    5   18     -1.78     -0.22
   13    5   18      0.26     -0.16
    0    6   18      1.58      0.25
    1    6   18     -7.08     -7.09
    2    6   18      5.65      6.30
    3    6   18     -6.42      2.88
    4    6   18      0.10      1.10
    6    6   18      0.11     -1.38
    7    6   18     -3.36      0.29
    8    6   18     -0.49     -4.10
    9    6   18      3.01      0.81
   10    6   18      5.21      2.26
   11    6   18      3.36      0.82
   12    6   18     -2.40     -2.19
   13    6   18      0.08      1.33
    0    7   18      2.41      1.51
    1    7   18      2.90      1.23
    2    7   18     -6.57      3.69
    3    7   18      2.93      0.13
    4    7   18      1.77     -1.14
    6    7   18     -2.01      3.53
    7    7   18      0.64      0.74
    8    7   18     -0.19     -1.04
    9    7   18     -4.01     -4.81
   10    7   18      4.53     -0.11
   11    7   18     -3.42     -2.02
   12    7   18      2.34      4.00
   13    7   18     -0.16     -1.67
    0    8   18     -2.75      0.24
    1    8   18      3.30      1.08
    2    8   18      3.46      3.56
    3    8   18     -1.78     -0.74
    4    8   18      1.88      2.07
    5    8   18      0.07      1.34
    6    8   18      1.51      3.99
    7    8   18     -1.67     -0.65
    8    8   18     -5.06      0.63
    9    8   18     -0.03      1.67
   10    8   18      2.57     -2.30
   11    8   18      2.62      0.81
   12    8   18      0.61      2.59
    0    9   18      0.91     -2.51
    1    9   18      2.24      8.55
    2    9   18     -2.02     -6.36
    3    9   18      2.65     -0.05
    4    9   18      0.63      1.89
    5    9   18     -4.42     -0.68
    6    9   18      0.69     -2.00
    7    9   18      3.61      1.63
    8    9   18     -1.22      4.07
    9    9   18      3.55     -0.32
   10    9   18      2.31     -1.41
   11    9   18     -5.93     -3.61
   12    9   18      3.06     -1.40
    0   10   18      0.24     -0.23
    1   10   18      5.63     -2.48
    2   10   18     -0.43     -6.30
    3   10   18      2.14     -1.67
    4   10   18      1.23     -0.56
    5   10   18      2.36     -0.15
    6   10   18     -1.94     -4.48
    7   10   18     -2.65     -2.05
    8   10   18     -3.14      4.49
    9   10   18      2.34      3.44
   10   10   18     -0.86     -2.82
   11   10   18      3.62      5.03
   12   10   18      2.25      4.19
    0   11   18     -0.47      0.56
    1   11   18      1.16     -1.23
    2   11   18      0.33     -0.58
    3   11   18     -2.99      3.53
    4   11   18      2.85     -0.44
    5   11   18      1.09     -2.95
    6   11   18      7.44      0.93
    7   11   18     -0.54     -2.24
    8   11   18     -1.42      3.75
    9   11   18      4.27     -2.25
   10   11   18      4.18      3.31
   11   11   18      1.73     -0.52
   12   11   18      1.29     -3.37
    0   12   18     -4.35     -0.88
    1   12   18      0.52     -1.02
    2   12   18     -2.46     -5.30
    3   12   18      1.55     -2.70
    4   12   18     -3.22      0.61
    5   12   18     -0.71     -2.12
    6   12   18     -0.64     -3.06
    7   12   18     -0.23     -5.91
    8   12   18      0.46      2.11
    9   12   18      2.50      4.27
   10   12   18      1.17     -1.81
   11   12   18      4.25      0.47
    0   13   18     -0.45      3.12
    1   13   18      2.06     -2.98
    2   13   18     -0.71      3.51
    3   13   18     -0.38      2.83
    4   13   18     -0.91      0.61
    5   13   18      0.09     -0.35
    6   13   18      0.00     -3.69
    7   13   18     -2.05      1.97
    8   13   18     -3.57     10.51
    9   13   18      0.46     -4.67
   10   13   18      1.80     -2.17
   11   13   18      3.55      0.08
    0   14   18      4.78     -0.22
    1   14   18     -1.21      2.23
    2   14   18     -2.97     -3.48
    3   14   18      1.76      2.44
    4   14   18     -1.03      2.95
    5   14   18     -2.65      1.16
    6   14   18     -0.50     -1.56
    7   14   18     -0.54     -4.36
    8   14   18      3.04      3.06
    9   14   18     -1.19      5.04
   10   14   18     -1.60      5.08
    0   15   18      0.03      1.01
    1   15   18      3.18     -0.18
    2   15   18      3.43      0.20
    3   15   18      1.66      0.29
    4   15   18     -0.33      2.55
    5   15   18      0.75     -0.98
    6   15   18     -1.33      3.08
    7   15   18     -1.21      2.39
    8   15   18      0.17      0.91
    9   15   18      0.33     -1.84
   10   15   18      0.03      0.83
    0   16   18     -2.88     -1.27
    1   16   18     -1.06     -1.51
    2   16   18     -0.88      0.72
    3   16   18      2.52      0.70
    4   16   18      0.44      2.14
    5   16   18     -0.56     -0.47
    6   16   18      0.10      0.69
    7   16   18     -0.16     -1.03
    8   16   18      0.45      3.29
    9   16   18      0.63     -2.22
    0   17   18     -0.47     -4.05
    1   17   18     -2.17      2.52
    2   17   18     -0.95     -2.23
    3   17   18     -0.41     -0.86
    4   17   18      0.13      1.85
    5   17   18      0.47      0.70
    6   17   18      0.75      3.93
    7   17   18     -1.94     -2.33
    8   17   18      0.39      2.11
    9   17   18      2.14     -1.19
    0   18   18     -0.69     -2.48
    1   18   18     -0.23     -2.61
    2   18   18     -0.85     -0.89
    3   18   18      1.20      1.88
    4   18   18      2.85      2.11
    5   18   18      2.95     -1.03
    6   18   18     -2.77     -4.78
    7   18   18     -0.86     -0.65
    8   18   18     -1.40      7.36
    0   19   18      0.12     -1.00
    1   19   18      2.15      4.79
    2   19   18     -0.66      1.34
    3   19   18     -1.91      0.93
    4   19   18     -1.25      1.28
    5   19   18      2.62     -0.28
    6   19   18      1.28      0.26
    7   19   18     -1.28      0.65
    0   20   18     -2.78     -0.44
    1   20   18      1.06     -2.90
    2   20   18     -0.13      0.12
    3   20   18      0.92      2.37
    4   20   18     -1.23     -2.38
    5   20   18      2.16      0.17
    6   20   18     -5.16     -2.44
    0   21   18     -0.21     -4.18
    1   21   18      1.38      2.42
    2   21   18      0.81     -1.39
    3   21   18      0.83      1.03
    4   21   18      0.05      0.97
    5   21   18      1.91     -0.09
    0   22   18     -0.22     -0.01
    1   22   18      2.29     -2.09
    2   22   18     -1.10     -1.91
    3   22   18      1.26     -1.75
    4   22   18     -0.11     -0.54
    0   23   18     -0.24     -1.25
    1   23   18      0.56      1.78
    1    0   19     -0.01     -2.62
    2    0   19      0.09    -11.10
    3    0   19     -0.17      1.19
    4    0   19     -0.10     -2.61
    5    0   19      0.06      2.07
    6    0   19      0.15     14.33
    7    0   19     -0.17     -1.36
    8    0   19      0.01     -0.51
    9    0   19      0.02     -1.65
   10    0   19      0.04     -1.08
   11    0   19     -0.01     -0.06
   12    0   19     -0.06     -1.42
   13    0   19     -0.03      2.07
    0    1   19      0.00     22.34
    1    1   19      8.67      7.49
    2    1   19     -4.92     -6.75
    3    1   19      0.34     -1.88
    4    1   19     -2.53      0.94
    5    1   19      1.79     -3.40
    6    1   19     -3.32      3.01
    7    1   19      8.49      4.38
    8    1   19     -2.27     -3.03
    9    1   19      1.14      2.75
   10    1   19      0.55     -0.55
   11    1   19      1.27     -2.15
   12    1   19     -3.10      2.48
   13    1   19     -0.66     -0.82
    0    2   19      5.92     -0.68
    1    2   19     -8.40    -10.27
    2    2   19      0.83     -0.04
    3    2   19     -1.58      0.95
    4    2   19      7.93     -0.99
    5    2   19     -3.60     -0.82
    6    2   19     -2.57     11.23
    7    2   19      1.52     -1.27
    8    2   19      2.96     -2.69
    9    2   19     -4.50     -3.22
   10    2   19     -2.94     -0.38
   11    2   19     -3.82     -0.15
   12    2   19     -0.17      0.12
   13    2   19      0.43     -0.07
    0    3   19      0.06     -2.33
    1    3   19      8.97     -5.78
    2    3   19     -2.90      7.42
    3    3   19     -2.42      1.46
    4    3   19      6.98     -2.41
    6    3   19      0.78      4.21
    7    3   19      7.68      2.37
    8    3   19      2.92     -0.94
    9    3   19     -1.34      3.76
   10    3   19     -2.10     -0.49
   11    3   19      2.42     -0.09
   12    3   19     -0.69      2.78
   13    3   19      0.45     -3.83
    0    4   19     -8.72      0.24
    1    4   19     -0.81      2.80
    2    4   19      1.04     -0.70
    3    4   19     -1.85     -3.21
    4    4   19      4.20     -1.82
    6    4   19      1.53     10.40
    7    4   19      1.28      3.70
    8    4   19     -0.47     -4.59
    9    4   19     -0.91     -1.05
   10    4   19     -1.87      1.21
   11    4   19     -1.19     -2.00
   12    4   19     -2.14     -0.27
   13    4   19      2.87      4.21
    0    5   19      0.20      9.48
    1    5   19     -1.99      2.69
    2    5   19     -3.34      9.18
    3    5   19      5.20     -4.31
    4    5   19     -6.36      2.13
    6    5   19      2.53      5.44
    7    5   19      8.62     -0.25
    8    5   19      0.25      2.39
    9    5   19     -3.02     -0.63
   10    5   19     -0.64     -2.69
   11    5   19      0.66      0.23
   12    5   19     -1.56      1.82
   13    5   19     -0.22     -0.03
    0    6   19     -1.16      0.06
    1    6   19     -1.77      8.94
    2    6   19     -2.02     -4.28
    3    6   19     -3.27      1.29
    4    6   19     -0.34      0.20
    5    6   19      2.85     -1.03
    6    6   19     -2.35      1.23
    7    6   19     -1.50     -0.36
    8    6   19      4.93     -2.62
    9    6   19     -1.11     -1.47
   10    6   19     -3.42      3.32
   11    6   19      1.77     -2.13
   12    6   19      1.18     -1.99
   13    6   19     -1.35      0.24
    0    7   19      0.15      1.62
    1    7   19      0.36      2.81
    2    7   19      0.20      4.78
    3    7   19     -2.23     -1.76
    4    7   19     -6.18      1.21
    5    7   19      0.69      2.37
    6    7   19     -0.20      1.84
    7    7   19      3.01     -2.09
    8    7   19     -0.32     -1.14
    9    7   19      2.10      1.81
   10    7   19      1.80     -2.53
   11    7   19     -3.07      1.12
   12    7   19      1.17     -1.42
    0    8   19      4.65     -0.24
    1    8   19      0.66      1.95
    2    8   19      2.36     -3.11
    3    8   19     -1.21     -2.67
    4    8   19      1.39      1.12
    5    8   19     -0.04      2.93
    6    8   19     -4.38     -4.69
    7    8   19      0.44     -0.55
    8    8   19      5.20     -1.21
    9    8   19     -0.40     -1.04
   10    8   19     -2.78      2.11
   11    8   19     -1.63      4.47
   12    8   19      1.50     -0.91
    0    9   19      0.52     -2.95
    1    9   19     -0.19     -1.13
    2    9   19      0.76      0.26
    3    9   19      0.62      1.11
    4    9   19      2.45      1.45
    5    9   19      4.40     -0.89
    6    9   19      1.73     -4.20
    7    9   19      1.56      1.99
    8    9   19     -2.23      0.04
    9    9   19      0.69     -0.35
   10    9   19      8.78     -2.23
   11    9   19      0.24     -3.33
   12    9   19     -0.82     -1.61
    0   10   19      0.13      0.20
    1   10   19     -0.12      0.43
    2   10   19     -2.15     -1.93
    3   10   19     -2.15     -1.68
    4   10   19     -2.29      3.70
    5   10   19     -1.29     -1.78
    6   10   19      3.00     -2.25
    7   10   19      3.64     -4.33
    8   10   19     -4.21     -0.07
    9   10   19     -5.69      7.09
   10   10   19      0.04      1.26
   11   10   19     -1.14      1.12
   12   10   19      0.02      3.39
    0   11   19      0.06      1.98
    1   11   19     -0.33     -2.96
    2   11   19      0.74      0.17
    3   11   19     -1.68      0.00
    4   11   19      0.60      1.53
    5   11   19      1.32      2.44
    6   11   19      1.26      0.60
    7   11   19     -2.85      2.70
    8   11   19     -1.90      0.17
    9   11   19     -2.35      0.35
   10   11   19      5.11      3.32
   11   11   19     -4.06      1.21
    0   12   19     -2.10      0.62
    1   12   19     -1.69      4.21
    2   12   19      0.49      0.23
    3   12   19     -0.85      0.46
    4   12   19     -0.19     -0.30
    5   12   19     -0.54     -2.47
    6   12   19      1.28      1.04
    7   12   19      4.01     -3.13
    8   12   19     -0.09     -0.86
    9   12   19     -2.24      5.83
   10   12   19     -3.45      3.73
   11   12   19      0.35     -2.64
    0   13   19     -0.43     -1.92
    1   13   19     -0.54     -0.18
    2   13   19     -0.55      0.34
    3   13   19     -0.95      2.95
    4   13   19     -0.95     -1.62
    5   13   19      1.95      0.45
    6   13   19     -2.30      3.54
    7   13   19     -0.67     -2.04
    8   13   19      0.07     -6.06
    9   13   19     -0.52      0.02
   10   13   19      2.23      2.69
   11   13   19     -1.37      1.70
    0   14   19      1.30     -0.13
    1   14   19     -2.42     -0.83
    2   14   19      0.34      0.60
    3   14   19     -1.28      2.28
    4   14   19     -2.05      2.89
    5   14   19      0.62     -2.75
    6   14   19      0.51     -0.10
    7   14   19      2.71     -0.24
    8   14   19     -2.10     -3.32
    9   14   19     -2.81      1.92
   10   14   19     -1.69      1.88
    0   15   19     -0.30      3.84
    1   15   19      0.15     -0.13
    2   15   19      3.74     -1.78
    3   15   19     -1.50      5.04
    4   15   19     -0.07      2.17
    5   15   19      1.17      1.85
    6   15   19      0.54      0.00
    7   15   19      0.44     -1.66
    8   15   19      0.38     -2.00
    9   15   19     -2.20     -0.99
   10   15   19     -0.07     -1.91
    0   16   19      2.01     -0.34
    1   16   19     -1.26     -3.06
    2   16   19     -0.90      2.81
    3   16   19     -0.87     -2.93
    4   16   19      3.40      0.15
    5   16   19      3.30     -1.42
    6   16   19     -5.16      1.09
    7   16   19     -0.83     -1.97
    8   16   19      3.24      0.78
    9   16   19      0.23      0.04
    0   17   19      0.02     -1.58
    1   17   19      2.91     -3.35
    2   17   19      2.51      0.10
    3   17   19     -0.99     -0.88
    4   17   19      1.47      0.53
    5   17   19      2.27      1.47
    6   17   19     -0.10     -1.80
    7   17   19     -3.38     -1.17
    8   17   19      1.74     -0.17
    9   17   19      1.08      0.01
    0   18   19     -1.83     -0.34
    1   18   19     -0.20      0.82
    2   18   19     -0.58      1.14
    3   18   19     -0.65     -1.30
    4   18   19      2.87     -2.26
    5   18   19     -1.25      0.14
    6   18   19     -2.60      0.44
    7   18   19      0.82     -2.23
    8   18   19     -0.83      2.13
    0   19   19     -0.44      0.33
    1   19   19      0.32     -1.12
    2   19   19     -2.56      0.88
    3   19   19     -0.14     -1.45
    4   19   19     -1.36     -0.65
    5   19   19     -0.06     -0.49
    6   19   19     -0.17     -0.35
    7   19   19     -1.74     -1.87
    0   20   19      0.68      0.94
    1   20   19     -1.35      3.15
    2   20   19      0.46      1.41
    3   20   19      0.47     -3.21
    4   20   19      0.49      1.34
    5   20   19     -0.10     -1.03
    6   20   19     -0.09      1.76
    0   21   19     -0.98     -1.87
    1   21   19      1.09      1.05
    2   21   19     -3.88      2.00
    3   21   19      1.79      1.22
    4   21   19      1.19     -0.09
    5   21   19     -0.98      0.38
    0   22   19      0.23      0.48
    1   22   19      1.71     -0.36
    2   22   19      2.58      1.03
    3   22   19      0.81     -0.16
    0    0   20      9.52     -0.26
    1    0   20     -1.79      0.12
    2    0   20    -10.48     -0.01
    3    0   20      2.87     -0.01
    4    0   20      2.68     -0.07
    5    0   20     -0.21     -0.09
    6    0   20     -1.58      0.00
    7    0   20     -5.29     -0.03
    8    0   20     -2.61     -0.04
    9    0   20      2.18     -0.02
   10    0   20     -0.72     -0.02
   11    0   20     -0.05      0.00
   12    0   20     -2.53     -0.01
   13    0   20     -0.69      0.07
    0    1   20     -0.16      1.60
    1    1   20     -3.94     -3.41
    2    1   20      1.27      7.75
    3    1   20      1.26      0.53
    4    1   20      4.35      5.29
    5    1   20      4.78     -9.34
    6    1   20     -0.11     18.62
    7    1   20     -2.97     -0.72
    8    1   20     -0.46      0.56
    9    1   20     -2.48      1.19
   10    1   20      1.01      1.87
   11    1   20      1.13     -2.56
   12    1   20      1.75     -1.06
   13    1   20     -2.60     -0.54
    0    2   20     -7.02      0.18
    1    2   20    -11.56      0.56
    2    2   20      0.59      0.13
    3    2   20      5.43     11.17
    4    2   20     -1.84     -0.45
    5    2   20      4.42    -11.57
    6    2   20     -8.77      8.89
    7    2   20      0.15      0.23
    8    2   20     -1.50     -0.92
    9    2   20      1.27     -0.76
   10    2   20      0.50     -4.55
   11    2   20      2.25      1.64
   12    2   20     -2.05      3.60
   13    2   20     -3.86      0.85
    0    3   20     -0.07     -2.40
    1    3   20     -1.76     -4.41
    2    3   20      3.44      6.07
    3    3   20     -4.39     -1.19
    4    3   20      6.02     -3.91
    5    3   20      2.15      0.95
    6    3   20     -0.34      5.87
    7    3   20     -2.26      0.92
    8    3   20     -0.40      5.54
    9    3   20      0.37     -3.06
   10    3   20     -2.63      0.79
   11    3   20     -0.62     -0.93
   12    3   20      1.23      1.53
   13    3   20      0.97     -0.11
    0    4   20      1.22     -0.24
    1    4   20      4.08      7.09
    2    4   20     -5.12     -0.49
    3    4   20      1.80      2.58
    4    4   20     -3.19     -1.01
    5    4   20      0.50     -4.40
    6    4   20    -10.67     -3.73
    7    4   20      4.77     -2.10
    8    4   20      1.08      1.46
    9    4   20     -2.46      1.40
   10    4   20      1.85     -2.12
   11    4   20     -0.56      0.44
   12    4   20     -3.77      4.19
   13    4   20      0.03     -0.81
    0    5   20      0.04     -3.70
    1    5   20     -8.13     -1.69
    2    5   20      3.46      2.42
    3    5   20     -0.69      0.75
    4    5   20      3.14     -0.90
    5    5   20     -5.33     -4.28
    6    5   20     -2.54     -0.39
    7    5   20     -2.97      1.05
    8    5   20     -0.93     -1.00
    9    5   20      2.97     -3.46
   10    5   20      0.79     -1.75
   11    5   20      0.46     -1.65
   12    5   20     -0.19      0.23
    0    6   20     -1.54     -1.50
    1    6   20     -1.96     -0.54
    2    6   20      1.71      3.00
    3    6   20     -1.58     -0.55
    4    6   20     -2.95     -1.66
    5    6   20      0.02     -2.89
    6    6   20     -0.20     -0.83
    7    6   20     -1.79     -0.85
    8    6   20      1.00     -1.81
    9    6   20     -3.06     -0.68
   10    6   20      4.15     -2.04
   11    6   20      0.10      3.81
   12    6   20      0.29     -2.19
    0    7   20      1.17      2.62
    1    7   20      3.63      0.85
    2    7   20      1.92     -3.61
    3    7   20      1.04      4.60
    4    7   20      0.59     -1.68
    5    7   20      0.55     -0.88
    6    7   20      1.18     -0.74
    7    7   20     -0.50      3.58
    8    7   20     -3.51      3.63
    9    7   20      1.69     -5.17
   10    7   20      0.64     -6.00
   11    7   20      1.21     -3.02
   12    7   20      0.24      2.75
    0    8   20      0.09     -1.41
    1    8   20      5.93      0.18
    2    8   20      0.00      5.20
    3    8   20      1.61     -2.07
    4    8   20     -0.05      1.57
    5    8   20      0.35      4.75
    6    8   20      1.46      3.16
    7    8   20      2.08     -2.93
    8    8   20     -0.89      2.04
    9    8   20     -2.34      0.61
   10    8   20     -0.43     -6.29
   11    8   20     -3.08      5.26
   12    8   20      0.24     -0.18
    0    9   20      0.20     -5.56
    1    9   20      1.53     -1.85
    2    9   20     -2.70      0.72
    3    9   20      1.44      1.12
    4    9   20      2.02     -0.78
    5    9   20     -0.66      2.53
    6    9   20      0.11      2.31
    7    9   20      1.50      0.95
    8    9   20      2.32      6.85
    9    9   20      5.36      1.12
   10    9   20     -2.31     -0.96
   11    9   20      0.24     -4.63
   12    9   20      3.35      0.88
    0   10   20     -0.94     -0.16
    1   10   20      5.11     -3.97
    2   10   20     -1.97     -1.98
    3   10   20      4.20     -1.37
    4   10   20     -0.17     -3.18
    5   10   20     -0.90      2.03
    6   10   20      1.70     -4.01
    7   10   20     -0.64     -1.37
    8   10   20     -0.22      1.68
    9   10   20      0.03     -4.70
   10   10   20      0.56     -6.01
   11   10   20     -1.70      4.68
    0   11   20     -1.32      3.85
    1   11   20     -4.43     -2.75
    2   11   20     -3.13      0.85
    3   11   20     -2.71     -1.67
    4   11   20     -1.96     -0.78
    5   11   20     -0.06     -0.04
    6   11   20     -1.30      2.00
    7   11   20     -2.39     -0.46
    8   11   20      2.96     -1.30
    9   11   20      0.48     -2.46
   10   11   20     -1.67      0.55
   11   11   20      1.88     -2.56
    0   12   20     -0.80      0.26
    1   12   20     -3.14     -1.03
    2   12   20      2.12     -0.21
    3   12   20      2.13      1.89
    4   12   20     -0.22      0.60
    5   12   20     -2.62      2.19
    6   12   20     -0.03     -3.54
    7   12   20      0.03      2.67
    8   12   20      4.56      0.73
    9   12   20     -3.18     -0.93
   10   12   20      1.02     -2.98
   11   12   20     -1.54     -3.39
    0   13   20     -1.09      3.43
    1   13   20      2.75     -1.85
    2   13   20     -5.24      4.15
    3   13   20      0.98     -0.94
    4   13   20      1.93      2.93
    5   13   20      1.73      0.46
    6   13   20     -3.80     -2.58
    7   13   20     -4.43     -2.47
    8   13   20      1.59      2.97
    9   13   20      3.24     -0.78
   10   13   20      2.38     -3.43
    0   14   20      7.00      0.33
    1   14   20     -1.63     -2.82
    2   14   20     -0.56     -2.88
    3   14   20      1.33     -0.25
    4   14   20      2.10      3.49
    5   14   20     -0.11      2.97
    6   14   20     -1.91     -2.17
    7   14   20      0.70     -1.66
    8   14   20      4.36      2.00
    9   14   20     -3.14      1.95
   10   14   20     -2.29      1.44
    0   15   20     -0.56     -1.80
    1   15   20      3.92      0.43
    2   15   20      0.24      0.87
    3   15   20     -1.13      0.14
    4   15   20      0.06      0.46
    5   15   20      2.48      0.82
    6   15   20      0.41      0.51
    7   15   20     -3.99      1.71
    8   15   20      3.82     -2.13
    9   15   20      1.73     -0.10
    0   16   20      0.13     -0.11
    1   16   20      0.64     -0.64
    2   16   20      0.28     -1.53
    3   16   20     -0.82     -0.93
    4   16   20      3.57      0.91
    5   16   20      1.43      3.49
    6   16   20      3.19     -0.17
    7   16   20     -4.10      0.37
    8   16   20      1.67      0.63
    9   16   20     -0.16     -1.59
    0   17   20     -2.42      0.83
    1   17   20     -2.53     -0.16
    2   17   20     -0.60      0.06
    3   17   20      0.35     -1.37
    4   17   20      0.24     -0.82
    5   17   20      0.42     -0.05
    6   17   20     -0.17      0.77
    7   17   20     -1.35     -0.54
    8   17   20      3.28      2.40
    0   18   20      0.17     -0.74
    1   18   20      3.29      0.46
    2   18   20     -1.55      1.11
    3   18   20      0.73      0.42
    4   18   20      2.05      0.77
    5   18   20      2.86     -0.52
    6   18   20      0.79     -3.84
    7   18   20     -0.55     -1.68
    8   18   20      0.91      2.22
    0   19   20     -1.27      1.07
    1   19   20     -2.84      1.42
    2   19   20     -0.97      1.43
    3   19   20      2.18     -0.80
    4   19   20      0.37     -0.75
    5   19   20     -0.42     -1.69
    6   19   20     -2.40      3.36
    7   19   20      1.15      1.82
    0   20   20     -5.02     -0.15
    1   20   20      2.94     -3.32
    2   20   20      0.69      0.97
    3   20   20      0.96      1.88
    4   20   20      1.50     -1.28
    5   20   20     -1.02     -2.90
    6   20   20     -0.96     -0.62
    0   21   20     -0.13      1.76
    1   21   20     -1.27     -1.98
    2   21   20     -1.91     -0.62
    3   21   20      2.22     -0.85
    4   21   20     -1.48      2.15
    0   22   20     -3.38      0.25
    1   22   20      4.23     -0.99
    2   22   20     -1.17     -0.24
    1    0   21      0.36     -0.94
    2    0   21      0.07     -0.52
    3    0   21     -0.03     -0.09
    4    0   21     -0.20     -5.46
    5    0   21      0.10     -3.59
    6    0   21      0.12      4.01
    7    0   21     -0.10     -4.15
    8    0   21     -0.01     -0.36
    9    0   21      0.11     -2.40
   10    0   21      0.16     -2.38
   11    0   21      0.04     -1.55
   12    0   21      0.08     -0.02
   13    0   21      0.03      0.13
    0    1   21     -0.30      4.28
    1    1   21     -5.80     14.19
    2    1   21     -4.65     -4.78
    3    1   21      5.02      0.36
    4    1   21     -0.24     -1.42
    5    1   21     -4.12      2.55
    6    1   21      6.82     -1.08
    7    1   21     -0.56      4.32
    8    1   21     -2.76     -4.40
    9    1   21     -0.74      1.55
   10    1   21      0.78      0.79
   11    1   21      0.73      1.54
   12    1   21      0.40     -0.11
   13    1   21     -1.68      0.98
    0    2   21      4.86     -0.33
    1    2   21      0.03     -8.57
    2    2   21      0.64      1.70
    3    2   21     -3.13      0.80
    4    2   21      0.98     -1.91
    5    2   21     -1.04     -0.93
    6    2   21     -0.15      2.65
    7    2   21      5.77     -7.27
    8    2   21     -1.16      2.27
    9    2   21      0.17     -0.29
   10    2   21     -4.09      2.04
   11    2   21     -0.70     -2.18
   12    2   21      1.92      0.81
   13    2   21     -3.97     -1.69
    0    3   21     -0.14     -3.24
    1    3   21     -0.06      0.77
    2    3   21      2.73      3.74
    3    3   21     -4.28      1.94
    4    3   21     -2.48     -4.65
    5    3   21      2.99      0.42
    6    3   21     11.43     -1.31
    7    3   21     -1.89      0.76
    8    3   21     -2.57     -1.78
    9    3   21     -0.98      1.57
   10    3   21      1.82      3.50
   11    3   21     -0.40      3.62
   12    3   21     -0.48      1.33
   13    3   21      0.69     -2.68
    0    4   21     -8.24     -0.08
    1    4   21     -2.65     -1.58
    2    4   21      3.28      2.97
    3    4   21      1.45     -9.20
    4    4   21      1.64      1.50
    5    4   21      0.60     -0.07
    6    4   21      4.44      0.25
    7    4   21      3.85     -9.85
    8    4   21     -0.53     -0.51
    9    4   21     -1.03      2.59
   10    4   21     -2.25      1.10
   11    4   21     -0.35     -4.93
   12    4   21      0.67     -0.27
    0    5   21      0.30      2.36
    1    5   21      1.84      4.66
    2    5   21      0.14      5.01
    3    5   21      1.78      1.81
    4    5   21     -4.58     -2.54
    5    5   21     -1.65     -5.78
    6    5   21      9.02     -3.09
    7    5   21      3.37      0.43
    8    5   21     -3.10     -1.58
    9    5   21      0.11     -0.55
   10    5   21      1.64      1.85
   11    5   21     -0.45     -0.62
   12    5   21     -3.01     -1.53
    0    6   21      4.68     -0.37
    1    6   21     -0.02      5.19
    2    6   21      3.28      0.32
    3    6   21     -1.67     -1.54
    4    6   21      1.13      7.66
    5    6   21      4.38      0.95
    6    6   21      1.95     -0.25
    7    6   21     -0.86     -4.05
    8    6   21      4.38     -0.41
    9    6   21     -0.96     -1.05
   10    6   21     -6.19     -0.23
   11    6   21      2.62      3.56
   12    6   21      0.27     -1.01
    0    7   21     -0.15     -1.27
    1    7   21      6.45      3.13
    2    7   21     -0.71      3.44
    3    7   21      0.81      4.40
    4    7   21     -1.22     -0.58
    5    7   21      2.58      2.05
    6    7   21     -4.02      4.94
    7    7   21      0.98     -3.11
    8    7   21      1.05     -4.98
    9    7   21      1.68     -0.07
   10    7   21     -0.28      2.27
   11    7   21     -0.47      1.23
   12    7   21     -0.57     -1.58
    0    8   21     -0.99     -0.30
    1    8   21      0.39      0.16
    2    8   21      2.32      1.88
    3    8   21     -0.87     -1.81
    4    8   21      1.49     -0.40
    5    8   21      1.38     -0.95
    6    8   21     -3.93     -1.62
    7    8   21     -1.95     -0.19
    8    8   21      1.79      1.42
    9    8   21      2.75     -8.02
   10    8   21     -6.03     -6.39
   11    8   21     -2.24      5.85
   12    8   21     -2.94     -1.36
    0    9   21      0.20     -4.08
    1    9   21     -0.94     -1.63
    2    9   21     -0.26      0.07
    3    9   21     -1.54      2.98
    4    9   21      4.10      1.34
    5    9   21      1.80      1.47
    6    9   21     -4.86     -1.06
    7    9   21     -2.77     -1.50
    8    9   21      1.17     -0.52
    9    9   21      2.58      2.13
   10    9   21      2.31      0.11
   11    9   21      2.57      0.09
    0   10   21     -0.09     -0.33
    1   10   21     -2.34     -2.46
    2   10   21     -1.88     -0.73
    3   10   21      0.52      1.06
    4   10   21      2.08      2.38
    5   10   21     -1.06     -3.13
    6   10   21     -0.65     -5.03
    7   10   21      4.41      0.30
    8   10   21      0.33      3.26
    9   10   21     -2.16      2.00
   10   10   21      0.50     -7.08
   11   10   21     -1.21      0.29
    0   11   21      0.52      2.63
    1   11   21      2.56     -1.61
    2   11   21     -1.82     -2.26
    3   11   21     -0.77     -2.94
    4   11   21      2.92      2.49
    5   11   21      0.28     -1.06
    6   11   21     -1.21     -2.20
    7   11   21     -5.93     -1.71
    8   11   21     -1.47      1.94
    9   11   21      8.22      2.55
   10   11   21      4.05      1.62
   11   11   21     -3.48     -0.68
    0   12   21     -1.93      0.21
    1   12   21     -3.01      5.05
    2   12   21     -0.83      0.72
    3   12   21      0.09      1.71
    4   12   21     -2.09     -1.61
    5   12   21      2.04     -0.86
    6   12   21     -1.10     -0.20
    7   12   21      1.29      0.80
    8   12   21     -2.61      2.76
    9   12   21      2.28      4.72
   10   12   21      2.44     -2.95
   11   12   21      1.95      0.12
    0   13   21      0.15      0.40
    1   13   21      0.48      2.12
    2   13   21     -0.21      0.81
    3   13   21      0.42      1.99
    4   13   21     -0.86      0.91
    5   13   21     -0.33     -2.71
    6   13   21      0.65      2.31
    7   13   21     -2.39     -3.96
    8   13   21     -1.01     -0.86
    9   13   21      6.97      3.19
   10   13   21      3.61      2.78
    0   14   21      3.06      0.35
    1   14   21      1.03      1.86
    2   14   21      0.58     -2.50
    3   14   21      1.15     -0.72
    4   14   21      0.01      2.48
    5   14   21      1.04     -1.48
    6   14   21      1.03      0.19
    7   14   21      1.42     -2.11
    8   14   21     -5.50     -0.03
    9   14   21     -1.49      3.09
   10   14   21      1.22     -1.19
    0   15   21     -0.51      2.55
    1   15   21     -1.76      4.19
    2   15   21      5.20      0.82
    3   15   21     -1.84      4.76
    4   15   21     -1.93     -1.32
    5   15   21     -1.30     -4.01
    6   15   21      2.14      3.74
    7   15   21     -0.95     -1.33
    8   15   21     -1.17     -2.80
    9   15   21      1.28      1.68
    0   16   21     -0.46      0.13
    1   16   21     -2.64     -1.71
    2   16   21     -0.76     -2.99
    3   16   21      3.60      0.48
    4   16   21      4.29     -1.66
    5   16   21      3.51     -0.84
    6   16   21     -5.49     -1.48
    7   16   21      0.00     -0.29
    8   16   21     -0.05      0.81
    9   16   21     -1.71      0.18
    0   17   21     -0.68     -0.71
    1   17   21     -0.96     -0.68
    2   17   21      5.07      1.56
    3   17   21     -2.13     -0.69
    4   17   21     -1.57     -2.79
    5   17   21      1.06     -0.39
    6   17   21      1.79      3.30
    7   17   21     -4.44     -1.37
    8   17   21      1.53     -2.67
    0   18   21     -5.51      0.07
    1   18   21     -2.60     -1.07
    2   18   21      1.17      0.83
    3   18   21     -0.08     -0.48
    4   18   21      0.34     -1.39
    5   18   21     -0.70     -0.44
    6   18   21     -0.51      1.27
    7   18   21      1.20      1.78
    0   19   21      0.18     -0.79
    1   19   21      1.45     -0.52
    2   19   21      0.26     -0.16
    3   19   21     -0.04     -1.66
    4   19   21     -1.81     -0.99
    5   19   21     -1.01      0.55
    6   19   21      0.89      1.44
    0   20   21      0.47      1.54
    1   20   21     -1.65      0.64
    2   20   21      1.90      4.59
    3   20   21      0.66     -2.32
    4   20   21     -0.15     -0.81
    5   20   21     -0.04      1.01
    0   21   21      0.68     -2.49
    1   21   21      0.56     -0.93
    2   21   21      0.72      1.02
    3   21   21     -1.93     -0.17
    4   21   21      1.70     -0.36
    0   22   21     -0.31      0.95
    1   22   21      0.58     -1.95
    0    0   22      8.11      0.12
    1    0   22      4.60      0.10
    2    0   22     -2.49     -0.04
    3    0   22     -0.49     -0.02
    4    0   22      6.85      0.05
    5    0   22     -8.29     -0.17
    6    0   22     19.27      0.03
    7    0   22     -0.42      0.01
    8    0   22      0.19     -0.06
    9    0   22      4.23      0.08
   10    0   22      3.23      0.01
   11    0   22     -1.07      0.06
   12    0   22     -0.14      0.01
    0    1   22     -0.15     -3.99
    1    1   22     -0.52      5.14
    2    1   22     -1.66      3.80
    3    1   22      6.53     -0.79
    4    1   22     -1.51      1.26
    5    1   22      2.37     -2.23
    6    1   22      2.39      8.29
    7    1   22     -0.47      3.96
    8    1   22     -1.11     -0.64
    9    1   22     -1.40     -1.94
   10    1   22     -2.07      0.96
   11    1   22      2.01     -0.94
   12    1   22      2.15      1.01
    0    2   22     -3.08      0.21
    1    2   22     -9.10     -1.08
    2    2   22      2.95      0.74
    3    2   22      1.52      5.38
    4    2   22     -2.75     -4.66
    5    2   22      1.52     -7.59
    6    2   22      9.58      4.89
    7    2   22     -1.76      0.24
    8    2   22      1.11      1.66
    9    2   22     -0.91     -0.50
   10    2   22      1.70     -1.53
   11    2   22     -1.82     -0.62
   12    2   22      2.06      0.51
    0    3   22      0.21     -1.24
    1    3   22      3.95     -0.58
    2    3   22      1.85      3.60
    3    3   22      3.96     -2.82
    4    3   22      0.12     -0.40
    5    3   22     -1.71     -2.48
    6    3   22      5.20      7.90
    7    3   22      0.44     -1.16
    8    3   22     -0.22      3.49
    9    3   22     -0.86     -0.14
   10    3   22     -4.35     -1.46
   11    3   22      0.51     -1.61
   12    3   22      2.24      3.93
    0    4   22     -2.00      0.01
    1    4   22     -2.31      3.96
    2    4   22      3.30      0.05
    3    4   22     -0.61      1.59
    4    4   22     -0.23     -4.96
    5    4   22      0.36      6.25
    6    4   22     -0.57     -0.10
    7    4   22      4.60     -0.02
    8    4   22      4.28     -1.43
    9    4   22     -3.47      0.04
   10    4   22      2.56      0.67
   11    4   22     -2.34     -0.03
   12    4   22      0.22      0.58
    0    5   22     -0.57     -2.61
    1    5   22      0.37     -4.14
    2    5   22     -3.49      2.95
    3    5   22      2.15      2.94
    4    5   22      0.62      2.41
    5    5   22     -5.30     -1.89
    6    5   22     -2.22      4.77
    7    5   22      0.10     -0.49
    8    5   22     -0.16     -3.51
    9    5   22     -0.25      2.95
   10    5   22     -0.53     -1.85
   11    5   22      5.48     -0.63
   12    5   22      0.03      1.65
    0    6   22      2.81     -0.70
    1    6   22     -3.40     -0.83
    2    6   22     -3.40     -0.10
    3    6   22     -0.37      1.20
    4    6   22     -1.66     -2.06
    5    6   22     -3.84      1.10
    6    6   22     -2.20      1.51
    7    6   22      0.87      2.88
    8    6   22      1.68      0.63
    9    6   22     -6.23     -4.04
   10    6   22     -3.35     -0.20
   11    6   22     -0.99     -0.12
   12    6   22      0.65     -1.34
    0    7   22     -0.59      3.53
    1    7   22      2.88     -1.13
    2    7   22      2.20      0.69
    3    7   22     -0.82      3.40
    4    7   22     -1.01      1.48
    5    7   22      0.29      0.13
    6    7   22      1.69      1.54
    7    7   22     -2.50      0.98
    8    7   22     -0.36      1.76
    9    7   22     -0.19     -0.38
   10    7   22     -4.00     -4.01
   11    7   22      5.04     -0.39
   12    7   22     -1.07      0.93
    0    8   22     -4.13     -0.90
    1    8   22      0.31     -4.97
    2    8   22     -0.07      4.13
    3    8   22      5.85     -2.52
    4    8   22     -1.05      0.23
    5    8   22      1.45     -0.29
    6    8   22      1.90      0.97
    7    8   22      2.32     -3.06
    8    8   22      6.52      3.65
    9    8   22     -2.90     -3.95
   10    8   22     -2.47     -1.71
   11    8   22     -3.33     -2.12
   12    8   22      1.90     -1.01
    0    9   22     -0.35     -6.53
    1    9   22     -1.37     -5.99
    2    9   22     -0.63     -0.91
    3    9   22     -0.50     -2.54
    4    9   22      0.78     -0.34
    5    9   22      2.80      0.73
    6    9   22      0.02      0.08
    7    9   22     -1.25      0.20
    8    9   22      0.23      2.18
    9    9   22      1.95      4.01
   10    9   22     -5.99      0.50
   11    9   22      3.04     -0.03
    0   10   22     -2.11      0.57
    1   10   22     -0.16      0.94
    2   10   22      1.97      0.34
    3   10   22      1.43      0.43
    4   10   22     -1.88     -1.89
    5   10   22      1.97      1.91
    6   10   22      3.05     -0.39
    7   10   22      1.32     -2.46
    8   10   22      0.88     -0.83
    9   10   22      0.17     -0.44
   10   10   22      1.67     -1.41
   11   10   22     -2.07      0.63
    0   11   22     -0.59      4.62
    1   11   22     -4.74      0.05
    2   11   22      2.12     -0.38
    3   11   22     -0.66     -3.40
    4   11   22     -2.09      0.43
    5   11   22      3.46      0.33
    6   11   22      0.81     -0.17
    7   11   22      2.73      0.99
    8   11   22     -0.88     -1.16
    9   11   22     -2.90      0.75
   10   11   22     -3.48     -0.27
   11   11   22      1.84      1.04
    0   12   22      0.94      1.75
    1   12   22     -3.29      1.32
    2   12   22      0.90      1.70
    3   12   22     -1.70     -2.68
    4   12   22      0.89      1.33
    5   12   22     -0.86      0.24
    6   12   22     -2.05      2.52
    7   12   22     -3.13      0.34
    8   12   22     -0.15     -1.79
    9   12   22     -2.71      0.76
   10   12   22     -0.29     -0.83
    0   13   22     -0.10     -0.37
    1   13   22     -0.88      1.13
    2   13   22     -2.76      1.42
    3   13   22      1.22     -0.99
    4   13   22      4.24     -1.47
    5   13   22      4.49      0.26
    6   13   22     -3.05     -0.44
    7   13   22     -1.08     -1.42
    8   13   22      0.06      0.99
    9   13   22      1.30      5.36
   10   13   22     -0.47     -0.09
    0   14   22      2.98      1.11
    1   14   22     -0.11     -4.91
    2   14   22      2.17      2.19
    3   14   22      1.42      1.19
    4   14   22      4.12      0.37
    5   14   22     -0.01     -2.11
    6   14   22     -2.97      0.52
    7   14   22     -2.14      2.17
    8   14   22      1.34     -1.62
    9   14   22     -0.56     -1.50
    0   15   22     -0.01     -5.17
    1   15   22     -0.82      1.49
    2   15   22     -2.28     -1.33
    3   15   22      0.02      0.02
    4   15   22      2.33     -3.51
    5   15   22      6.82     -2.23
    6   15   22     -2.32     -0.22
    7   15   22     -3.59      5.68
    8   15   22      4.04     -1.95
    9   15   22      1.33      0.51
    0   16   22     -3.33      1.47
    1   16   22     -0.36     -2.36
    2   16   22      1.26      0.65
    3   16   22      0.61      2.63
    4   16   22     -0.55      0.80
    5   16   22      3.44     -2.78
    6   16   22     -0.13     -0.85
    7   16   22     -2.73      3.77
    8   16   22      1.33     -2.94
    0   17   22     -1.27     -4.02
    1   17   22     -1.99     -1.63
    2   17   22      0.58     -1.34
    3   17   22     -0.56      0.00
    4   17   22      1.91     -1.93
    5   17   22      3.00     -1.85
    6   17   22     -2.74     -2.95
    7   17   22     -1.94      2.52
    8   17   22      0.92      0.97
    0   18   22      0.91      1.36
    1   18   22      0.29      2.53
    2   18   22      0.49      2.22
    3   18   22     -1.39     -1.63
    4   18   22     -0.59     -0.72
    5   18   22      1.27      0.67
    6   18   22      1.40      0.29
    7   18   22     -0.12     -2.25
    0   19   22     -0.56      1.53
    1   19   22     -1.30     -1.30
    2   19   22      1.87      3.86
    3   19   22      1.78     -1.74
    4   19   22      0.01     -2.13
    5   19   22     -2.64     -2.04
    6   19   22     -2.51      0.90
    0   20   22     -0.24      0.33
    1   20   22     -1.93      0.18
    2   20   22      0.39      2.62
    3   20   22      0.77     -1.68
    4   20   22      1.55      0.02
    5   20   22     -1.08     -0.66
    0   21   22      0.06      3.21
    1   21   22     -2.62     -4.26
    2   21   22      0.14     -0.63
    3   21   22      1.39      0.13
    1    0   23      0.36      7.29
    2    0   23      0.03      3.71
    3    0   23     -0.14     -6.65
    4    0   23     -0.05     -2.88
    5    0   23     -0.09      5.80
    6    0   23      0.08      2.56
    7    0   23     -0.01      1.30
    8    0   23     -0.12      2.79
    9    0   23      0.18      0.53
   10    0   23      0.00     -1.35
   11    0   23      0.00     -0.66
   12    0   23     -0.01     -1.76
    0    1   23     -0.11     -2.32
    1    1   23     -0.85      4.89
    2    1   23     -2.63     -0.03
    3    1   23      0.22      1.30
    4    1   23     -6.23      1.02
    5    1   23     -4.31     -1.50
    6    1   23      0.05      1.56
    7    1   23      0.96      0.41
    8    1   23     -0.75     -0.35
    9    1   23     -1.86      0.65
   10    1   23      0.66      3.58
   11    1   23     -1.84     -0.66
   12    1   23      0.10      0.03
    0    2   23      0.86     -0.13
    1    2   23      4.38     -2.31
    2    2   23      2.91     -1.75
    3    2   23      0.77     -2.40
    4    2   23     -0.68      2.93
    5    2   23      0.17      0.79
    6    2   23     -3.26     -5.62
    7    2   23      4.54      0.55
    8    2   23     -1.61      2.41
    9    2   23     -1.66     -0.21
   10    2   23      1.40     -2.41
   11    2   23      2.15      0.19
   12    2   23      1.95     -0.26
    0    3   23     -0.09      0.60
    1    3   23     -3.87     -0.98
    2    3   23      4.08      1.13
    3    3   23    -10.70      1.49
    4    3   23      1.09     -2.10
    5    3   23      2.41      1.02
    6    3   23      4.42      1.08
    7    3   23    -10.03     -4.27
    8    3   23      3.63      0.74
    9    3   23      0.45      2.63
   10    3   23      3.00      4.16
   11    3   23     -4.42      0.31
   12    3   23      0.11      0.69
    0    4   23     -6.52     -0.21
    1    4   23     -2.54     -0.36
    2    4   23      3.62     -3.13
    3    4   23      0.74     -0.75
    4    4   23     -1.43      6.08
    5    4   23     -4.95     -2.56
    6    4   23     -4.36     -8.94
    7    4   23      3.94      2.11
    8    4   23     -2.02      3.17
    9    4   23     -1.03      0.93
   10    4   23      2.57     -1.37
   11    4   23      1.46     -1.13
   12    4   23     -1.50      1.59
    0    5   23     -0.20      0.98
    1    5   23      1.98      3.46
    2    5   23     -2.18      3.46
    3    5   23     -4.15     -0.97
    4    5   23      3.06      0.13
    5    5   23     -1.67     -6.04
    6    5   23      0.50     -4.30
    7    5   23     -5.60     -2.83
    8    5   23      1.41     -1.95
    9    5   23      2.12      1.66
   10    5   23     -1.73      5.57
   11    5   23      0.12     -1.26
   12    5   23     -1.83     -1.11
    0    6   23      1.56     -0.01
    1    6   23      2.20     -2.01
    2    6   23      5.13     -4.02
    3    6   23      2.99     -1.54
    4    6   23     -2.86      6.22
    5    6   23      2.56     -2.54
    6    6   23     -0.48     -3.21
    7    6   23     -3.71     -1.62
    8    6   23      0.57      0.30
    9    6   23     -1.41     -4.90
   10    6   23     -1.80      0.75
   11    6   23      1.41      2.13
   12    6   23     -0.62      1.64
    0    7   23     -0.34     -2.48
    1    7   23      4.91      2.07
    2    7   23      1.42     -0.95
    3    7   23     -3.12      2.17
    4    7   23      1.20     -0.40
    5    7   23      0.45     -1.73
    6    7   23     -1.82      3.49
    7    7   23     -1.88      0.21
    8    7   23      2.11     -4.49
    9    7   23     -4.47     -1.48
   10    7   23     -4.94      6.32
   11    7   23      5.67      1.23
    0    8   23     -1.52     -0.06
    1    8   23     -0.13     -3.79
    2    8   23      4.81      1.88
    3    8   23      4.48     -1.56
    4    8   23     -0.41     -3.37
    5    8   23      4.82     -0.31
    6    8   23      4.10      4.08
    7    8   23     -6.04     -0.57
    8    8   23     -2.26     -2.97
    9    8   23      2.74     -4.56
   10    8   23      0.09     -2.27
   11    8   23     -0.46      3.00
    0    9   23     -0.24     -0.67
    1    9   23     -2.85     -1.86
    2    9   23      4.34     -0.26
    3    9   23      1.32      0.98
    4    9   23      2.79     -0.56
    5    9   23     -0.79      2.42
    6    9   23     -3.48      0.87
    7    9   23      1.02     -2.76
    8    9   23     -1.10     -1.02
    9    9   23     -4.95     -0.12
   10    9   23     -5.73      2.73
   11    9   23      3.54      2.09
    0   10   23      0.32     -0.42
    1   10   23     -1.61     -1.06
    2   10   23     -7.21      0.23
    3   10   23     -1.54      0.33
    4   10   23      3.18     -0.67
    5   10   23     -1.03     -1.25
    6   10   23     -1.60      1.69
    7   10   23      0.43      1.83
    8   10   23     -0.46     -0.14
    9   10   23     -0.51     -1.50
   10   10   23     -0.62     -2.05
   11   10   23     -1.67      0.54
    0   11   23      0.08      2.63
    1   11   23      2.13      1.87
    2   11   23     -0.72      1.51
    3   11   23      1.19     -1.32
    4   11   23      2.76      1.31
    5   11   23     -0.22     -0.35
    6   11   23     -3.24      1.10
    7   11   23     -0.78     -2.49
    8   11   23      0.90      2.38
    9   11   23      3.02     -1.09
   10   11   23     -1.19     -0.76
    0   12   23      1.47     -0.69
    1   12   23     -2.79     -0.48
    2   12   23     -2.02      2.97
    3   12   23     -0.67     -0.87
    4   12   23      4.71     -2.10
    5   12   23     -2.81     -2.74
    6   12   23      1.25      1.30
    7   12   23     -3.95      3.03
    8   12   23      0.12     -0.20
    9   12   23      4.64     -6.38
   10   12   23      1.80     -2.13
    0   13   23      0.19     -2.38
    1   13   23      4.44      0.67
    2   13   23     -2.29      0.94
    3   13   23     -0.71      3.41
    4   13   23     -1.76      1.33
    5   13   23      0.34     -2.85
    6   13   23     -0.48      1.87
    7   13   23     -1.07     -3.01
    8   13   23      1.90      3.62
    9   13   23      4.57     -1.92
   10   13   23     -0.64     -1.02
    0   14   23      3.72      0.25
    1   14   23      5.31      1.55
    2   14   23      3.91     -3.25
    3   14   23      3.16      1.87
    4   14   23     -1.59      4.35
    5   14   23     -4.70      0.75
    6   14   23      5.62     -1.24
    7   14   23     -2.43      0.61
    8   14   23     -3.14     -2.00
    9   14   23      0.67     -2.88
    0   15   23      0.43      1.52
    1   15   23      0.25      4.08
    2   15   23      0.44     -0.14
    3   15   23     -1.20     -0.04
    4   15   23     -1.45     -2.67
    5   15   23     -1.36     -3.72
    6   15   23      0.04      3.53
    7   15   23     -1.88     -1.65
    8   15   23      0.28      1.34
    9   15   23      0.23      2.10
    0   16   23      0.93      1.04
    1   16   23      1.69      0.50
    2   16   23      2.60     -5.75
    3   16   23      2.51      1.33
    4   16   23     -0.41      3.34
    5   16   23      0.31     -0.43
    6   16   23      1.38     -3.58
    7   16   23     -2.05      1.03
    8   16   23     -2.11      1.41
    0   17   23     -0.18      4.35
    1   17   23      0.82      3.39
    2   17   23      2.91     -0.68
    3   17   23      0.46     -3.68
    4   17   23     -4.23     -3.09
    5   17   23      0.65     -0.85
    6   17   23      1.57      4.20
    7   17   23     -2.45     -3.90
    0   18   23     -4.48      0.42
    1   18   23     -2.66      0.93
    2   18   23      0.87     -3.10
    3   18   23     -1.40     -1.55
    4   18   23     -0.45      0.58
    5   18   23     -1.35      0.28
    6   18   23      1.60     -1.91
    0   19   23      0.61      3.84
    1   19   23     -0.85      1.67
    2   19   23      2.36     -1.20
    3   19   23     -2.11     -0.75
    4   19   23     -0.47     -0.59
    5   19   23      0.21     -0.21
    0   20   23     -0.28     -0.02
    1   20   23     -3.02      0.11
    2   20   23      1.13      0.25
    3   20   23     -0.76      0.13
    4   20   23      0.70      0.50
    0   21   23      1.65     -2.50
    1   21   23     -0.30     -0.19
    2   21   23      3.75     -1.60
    0    0   24     -2.61      0.22
    1    0   24      9.54     -0.02
    2    0   24      0.81     -0.19
    3    0   24     -1.23      0.03
    4    0   24      2.99     -0.11
    5    0   24     -6.56     -0.01
    6    0   24      8.25     -0.03
    7    0   24      3.06     -0.10
    8    0   24     -2.00      0.02
    9    0   24     -2.27     -0.03
   10    0   24      3.16      0.02
   11    0   24      0.04      0.01
   12    0   24     -1.19      0.01
    0    1   24      0.23     -1.62
    1    1   24     -2.20     -0.37
    2    1   24      0.66      1.63
    3    1   24      2.20      0.28
    4    1   24      0.59      0.46
    5    1   24     -0.62     -0.61
    6    1   24      2.62     -6.97
    7    1   24     -3.47      2.46
    8    1   24      3.20     -0.13
    9    1   24     -2.92     -3.01
   10    1   24     -1.85     -2.92
   11    1   24     -0.49     -1.09
   12    1   24      1.43     -1.65
    0    2   24      0.23      0.01
    1    2   24      0.34     -3.47
    2    2   24      1.44     -1.65
    3    2   24     -1.73      1.16
    4    2   24     -1.66      2.63
    5    2   24      0.17    -10.50
    6    2   24      8.80     -1.83
    7    2   24      1.35      2.45
    8    2   24      1.89      0.72
    9    2   24      0.05     -0.11
   10    2   24      0.23      1.71
   11    2   24     -0.99     -0.96
   12    2   24      2.16     -0.69
    0    3   24      0.07      3.83
    1    3   24      0.48      2.57
    2    3   24      4.04     -3.23
    3    3   24      4.47     -0.73
    4    3   24     -3.45     -1.28
    5    3   24      1.40     -1.94
    6    3   24      1.48     -3.35
    7    3   24     -1.30     -0.60
    8    3   24      1.35      0.41
    9    3   24     -0.36      2.21
   10    3   24     -3.72     -4.44
   11    3   24     -0.73      1.83
   12    3   24      0.90     -0.66
    0    4   24     -4.21     -0.08
    1    4   24     -2.55     -0.33
    2    4   24      3.35      1.23
    3    4   24      0.92     -2.29
    4    4   24     -0.45     -5.26
    5    4   24     -2.59      3.82
    6    4   24      2.86     -2.91
    7    4   24      0.34     -0.20
    8    4   24     -0.31     -0.70
    9    4   24      1.79      0.14
   10    4   24     -0.49      2.15
   11    4   24     -2.45     -3.45
   12    4   24      0.79      1.22
    0    5   24     -0.41      1.06
    1    5   24     -1.77      0.35
    2    5   24     -1.71      0.89
    3    5   24      1.83     -0.56
    4    5   24     -3.63      1.16
    5    5   24      1.55      0.37
    6    5   24      0.08      1.93
    7    5   24      1.31     -3.43
    8    5   24      0.32     -4.28
    9    5   24     -2.18      4.60
   10    5   24     -0.75      0.53
   11    5   24      2.13      0.80
   12    5   24      0.57     -0.10
    0    6   24      5.14      0.13
    1    6   24     -1.13     -2.54
    2    6   24      2.47      3.75
    3    6   24      2.65     -1.45
    4    6   24      0.16      0.62
    5    6   24     -0.84      3.10
    6    6   24      5.54      0.62
    7    6   24     -0.74      1.29
    8    6   24     -0.05     -0.94
    9    6   24     -0.99     -0.49
   10    6   24     -2.94      1.49
   11    6   24     -2.17     -4.44
    0    7   24     -0.36      2.81
    1    7   24     -0.89      1.31
    2    7   24      4.98      1.96
    3    7   24     -0.74     -0.78
    4    7   24     -3.07      0.99
    5    7   24     -1.74      2.19
    6    7   24      5.52      1.33
    7    7   24     -1.71     -0.33
    8    7   24      1.34     -2.93
    9    7   24     -3.66      4.11
   10    7   24     -2.55      0.39
   11    7   24     -1.74      0.20
    0    8   24      0.04     -0.07
    1    8   24     -3.93     -1.99
    2    8   24     -2.43      2.35
    3    8   24      4.02     -0.56
    4    8   24      0.49      2.48
    5    8   24      0.54      1.65
    6    8   24      3.75     -0.38
    7    8   24      3.71     -0.59
    8    8   24      2.58      3.29
    9    8   24      1.32     -2.01
   10    8   24     -1.05      3.19
   11    8   24     -2.19     -2.22
    0    9   24     -0.22     -1.58
    1    9   24     -2.03     -4.85
    2    9   24      0.40     -2.05
    3    9   24     -1.69     -2.52
    4    9   24      1.00      0.84
    5    9   24      1.34     -1.85
    6    9   24      0.71      1.08
    7    9   24     -3.68     -3.31
    8    9   24      1.17     -5.26
    9    9   24      1.21      3.62
   10    9   24     -3.39      0.00
   11    9   24     -2.06     -0.51
    0   10   24     -1.91      0.32
    1   10   24     -2.70      0.96
    2   10   24     -2.24     -3.90
    3   10   24     -0.05      2.48
    4   10   24      0.53     -0.73
    5   10   24     -2.98     -4.03
    6   10   24      2.09     -2.41
    7   10   24      5.35     -3.30
    8   10   24     -0.50      1.40
    9   10   24      2.79     -0.61
   10   10   24      1.11      1.50
    0   11   24      0.83      3.29
    1   11   24     -0.90      3.22
    2   11   24     -0.57      0.78
    3   11   24     -4.87      0.09
    4   11   24     -0.43      0.53
    5   11   24      4.47      0.43
    6   11   24      1.70      1.91
    7   11   24     -1.23      1.06
    8   11   24      0.52     -0.35
    9   11   24     -0.15      1.27
   10   11   24     -2.32     -2.91
    0   12   24      2.11      1.46
    1   12   24     -1.06      2.71
    2   12   24      4.17     -2.40
    3   12   24     -3.49     -0.41
    4   12   24      0.26      0.45
    5   12   24     -1.84     -1.74
    6   12   24      0.76     -1.74
    7   12   24     -0.58     -0.72
    8   12   24      2.65     -0.21
    9   12   24      2.47      0.89
   10   12   24      0.62      2.62
    0   13   24      2.21      1.41
    1   13   24     -0.51      0.77
    2   13   24      0.01     -0.31
    3   13   24     -2.63     -1.88
    4   13   24      2.29     -2.96
    5   13   24      1.94     -0.05
    6   13   24      0.68      3.40
    7   13   24     -1.43      2.42
    8   13   24      0.33      1.06
    9   13   24     -0.31      4.09
    0   14   24     -1.03      0.95
    1   14   24      3.23      0.48
    2   14   24     -0.36      3.34
    3   14   24     -1.57     -1.15
    4   14   24     -2.61     -2.31
    5   14   24     -0.94     -6.98
    6   14   24     -1.58      1.06
    7   14   24      4.00      3.91
    8   14   24      1.59     -3.54
    9   14   24      3.02     -3.12
    0   15   24      1.81      0.89
    1   15   24     -4.46      1.40
    2   15   24      1.72     -5.04
    3   15   24      4.20     -1.83
    4   15   24     -0.98     -1.85
    5   15   24     -0.55     -2.90
    6   15   24     -2.16      3.14
    7   15   24      0.84      5.44
    8   15   24      1.08     -2.29
    0   16   24     -7.04      1.69
    1   16   24     -1.14      1.80
    2   16   24     -3.23     -0.21
    3   16   24     -0.23      0.55
    4   16   24     -2.40     -2.23
    5   16   24     -0.66     -7.37
    6   16   24     -1.13      2.53
    7   16   24      2.92      6.89
    8   16   24     -0.26     -3.17
    0   17   24      0.65      1.77
    1   17   24     -1.58      0.01
    2   17   24      2.21     -0.51
    3   17   24      1.74      0.77
    4   17   24      1.81      1.49
    5   17   24     -0.72     -3.77
    6   17   24     -0.68     -1.14
    7   17   24      0.30      0.83
    0   18   24     -2.91      0.98
    1   18   24     -1.50      1.28
    2   18   24      1.98     -0.56
    3   18   24     -0.56      0.04
    4   18   24     -1.59     -3.48
    5   18   24     -0.78     -0.25
    6   18   24     -0.64      3.24
    0   19   24      0.47     -0.93
    1   19   24     -1.26      1.96
    2   19   24      2.49      1.26
    3   19   24     -1.14      0.35
    4   19   24      1.57     -1.59
    5   19   24     -1.18     -1.62
    0   20   24      0.75     -0.06
    1   20   24     -2.91      0.67
    2   20   24      2.33     -0.95
    3   20   24     -1.07      0.66
    0   21   24      0.00      0.65
    1   21   24      1.42      0.91
    1    0   25      0.02      0.36
    2    0   25     -0.02      5.16
    3    0   25     -0.02      1.42
    4    0   25      0.13      5.78
    5    0   25      0.00      1.79
    6    0   25      0.21      5.43
    7    0   25      0.01     -5.33
    8    0   25     -0.07      0.08
    9    0   25      0.08      1.33
   10    0   25      0.03     -2.75
   11    0   25     -0.19      2.06
   12    0   25     -0.10     -0.65
    0    1   25     -0.41     -5.67
    1    1   25      2.42      1.58
    2    1   25      0.67     -2.53
    3    1   25     -4.71      1.18
    4    1   25     -0.17      1.26
    5    1   25     -0.07      1.23
    6    1   25     -0.47     -0.38
    7    1   25      1.54      2.85
    8    1   25      2.85     -1.14
    9    1   25     -0.07      2.69
   10    1   25     -1.61     -0.73
   11    1   25     -0.47     -0.01
   12    1   25     -0.17     -2.17
    0    2   25     -3.22     -0.30
    1    2   25     -0.32      1.05
    2    2   25      4.04     -3.05
    3    2   25      2.82      5.13
    4    2   25      0.04      0.99
    5    2   25      0.30      1.69
    6    2   25      2.13     -0.39
    7    2   25     -0.62      3.79
    8    2   25      1.55      0.03
    9    2   25      2.44      2.12
   10    2   25      2.60     -3.12
   11    2   25     -1.35      4.19
   12    2   25      2.77     -0.49
    0    3   25     -0.39      3.61
    1    3   25     -3.24      2.77
    2    3   25      1.39     -3.25
    3    3   25     -4.82     -2.02
    4    3   25      3.07      0.39
    5    3   25     -0.33      3.92
    6    3   25     -3.05      3.90
    7    3   25      1.03     -5.49
    8    3   25      4.17      2.50
    9    3   25      1.08      2.18
   10    3   25     -1.48     -1.55
   11    3   25      0.02     -1.06
   12    3   25      0.45      0.62
    0    4   25     -3.25     -0.13
    1    4   25      0.70      2.53
    2    4   25      2.44     -0.30
    3    4   25     -0.50      4.35
    4    4   25      0.95     -2.12
    5    4   25     -2.23     -1.63
    6    4   25     -2.87     -3.86
    7    4   25     -3.05      7.74
    8    4   25     -0.15     -2.67
    9    4   25      3.02     -1.78
   10    4   25      5.31     -0.43
   11    4   25     -0.78      0.07
    0    5   25      0.12      3.34
    1    5   25     -1.32      0.44
    2    5   25     -6.40     -0.08
    3    5   25     -0.63      0.34
    4    5   25      6.89      2.39
    5    5   25     -5.63     -2.48
    6    5   25     -3.97      1.71
    7    5   25      0.22     -1.20
    8    5   25      2.69     -0.70
    9    5   25      0.25      1.47
   10    5   25      0.06      2.76
   11    5   25      0.04     -1.44
    0    6   25      2.97      0.46
    1    6   25      2.02     -1.00
    2    6   25      2.88      1.41
    3    6   25      0.89      2.50
    4    6   25      0.70      4.02
    5    6   25     -2.51      2.56
    6    6   25      0.22     -1.38
    7    6   25     -2.55      4.66
    8    6   25     -1.50     -0.23
    9    6   25      0.31     -1.72
   10    6   25      2.93      3.04
   11    6   25      1.19     -2.17
    0    7   25      0.07     -3.39
    1    7   25     -0.65      0.66
    2    7   25     -0.66     -4.17
    3    7   25     -2.62     -1.92
    4    7   25     -0.19      1.27
    5    7   25      0.66     -5.44
    6    7   25     -1.79      0.01
    7    7   25     -4.45      6.88
    8    7   25     -1.05     -1.81
    9    7   25     -3.75     -1.19
   10    7   25     -2.33      1.40
   11    7   25      3.89     -0.43
    0    8   25     -1.59      0.19
    1    8   25     -3.94     -2.60
    2    8   25      0.11     -2.80
    3    8   25      3.74     -0.04
    4    8   25     -1.80     -4.46
    5    8   25      1.56      0.17
    6    8   25      4.66      1.95
    7    8   25     -2.60     -0.81
    8    8   25     -3.93      2.33
    9    8   25      0.50      3.04
   10    8   25      3.77      1.63
   11    8   25      1.41     -2.86
    0    9   25     -0.25     -0.98
    1    9   25     -4.54     -0.77
    2    9   25      4.02      2.16
    3    9   25      0.18     -1.87
    4    9   25      0.65      1.38
    5    9   25     -0.80      0.50
    6    9   25      1.24     -2.26
    7    9   25     -1.34      1.12
    8    9   25     -3.97      1.15
    9    9   25     -0.70     -1.02
   10    9   25     -1.03      0.37
    0   10   25      0.69     -0.02
    1   10   25      2.22      0.08
    2   10   25     -0.57     -4.06
    3   10   25     -3.90     -2.24
    4   10   25      1.52     -3.31
    5   10   25      3.01      0.14
    6   10   25     -0.44      2.95
    7   10   25     -1.58     -1.37
    8   10   25      2.83      4.28
    9   10   25     -2.51      3.93
   10   10   25     -0.05      1.26
    0   11   25     -0.56      2.16
    1   11   25      0.53      4.05
    2   11   25      0.98      4.96
    3   11   25     -3.17     -1.77
    4   11   25     -0.60     -4.42
    5   11   25     -2.13      1.57
    6   11   25      1.05      0.03
    7   11   25     -0.53      3.88
    8   11   25     -1.38      1.38
    9   11   25     -1.10     -2.26
   10   11   25      1.83     -0.09
    0   12   25      0.89     -0.27
    1   12   25      0.36     -1.35
    2   12   25      1.01      3.46
    3   12   25      0.31     -0.28
    4   12   25      2.79     -2.01
    5   12   25     -1.05     -0.59
    6   12   25      0.36      2.22
    7   12   25     -2.65      2.10
    8   12   25      2.76     -0.78
    9   12   25     -1.48     -2.37
    0   13   25     -0.69     -3.09
    1   13   25      0.01     -2.11
    2   13   25      1.77     -3.47
    3   13   25      0.76      1.73
    4   13   25     -1.33     -1.45
    5   13   25     -2.09      2.95
    6   13   25      2.00     -4.33
    7   13   25      1.03      4.75
    8   13   25     -2.32      1.03
    9   13   25     -2.57     -3.20
    0   14   25      2.08     -0.28
    1   14   25      3.87     -1.11
    2   14   25      0.82      0.36
    3   14   25      3.03      0.02
    4   14   25     -1.82      3.51
    5   14   25     -4.49      0.34
    6   14   25      4.28      2.52
    7   14   25     -1.57      1.63
    8   14   25      1.98     -3.06
    0   15   25      1.38     -2.94
    1   15   25      0.67     -2.84
    2   15   25     -1.85     -5.08
    3   15   25      4.10     -1.02
    4   15   25      3.17      1.74
    5   15   25     -2.18     -0.94
    6   15   25     -2.16     -3.66
    7   15   25     -0.24      2.31
    8   15   25     -0.59      0.76
    0   16   25      3.72     -0.24
    1   16   25      5.35     -2.49
    2   16   25      0.03     -5.12
    3   16   25     -1.42     -0.57
    4   16   25     -1.97      3.88
    5   16   25     -0.26      1.19
    6   16   25      2.51     -2.35
    7   16   25     -4.20      1.98
    0   17   25      1.01      4.02
    1   17   25      0.53      1.50
    2   17   25     -1.46     -1.43
    3   17   25     -1.21     -1.34
    4   17   25     -0.21     -1.47
    5   17   25     -1.12      1.24
    6   17   25     -1.18      2.08
    0   18   25      3.73      0.00
    1   18   25      1.73     -0.26
    2   18   25     -0.69     -3.27
    3   18   25     -2.34     -0.54
    4   18   25     -1.09      1.31
    5   18   25     -2.36     -0.14
    0   19   25      0.14      2.22
    1   19   25      1.55      3.90
    2   19   25     -3.00     -1.99
    3   19   25     -1.96      0.68
    4   19   25      0.97     -2.31
    0   20   25      1.08     -0.87
    1   20   25     -0.67      1.51
    2   20   25     -1.48     -2.43
    3   20   25      0.77      2.87
    0    0   26     -5.79      0.05
    1    0   26      0.71     -0.05
    2    0   26      4.26     -0.10
    3    0   26      0.78      0.02
    4    0   26      4.28      0.01
    5    0   26     -6.36      0.16
    6    0   26     -0.05     -0.06
    7    0   26      2.66     -0.09
    8    0   26      2.24      0.01
    9    0   26     -3.19     -0.02
   10    0   26     -0.51     -0.02
   11    0   26     -1.70      0.01
    0    1   26      0.33      1.51
    1    1   26     -2.16     -2.05
    2    1   26     -1.72     -1.16
    3    1   26      2.46      2.63
    4    1   26      0.76      1.44
    5    1   26     -5.72      1.61
    6    1   26     -1.34     -7.64
    7    1   26      1.56      0.90
    8    1   26     -0.15      0.10
    9    1   26     -1.71      0.59
   10    1   26     -0.76     -2.33
   11    1   26      0.07     -1.45
    0    2   26      2.76     -0.14
    1    2   26      2.27     -0.14
    2    2   26     -2.56     -4.00
    3    2   26     -0.03     -1.12
    4    2   26     -2.10      1.10
    5    2   26      1.30     -5.36
    6    2   26     -2.20      0.20
    7    2   26     -0.26      6.46
    8    2   26      1.06     -3.78
    9    2   26     -1.09      0.92
   10    2   26     -5.25      3.91
   11    2   26     -0.14     -0.80
    0    3   26     -0.14      1.75
    1    3   26     -3.17     -1.79
    2    3   26      1.00     -0.31
    3    3   26      4.60      1.50
    4    3   26     -0.89      0.94
    5    3   26     -5.57     -1.37
    6    3   26     -1.50     -5.83
    7    3   26      4.18     -0.43
    8    3   26      2.05      2.62
    9    3   26     -1.30     -1.11
   10    3   26     -0.35      0.11
   11    3   26     -2.69      0.57
    0    4   26      3.39      0.22
    1    4   26     -2.79      2.26
    2    4   26     -2.88      0.78
    3    4   26     -0.79     -4.18
    4    4   26      1.23      0.06
    5    4   26     -0.57     -0.97
    6    4   26     -1.60      0.74
    7    4   26     -2.13      1.64
    8    4   26     -1.28     -2.07
    9    4   26      3.43     -0.85
   10    4   26      0.38      3.52
   11    4   26      1.51     -1.05
    0    5   26     -0.11      0.64
    1    5   26     -2.58     -1.26
    2    5   26     -0.20     -3.58
    3    5   26     -2.21     -2.07
    4    5   26     -4.04      0.53
    5    5   26      2.49      1.62
    6    5   26     -3.59     -5.28
    7    5   26      1.08      1.13
    8    5   26      1.52     -0.39
    9    5   26     -0.59      1.25
   10    5   26     -0.32      2.03
   11    5   26     -2.28      3.01
    0    6   26      4.73      0.21
    1    6   26      1.26      0.93
    2    6   26      2.15     -1.01
    3    6   26     -3.00      0.64
    4    6   26     -0.81      5.06
    5    6   26     -1.29      1.74
    6    6   26      3.01     -3.96
    7    6   26     -2.74      2.49
    8    6   26     -2.79     -1.49
    9    6   26      2.27      1.32
   10    6   26     -0.16      2.54
   11    6   26     -1.38     -0.70
    0    7   26     -0.03     -2.16
    1    7   26     -0.44      3.12
    2    7   26      6.43      0.19
    3    7   26     -0.73     -1.90
    4    7   26      1.44      0.88
    5    7   26      1.97     -0.55
    6    7   26      2.95     -5.98
    7    7   26     -1.52     -2.21
    8    7   26      0.54     -0.08
    9    7   26     -0.57      0.95
   10    7   26      1.04      0.46
   11    7   26     -1.43      1.93
    0    8   26      0.29      0.04
    1    8   26     -2.44     -1.67
    2    8   26     -2.93     -1.49
    3    8   26      1.91     -0.62
    4    8   26      1.51      0.60
    5    8   26      1.79      3.04
    6    8   26      3.94     -4.16
    7    8   26      0.23      0.41
    8    8   26     -3.83      3.14
    9    8   26      3.94     -0.49
   10    8   26      0.57      3.61
    0    9   26     -0.16     -1.99
    1    9   26     -1.88      0.84
    2    9   26     -2.28      1.47
    3    9   26      0.70     -1.99
    4    9   26      2.32     -0.92
    5    9   26     -2.35      0.42
    6    9   26     -0.31     -2.81
    7    9   26     -2.40     -8.10
    8    9   26      2.86     -2.38
    9    9   26     -0.32      0.12
   10    9   26      0.89      0.57
    0   10   26     -1.20     -0.10
    1   10   26     -0.65      1.48
    2   10   26     -0.80     -0.91
    3   10   26      1.10      7.91
    4   10   26      2.46     -2.74
    5   10   26     -1.56     -5.65
    6   10   26      2.79      0.25
    7   10   26      0.19      0.94
    8   10   26     -3.88     -2.90
    9   10   26      3.15      0.06
   10   10   26     -1.19      2.30
    0   11   26      0.94      2.41
    1   11   26     -1.09      4.46
    2   11   26     -4.77     -0.86
    3   11   26      0.50      1.25
    4   11   26      0.32     -2.09
    5   11   26     -0.64      3.97
    6   11   26     -3.53     -2.96
    7   11   26     -0.69     -2.74
    8   11   26     -0.11     -1.51
    9   11   26     -1.75     -1.72
    0   12   26      1.52     -1.14
    1   12   26     -1.21      1.82
    2   12   26      3.51     -1.06
    3   12   26     -1.44      4.79
    4   12   26     -0.39     -1.70
    5   12   26      0.47     -4.53
    6   12   26      2.99      0.58
    7   12   26      0.55      0.46
    8   12   26      1.60     -4.17
    9   12   26      2.29      0.91
    0   13   26      3.45     -1.62
    1   13   26      2.62     -1.43
    2   13   26      0.10     -2.57
    3   13   26     -0.74      4.00
    4   13   26      0.46      0.40
    5   13   26     -2.64      0.26
    6   13   26     -2.95     -1.25
    7   13   26      2.11     -1.52
    8   13   26     -2.83     -2.88
    9   13   26     -2.11     -0.56
    0   14   26      2.63     -3.21
    1   14   26      2.26      1.66
    2   14   26     -4.01     -0.28
    3   14   26     -3.68     -2.56
    4   14   26     -0.86      0.71
    5   14   26     -1.81     -4.05
    6   14   26      3.80      1.51
    7   14   26      4.43      3.05
    8   14   26     -0.12     -2.78
    0   15   26      3.42      4.21
    1   15   26      1.93      0.67
    2   15   26      0.47      2.55
    3   15   26      0.43      0.69
    4   15   26     -2.41      2.92
    5   15   26     -7.05     -0.41
    6   15   26     -0.01      1.55
    7   15   26      6.03     -3.30
    0   16   26      0.85     -0.73
    1   16   26      0.92      3.33
    2   16   26     -4.25     -3.08
    3   16   26      0.67     -4.06
    4   16   26     -0.87      0.94
    5   16   26     -2.64     -2.89
    6   16   26      1.99      0.94
    7   16   26      0.74      3.04
    0   17   26      1.55      4.80
    1   17   26     -0.05      3.87
    2   17   26     -1.03      0.64
    3   17   26      0.08      0.02
    4   17   26     -2.86      1.01
    5   17   26     -4.07      0.60
    6   17   26      1.58     -0.51
    0   18   26     -0.12      0.14
    1   18   26      0.09      3.66
    2   18   26      3.50     -1.61
    3   18   26      1.51      1.03
    4   18   26     -0.71     -6.76
    5   18   26     -3.17      1.12
    0   19   26     -0.02      2.55
    1   19   26     -0.35      2.46
    2   19   26     -0.43     -1.69
    3   19   26      3.07      0.37
    4   19   26      0.40      0.19
    0   20   26     -1.18     -0.34
    1   20   26      1.18     -0.76
    1    0   27     -0.29     -2.10
    2    0   27     -0.04      1.10
    3    0   27     -0.05      4.91
    4    0   27      0.14      0.85
    5    0   27      0.04      2.76
    6    0   27      0.09      4.22
    7    0   27      0.00      0.21
    8    0   27     -0.07     -5.58
    9    0   27      0.00      0.40
   10    0   27      0.10      0.37
   11    0   27     -0.09      3.27
    0    1   27     -0.95     -1.96
    1    1   27      1.31     -0.75
    2    1   27      0.97     -2.28
    3    1   27      4.94     -0.75
    4    1   27      1.89      1.06
    5    1   27     -0.76     -2.54
    6    1   27      2.72     -2.67
    7    1   27      0.23      2.62
    8    1   27      0.04     -2.16
    9    1   27      1.50     -1.73
   10    1   27     -4.95      0.61
   11    1   27      3.20      1.39
    0    2   27     -2.13      0.45
    1    2   27      1.02      1.02
    2    2   27     -3.94     -2.85
    3    2   27      2.01      2.94
    4    2   27      3.16     -1.08
    5    2   27      4.59      1.52
    6    2   27     -1.85      1.57
    7    2   27      1.28     -1.32
    8    2   27      1.55     -4.43
    9    2   27      2.75     -1.50
   10    2   27     -1.53      0.62
   11    2   27      0.39      0.65
    0    3   27     -0.80      2.93
    1    3   27      0.00      0.02
    2    3   27     -0.24     -2.38
    3    3   27      0.73     -1.70
    4    3   27     -4.07     -1.28
    5    3   27      0.85      1.95
    6    3   27     -0.08      2.05
    7    3   27      4.70      2.69
    8    3   27      2.88     -0.19
    9    3   27     -0.34     -3.18
   10    3   27     -2.28     -3.33
   11    3   27      1.92      2.31
    0    4   27      5.76     -0.12
    1    4   27      0.94      3.58
    2    4   27     -1.57      0.69
    3    4   27     -3.26      3.40
    4    4   27      2.65     -2.81
    5    4   27     -1.11      3.29
    6    4   27      0.76     -1.22
    7    4   27     -5.02      1.24
    8    4   27      2.44     -2.78
    9    4   27      1.90     -2.48
   10    4   27      2.65      1.21
   11    4   27     -0.74      0.27
    0    5   27      0.40      0.90
    1    5   27      2.66     -5.76
    2    5   27     -1.61     -0.69
    3    5   27      1.06      1.04
    4    5   27      5.05     -1.10
    5    5   27      2.17     -0.14
    6    5   27     -4.24      1.20
    7    5   27      4.47      1.75
    8    5   27     -1.10     -0.40
    9    5   27      0.04     -2.27
   10    5   27      1.14     -0.87
   11    5   27     -1.84     -0.02
    0    6   27      2.97     -0.06
    1    6   27     -0.47      0.41
    2    6   27      0.02      3.36
    3    6   27      1.63      1.05
    4    6   27     -0.71      1.25
    5    6   27     -5.08      3.22
    6    6   27      3.10     -1.54
    7    6   27      2.80      4.38
    8    6   27     -2.63      1.48
    9    6   27      1.19     -1.43
   10    6   27      2.29      0.04
   11    6   27     -0.59     -1.25
    0    7   27      0.54     -5.56
    1    7   27      0.45      5.23
    2    7   27      0.23      0.13
    3    7   27     -1.58     -1.74
    4    7   27     -0.33      0.23
    5    7   27      4.29     -0.38
    6    7   27     -1.07     -3.08
    7    7   27     -1.99      2.16
    8    7   27      3.11      2.46
    9    7   27     -0.14     -0.54
   10    7   27     -1.03     -1.84
    0    8   27     -3.81      0.07
    1    8   27     -2.76      0.10
    2    8   27      0.38     -2.60
    3    8   27      1.74      1.17
    4    8   27      3.36     -1.25
    5    8   27     -1.14     -0.37
    6    8   27      2.26      3.73
    7    8   27      2.20      2.90
    8    8   27     -2.58      4.17
    9    8   27     -1.57      0.88
   10    8   27      1.35      0.22
    0    9   27     -0.25      0.79
    1    9   27     -4.04      0.84
    2    9   27     -4.25     -0.27
    3    9   27      0.29      0.19
    4    9   27     -2.91      2.06
    5    9   27     -0.79     -1.14
    6    9   27      2.17     -2.58
    7    9   27     -0.91      0.97
    8    9   27      3.26     -0.35
    9    9   27      3.15      1.75
   10    9   27     -0.22     -0.21
    0   10   27     -1.33      0.27
    1   10   27      4.90      1.55
    2   10   27      4.09     -4.36
    3   10   27     -7.31      3.58
    4   10   27      0.14     -1.74
    5   10   27      3.71      1.67
    6   10   27     -2.78      0.53
    7   10   27      2.13      1.04
    8   10   27      2.77      2.72
    9   10   27     -2.99      0.66
   10   10   27     -0.73     -1.69
    0   11   27      0.11      1.02
    1   11   27      0.79     -0.31
    2   11   27     -0.90     -1.09
    3   11   27     -3.18      2.66
    4   11   27     -2.92     -2.24
    5   11   27      2.28     -3.18
    6   11   27      1.64      1.05
    7   11   27      0.26      2.61
    8   11   27      3.94     -2.87
    9   11   27      1.50      2.23
    0   12   27      1.78      0.64
    1   12   27      1.14     -0.15
    2   12   27     -1.76     -0.72
    3   12   27     -1.10      1.35
    4   12   27     -1.82      3.21
    5   12   27      2.19      1.84
    6   12   27     -1.43     -2.75
    7   12   27      6.02      2.63
    8   12   27      1.13      0.80
    9   12   27     -2.91     -0.82
    0   13   27     -0.44     -4.88
    1   13   27      1.04     -2.66
    2   13   27      3.18     -1.38
    3   13   27     -0.24      1.36
    4   13   27     -1.79      1.13
    5   13   27      0.36      2.65
    6   13   27      3.30     -3.41
    7   13   27      3.80      0.55
    8   13   27     -1.56     -1.25
    0   14   27     -0.59     -0.21
    1   14   27     -2.16      1.41
    2   14   27     -6.72     -1.66
    3   14   27      3.97     -4.74
    4   14   27      0.11      1.56
    5   14   27     -1.18      3.13
    6   14   27     -2.57      0.21
    7   14   27      2.84      2.49
    8   14   27     -0.57     -0.28
    0   15   27      0.10     -3.36
    1   15   27     -3.69     -4.34
    2   15   27     -2.72     -0.18
    3   15   27      0.16     -0.60
    4   15   27      4.84      2.02
    5   15   27     -0.66      1.31
    6   15   27      0.98     -4.64
    7   15   27      1.30      2.67
    0   16   27      0.56     -1.87
    1   16   27      0.83     -1.54
    2   16   27     -1.25     -0.82
    3   16   27     -0.49     -2.82
    4   16   27      0.27      0.03
    5   16   27      0.21      4.32
    6   16   27      0.98     -0.59
    0   17   27     -0.26     -1.83
    1   17   27     -2.18     -3.51
    2   17   27     -3.85     -1.14
    3   17   27     -0.21      0.63
    4   17   27     -0.32     -1.50
    5   17   27      0.23      0.92
    0   18   27      2.44     -0.42
    1   18   27      3.50     -0.09
    2   18   27     -3.16      2.41
    3   18   27     -0.02      1.95
    4   18   27     -2.95     -0.91
    0   19   27     -0.29     -1.87
    1   19   27      1.46     -0.07
    2   19   27     -3.24      1.07
    3   19   27      0.38      0.56
    0    0   28      2.43     -0.11
    1    0   28      0.18     -0.14
    2    0   28     -2.18     -0.09
    3    0   28      4.42      0.03
    4    0   28      4.41     -0.03
    5    0   28     -4.65      0.05
    6    0   28     -8.12     -0.04
    7    0   28      5.27     -0.17
    8    0   28     -0.06      0.01
    9    0   28     -0.39      0.18
   10    0   28     -0.78      0.01
   11    0   28     -2.58      0.02
    0    1   28      0.19      3.09
    1    1   28     -1.26     -1.97
    2    1   28     -0.35     -1.74
    3    1   28     -1.07     -0.51
    4    1   28      0.68     -0.25
    5    1   28     -2.19      1.90
    6    1   28      1.20      0.00
    7    1   28      4.17      0.76
    8    1   28     -0.86     -3.17
    9    1   28     -1.15      1.89
   10    1   28      2.18      2.40
   11    1   28     -2.16     -0.62
    0    2   28      2.26     -0.22
    1    2   28      1.44      1.52
    2    2   28      0.56     -1.76
    3    2   28      1.09     -4.42
    4    2   28      1.45      2.56
    5    2   28     -0.76      1.86
    6    2   28     -4.69      0.65
    7    2   28      1.38     -1.68
    8    2   28      5.03     -0.96
    9    2   28     -0.46      1.16
   10    2   28     -1.00      1.95
   11    2   28     -1.71      0.01
    0    3   28     -0.02     -3.20
    1    3   28     -0.22     -2.59
    2    3   28     -0.37      3.82
    3    3   28     -0.52      0.21
    4    3   28      0.91      0.21
    5    3   28     -4.31     -4.29
    6    3   28     -0.21      1.13
    7    3   28      5.39      3.05
    8    3   28     -1.81      1.59
    9    3   28     -1.46     -0.09
   10    3   28      2.55      0.98
   11    3   28     -2.59     -1.56
    0    4   28      2.45      0.11
    1    4   28     -5.27      4.57
    2    4   28     -2.94      1.93
    3    4   28     -1.37     -1.75
    4    4   28     -0.05     -1.63
    5    4   28     -0.32      0.87
    6    4   28     -6.75      1.78
    7    4   28      0.49     -2.09
    8    4   28      1.13     -3.68
    9    4   28      1.41      0.39
   10    4   28      2.38      0.73
   11    4   28      0.73      2.97
    0    5   28      0.18     -1.45
    1    5   28      1.12      1.68
    2    5   28     -1.22     -1.14
    3    5   28     -1.08      1.38
    4    5   28      2.08      0.23
    5    5   28      0.26      3.83
    6    5   28     -3.04     -1.94
    7    5   28      2.73      2.28
    8    5   28      0.18      1.91
    9    5   28     -0.76     -1.46
   10    5   28      1.48     -1.93
    0    6   28      2.86      0.09
    1    6   28      3.46      0.44
    2    6   28      0.16     -2.21
    3    6   28     -2.49      1.62
    4    6   28     -0.81      3.28
    5    6   28     -1.17     -1.46
    6    6   28     -4.64      1.42
    7    6   28      0.81      1.97
    8    6   28      1.20     -2.66
    9    6   28      1.88     -0.51
   10    6   28      0.78      1.35
    0    7   28      0.10      0.17
    1    7   28     -1.28      0.84
    2    7   28      0.01     -0.59
    3    7   28      0.32      1.33
    4    7   28      1.39      0.66
    5    7   28      1.53      0.89
    6    7   28     -1.46     -4.23
    7    7   28      1.49      0.03
    8    7   28      1.61      1.66
    9    7   28     -1.02     -1.25
   10    7   28      3.42     -1.05
    0    8   28     -0.39      0.01
    1    8   28      4.58     -1.09
    2    8   28     -3.42     -0.78
    3    8   28     -1.23     -1.44
    4    8   28      1.97     -2.74
    5    8   28     -3.24      5.68
    6    8   28     -3.88     -2.43
    7    8   28     -4.13     -0.47
    8    8   28     -1.22     -0.32
    9    8   28      0.07     -0.60
   10    8   28      1.12     -0.63
    0    9   28     -0.23      2.00
    1    9   28     -1.42     -3.25
    2    9   28     -1.65     -0.19
    3    9   28      4.31     -1.50
    4    9   28     -2.49     -2.13
    5    9   28     -2.74     -4.33
    6    9   28     -0.23     -0.80
    7    9   28      0.59     -2.48
    8    9   28      1.05      0.68
    9    9   28     -0.90     -3.17
   10    9   28      1.96      0.66
    0   10   28      0.84     -0.04
    1   10   28      4.72      2.72
    2   10   28     -2.99      1.80
    3   10   28      0.63      3.05
    4   10   28      0.13     -1.40
    5   10   28      0.92     -0.09
    6   10   28     -4.76      2.01
    7   10   28     -2.78     -0.14
    8   10   28     -2.51     -4.34
    9   10   28      1.26      1.16
    0   11   28     -0.11      1.58
    1   11   28      1.17      4.20
    2   11   28     -3.70     -1.12
    3   11   28      6.14      0.77
    4   11   28     -4.69     -3.24
    5   11   28     -2.95     -0.03
    6   11   28      2.42     -1.97
    7   11   28      0.54      0.68
    8   11   28     -5.83      0.03
    9   11   28     -1.15     -1.63
    0   12   28      0.27     -2.78
    1   12   28     -3.33      0.66
    2   12   28      0.49      0.36
    3   12   28      3.96     -1.18
    4   12   28     -0.90     -0.80
    5   12   28      0.74      1.61
    6   12   28     -4.16      5.31
    7   12   28     -1.02     -1.43
    8   12   28     -0.94      0.18
    0   13   28     -1.62     -2.13
    1   13   28      2.85      1.10
    2   13   28     -1.56      2.13
    3   13   28     -0.17      1.82
    4   13   28     -1.33     -1.00
    5   13   28     -5.16     -0.74
    6   13   28      2.85     -4.55
    7   13   28      1.10     -1.13
    8   13   28     -3.95     -1.58
    0   14   28     -0.73     -6.94
    1   14   28      1.23     -3.28
    2   14   28      0.74      2.68
    3   14   28      1.05     -2.88
    4   14   28      1.66      2.40
    5   14   28     -1.24      3.10
    6   14   28     -0.63      1.60
    7   14   28     -1.81     -2.88
    0   15   28     -1.74     -1.07
    1   15   28      0.46     -1.90
    2   15   28     -3.35      3.17
    3   15   28     -4.09      0.85
    4   15   28      1.80      0.57
    5   15   28     -5.30      2.83
    6   15   28     -0.23     -2.54
    7   15   28      3.77     -1.29
    0   16   28      4.82     -3.39
    1   16   28      6.63     -0.02
    2   16   28      0.76      1.17
    3   16   28     -0.46      0.87
    4   16   28      0.90      3.89
    5   16   28      0.99      3.13
    6   16   28      1.21     -1.89
    0   17   28      0.51      0.97
    1   17   28      4.05      0.96
    2   17   28     -2.85     -1.37
    3   17   28     -0.50     -1.74
    4   17   28     -3.39      1.59
    5   17   28     -0.81      2.12
    0   18   28      2.71      0.03
    1   18   28      4.02      0.93
    2   18   28     -0.22      1.12
    3   18   28     -0.05     -0.79
    0   19   28     -0.11      2.65
    1   19   28      1.10      1.23
    1    0   29     -0.14     -1.56
    2    0   29     -0.02      0.09
    3    0   29     -0.10     -8.16
    4    0   29      0.00     -0.75
    5    0   29      0.09      0.09
    6    0   29     -0.06      2.10
    7    0   29      0.01     -0.18
    8    0   29     -0.08     -0.22
    9    0   29     -0.03     -3.25
   10    0   29     -0.04      4.43
   11    0   29      0.09     -1.62
    0    1   29     -0.44     -0.54
    1    1   29      1.07     -1.69
    2    1   29      2.10      1.11
    3    1   29      4.26     -0.39
    4    1   29      0.61     -1.78
    5    1   29      0.35     -4.52
    6    1   29      2.28      2.13
    7    1   29      0.59      1.39
    8    1   29     -5.28     -1.83
    9    1   29      0.08     -0.42
   10    1   29     -2.12      1.54
   11    1   29      2.77      0.04
    0    2   29      0.20      1.50
    1    2   29     -2.32      2.09
    2    2   29     -3.08     -0.79
    3    2   29      0.49     -4.02
    4    2   29      2.24     -0.40
    5    2   29      1.07      0.84
    6    2   29     -0.64     -1.17
    7    2   29      4.73      0.22
    8    2   29     -0.38     -3.08
    9    2   29     -2.66      0.41
   10    2   29     -0.57      3.53
    0    3   29     -0.38     -4.66
    1    3   29      1.12     -0.57
    2    3   29      1.22      4.09
    3    3   29      3.05      0.78
    4    3   29     -3.77     -4.92
    5    3   29      1.35     -0.80
    6    3   29     -1.26      3.20
    7    3   29     -0.18      1.45
    8    3   29      0.59     -3.12
    9    3   29     -1.92     -2.77
   10    3   29     -0.05     -2.29
    0    4   29      5.29      0.18
    1    4   29     -5.39      1.31
    2    4   29     -2.04      0.72
    3    4   29     -2.96      0.06
    4    4   29     -0.85     -1.13
    5    4   29      1.58     -2.88
    6    4   29      2.32      0.54
    7    4   29      1.68     -2.58
    8    4   29      0.58     -1.66
    9    4   29     -2.10     -2.25
   10    4   29     -0.86      0.16
    0    5   29      0.05     -3.85
    1    5   29      2.40     -3.22
    2    5   29     -0.67     -0.83
    3    5   29      2.60      3.22
    4    5   29      3.34      2.40
    5    5   29      3.82      4.83
    6    5   29     -5.19     -2.74
    7    5   29      3.63      0.95
    8    5   29      0.07     -1.40
    9    5   29     -1.57     -3.44
   10    5   29      1.82     -2.20
    0    6   29      0.99     -0.66
    1    6   29     -0.38     -2.84
    2    6   29      1.08      2.06
    3    6   29      0.78      1.78
    4    6   29     -1.34     -0.19
    5    6   29     -3.07     -2.43
    6    6   29      1.35      1.90
    7    6   29      1.49      2.15
    8    6   29      0.02      2.58
    9    6   29     -0.80     -0.81
   10    6   29      0.46     -0.35
    0    7   29      0.29     -4.51
    1    7   29      0.23      2.27
    2    7   29      0.79     -0.80
    3    7   29     -1.40     -3.12
    4    7   29     -0.48     -2.62
    5    7   29      3.25      1.27
    6    7   29      2.03     -5.61
    7    7   29      1.11     -2.06
    8    7   29      4.56      3.47
    9    7   29      0.36      0.46
   10    7   29     -2.14     -1.98
    0    8   29     -3.00      0.08
    1    8   29      2.78      0.33
    2    8   29     -0.91      0.85
    3    8   29      1.80      1.33
    4    8   29      3.11      0.17
    5    8   29     -0.78     -1.67
    6    8   29     -2.20     -0.64
    7    8   29      1.12      1.28
    8    8   29      0.38     -2.88
    9    8   29      0.93      0.10
    0    9   29     -0.04      4.57
    1    9   29     -2.21     -1.40
    2    9   29     -5.32     -2.18
    3    9   29      3.77      2.88
    4    9   29      0.58     -3.00
    5    9   29     -0.43     -2.20
    6    9   29      5.61      1.14
    7    9   29      0.63      0.42
    8    9   29      1.58     -1.60
    9    9   29      1.06      3.21
    0   10   29     -1.91      0.03
    1   10   29      1.29      2.32
    2   10   29      1.63      2.45
    3   10   29     -1.93      1.96
    4   10   29     -0.12      1.90
    5   10   29     -0.30     -2.97
    6   10   29     -1.92      0.41
    7   10   29      2.42     -0.49
    8   10   29      0.12     -2.66
    9   10   29      1.45     -0.88
    0   11   29      0.46     -0.59
    1   11   29      1.11     -0.80
    2   11   29     -2.98     -1.85
    3   11   29      2.24      3.98
    4   11   29      0.15      1.49
    5   11   29      3.33     -5.29
    6   11   29     -2.03      2.09
    7   11   29      1.94     -2.81
    8   11   29      1.07     -2.43
    0   12   29     -4.13     -0.24
    1   12   29     -0.80     -1.30
    2   12   29     -1.39     -1.06
    3   12   29      1.96      0.72
    4   12   29      0.30      4.18
    5   12   29      0.89     -2.76
    6   12   29     -2.06     -2.46
    7   12   29      1.23     -1.02
    8   12   29     -0.91     -2.81
    0   13   29      0.12     -5.07
    1   13   29     -0.17     -1.59
    2   13   29      1.20      5.73
    3   13   29     -3.11     -1.13
    4   13   29      3.39      3.44
    5   13   29      1.31      1.05
    6   13   29     -1.78     -2.65
    7   13   29      7.23     -3.99
    0   14   29     -1.30      0.22
    1   14   29     -2.72      1.91
    2   14   29     -3.03      0.53
    3   14   29      1.24     -1.62
    4   14   29      2.64     -1.47
    5   14   29      2.34     -0.05
    6   14   29     -3.98     -2.02
    7   14   29     -0.77     -1.02
    0   15   29     -0.84     -2.25
    1   15   29     -0.88     -2.17
    2   15   29     -1.90      2.45
    3   15   29     -1.82     -3.01
    4   15   29      2.79      0.15
    5   15   29      3.15      1.37
    6   15   29     -1.65     -2.17
    0   16   29     -0.45     -0.13
    1   16   29     -2.31      3.46
    2   16   29     -1.49      3.25
    3   16   29     -0.41     -0.42
    4   16   29     -2.44     -1.72
    5   16   29      0.97      2.94
    0   17   29     -1.15      2.05
    1   17   29     -1.38     -3.27
    2   17   29      0.89      0.44
    3   17   29      0.33     -0.60
    4   17   29     -1.83      0.62
    0   18   29     -0.64      0.44
    1   18   29     -1.09     -0.68
    2   18   29     -1.30      3.77
    0    0   30      5.80      0.00
    1    0   30     -3.80     -0.11
    2    0   30     -3.73      0.00
    3    0   30      1.43      0.03
    4    0   30      3.75     -0.08
    5    0   30     -2.72      0.00
    6    0   30      1.18      0.01
    7    0   30      1.81     -0.22
    8    0   30     -4.62      0.04
    9    0   30      0.83      0.13
   10    0   30      5.35      0.05
    0    1   30     -0.09     -3.67
    1    1   30     -0.72     -1.20
    2    1   30     -0.91      2.02
    3    1   30     -1.69     -1.12
    4    1   30      2.99     -4.28
    5    1   30     -1.37      5.23
    6    1   30     -1.34      4.74
    7    1   30      0.24     -5.48
    8    1   30     -0.04     -4.24
    9    1   30     -0.97      2.02
   10    1   30      1.39     -0.06
    0    2   30     -1.80     -0.17
    1    2   30     -1.88      0.66
    2    2   30      1.76     -2.73
    3    2   30      0.74      2.73
    4    2   30      0.54      0.60
    5    2   30     -1.69      0.70
    6    2   30      1.16      0.12
    7    2   30      2.27     -2.48
    8    2   30     -0.39     -0.21
    9    2   30      1.46      1.81
   10    2   30     -0.13     -1.49
    0    3   30     -0.19     -0.31
    1    3   30      1.23     -0.87
    2    3   30     -0.73      0.18
    3    3   30     -0.69      2.38
    4    3   30      1.75      0.11
    5    3   30     -1.40     -1.66
    6    3   30     -1.56      2.59
    7    3   30      0.47      0.52
    8    3   30     -1.20     -2.65
    9    3   30      1.03     -0.21
   10    3   30      0.99     -0.02
    0    4   30      0.26      0.03
    1    4   30     -1.10      0.75
    2    4   30     -1.59      2.76
    3    4   30     -1.54      0.49
    4    4   30      1.06     -5.33
    5    4   30     -0.26      0.59
    6    4   30     -1.90      2.84
    7    4   30      2.69     -2.75
    8    4   30      2.44      0.32
    9    4   30      1.09      1.14
   10    4   30     -0.55     -1.70
    0    5   30      0.20     -1.67
    1    5   30      2.36      0.80
    2    5   30     -1.32     -0.35
    3    5   30      0.23      1.99
    4    5   30     -1.62      1.96
    5    5   30     -1.59      1.92
    6    5   30     -0.36      3.93
    7    5   30      0.70     -1.39
    8    5   30     -2.70     -0.66
    9    5   30      1.28     -1.61
   10    5   30      0.60     -2.81
    0    6   30      2.88     -0.05
    1    6   30      3.72      0.47
    2    6   30     -0.22      1.46
    3    6   30      0.27      0.47
    4    6   30     -0.09      0.77
    5    6   30      2.30      0.91
    6    6   30     -5.58      2.32
    7    6   30     -0.29      0.05
    8    6   30      1.64     -2.95
    9    6   30     -0.57      1.04
   10    6   30     -2.02     -1.30
    0    7   30      0.06     -2.92
    1    7   30     -0.35     -5.15
    2    7   30      0.13      2.08
    3    7   30      0.00      2.24
    4    7   30      2.18     -1.32
    5    7   30      3.27      4.95
    6    7   30      2.61      3.77
    7    7   30      1.18      0.38
    8    7   30     -1.76     -1.33
    9    7   30     -1.91      0.97
    0    8   30      2.32      0.18
    1    8   30     -0.70     -0.04
    2    8   30     -4.53      1.52
    3    8   30      0.70     -3.50
    4    8   30      1.39     -0.29
    5    8   30     -3.68      4.64
    6    8   30     -1.22      0.58
    7    8   30     -0.21     -3.79
    8    8   30     -1.77     -1.17
    9    8   30     -1.67      1.50
    0    9   30     -0.08     -0.13
    1    9   30     -1.23     -8.97
    2    9   30     -0.10      3.56
    3    9   30      1.95      1.51
    4    9   30     -2.19     -1.30
    5    9   30      1.67      1.01
    6    9   30     -1.80      6.06
    7    9   30      0.02      0.87
    8    9   30     -3.14      0.33
    9    9   30     -0.30     -0.90
    0   10   30      2.49      0.20
    1   10   30      1.56      1.85
    2   10   30     -2.96      0.97
    3   10   30      0.31     -2.71
    4   10   30     -0.40      6.13
    5   10   30     -5.37      0.18
    6   10   30     -0.93     -0.83
    7   10   30     -1.96     -0.07
    8   10   30     -1.98     -0.46
    0   11   30     -0.70     -1.41
    1   11   30      3.27      2.85
    2   11   30     -1.37      3.36
    3   11   30      0.40     -2.72
    4   11   30     -1.57     -0.85
    5   11   30      2.48     -1.86
    6   11   30      3.94      4.93
    7   11   30      0.02      0.10
    8   11   30     -4.28      0.48
    0   12   30      0.39      0.27
    1   12   30     -0.13     -1.83
    2   12   30      3.08      2.96
    3   12   30      2.68     -3.31
    4   12   30     -1.99      5.15
    5   12   30     -0.96      2.15
    6   12   30     -5.35     -2.33
    7   12   30      0.46      0.23
    0   13   30     -5.78     -2.25
    1   13   30      0.01      3.69
    2   13   30      3.44     -1.03
    3   13   30     -5.53     -1.76
    4   13   30      0.51     -1.87
    5   13   30      1.69      1.35
    6   13   30      3.37      0.82
    7   13   30     -1.24      1.85
    0   14   30     -0.30     -0.10
    1   14   30     -0.32     -0.28
    2   14   30      3.46      5.26
    3   14   30     -1.61      0.69
    4   14   30     -0.98      0.23
    5   14   30      1.42      5.77
    6   14   30     -2.23     -2.43
    0   15   30     -6.83      0.71
    1   15   30     -1.44     -7.86
    2   15   30      3.28     -1.00
    3   15   30     -1.63      1.02
    4   15   30      4.64     -0.41
    5   15   30      0.46      0.73
    0   16   30      2.06     -0.34
    1   16   30      2.31     -1.39
    2   16   30     -2.71      4.30
    3   16   30     -0.40      1.61
    4   16   30     -0.24      2.03
    0   17   30     -0.61     -2.75
    1   17   30      1.40     -6.35
    2   17   30      0.75     -0.03
    3   17   30      1.37      0.97
    0   18   30      3.00     -0.18
    1   18   30      3.20     -2.34
    1    0   31     -0.06     -2.07
    2    0   31     -0.01     -2.88
    3    0   31     -0.10     -6.42
    4    0   31     -0.04     -3.00
    5    0   31      0.10      1.71
    6    0   31     -0.11      2.68
    7    0   31      0.04      1.70
    8    0   31      0.02      3.21
    9    0   31     -0.08     -2.04
   10    0   31     -0.05      3.65
    0    1   31      0.80      1.60
    1    1   31      0.39     -1.07
    2    1   31      1.20     -0.41
    3    1   31     -5.63      0.02
    4    1   31     -1.44     -1.44
    5    1   31     -2.35     -4.51
    6    1   31      1.45     -0.13
    7    1   31      3.38     -0.61
    8    1   31     -1.48     -1.59
    9    1   31     -0.98      0.98
   10    1   31      1.07      0.93
    0    2   31     -0.73      1.42
    1    2   31     -0.62     -0.56
    2    2   31     -1.57     -2.79
    3    2   31      0.20     -5.90
    4    2   31     -2.75      1.33
    5    2   31     -2.45      0.97
    6    2   31      2.47      0.82
    7    2   31      3.51      1.72
    8    2   31     -2.55     -0.72
    9    2   31     -1.34     -1.24
   10    2   31     -1.35      2.60
    0    3   31      0.85     -6.67
    1    3   31      3.72      0.97
    2    3   31      1.70      3.01
    3    3   31     -2.18      4.01
    4    3   31     -5.75     -2.03
    5    3   31     -0.44     -2.52
    6    3   31     -1.62      0.61
    7    3   31      0.16     -3.20
    8    3   31      0.09     -0.30
    9    3   31     -0.59      1.21
   10    3   31     -0.28     -0.14
    0    4   31     -0.04      0.51
    1    4   31     -2.26      0.72
    2    4   31     -1.62     -1.69
    3    4   31      1.07     -4.60
    4    4   31      0.89      0.65
    5    4   31      4.02     -0.93
    6    4   31      0.66      2.81
    7    4   31     -0.18     -1.39
    8    4   31     -2.38     -1.58
    9    4   31     -4.24     -0.18
   10    4   31     -3.03     -1.44
    0    5   31     -0.25     -4.29
    1    5   31      0.96      0.72
    2    5   31     -0.01     -1.44
    3    5   31     -0.21      2.31
    4    5   31      2.34      1.98
    5    5   31      1.05      2.35
    6    5   31      1.13     -3.94
    7    5   31      1.64     -2.32
    8    5   31      1.19     -0.68
    9    5   31     -2.87     -0.72
    0    6   31     -2.63     -0.57
    1    6   31     -1.69     -2.58
    2    6   31     -2.35      0.71
    3    6   31      0.93      0.62
    4    6   31     -0.06      0.53
    5    6   31      0.57     -3.06
    6    6   31     -5.43     -1.17
    7    6   31     -0.15     -2.92
    8    6   31     -1.03     -1.53
    9    6   31     -2.22      0.01
    0    7   31     -0.11     -2.40
    1    7   31     -1.83     -2.48
    2    7   31      2.21      1.23
    3    7   31      0.47     -0.76
    4    7   31     -0.27     -2.23
    5    7   31      1.47      3.91
    6    7   31      1.13     -2.81
    7    7   31      0.87     -0.99
    8    7   31      1.17      0.18
    9    7   31      0.68      0.22
    0    8   31     -0.67      0.03
    1    8   31     -1.43      0.29
    2    8   31     -2.41      1.47
    3    8   31      1.66      0.60
    4    8   31     -2.17      0.26
    5    8   31     -1.45     -1.70
    6    8   31     -1.64     -5.51
    7    8   31     -0.02      0.79
    8    8   31      0.31     -2.70
    9    8   31      1.86     -0.71
    0    9   31      0.18      2.52
    1    9   31      0.85     -1.43
    2    9   31     -1.59     -1.20
    3    9   31      1.15      0.39
    4    9   31      2.36     -2.64
    5    9   31     -3.21     -2.02
    6    9   31      0.60      3.13
    7    9   31     -0.51     -1.86
    8    9   31     -3.05     -1.87
    0   10   31     -1.62     -0.19
    1   10   31      0.21      2.34
    2   10   31      0.44      3.99
    3   10   31      0.94     -1.39
    4   10   31     -1.25     -1.65
    5   10   31     -3.67     -4.24
    6   10   31      1.62     -3.06
    7   10   31      1.45      0.30
    8   10   31     -2.42     -0.43
    0   11   31     -0.34      5.15
    1   11   31      1.65      3.48
    2   11   31      0.80     -1.92
    3   11   31     -1.00      0.98
    4   11   31      3.36      1.01
    5   11   31     -2.27     -3.27
    6   11   31      0.07      3.17
    7   11   31     -0.71     -1.58
    0   12   31     -6.68     -0.32
    1   12   31     -1.34      0.76
    2   12   31      2.15     -0.42
    3   12   31     -0.64      0.10
    4   12   31      5.69      0.53
    5   12   31     -1.53     -1.90
    6   12   31     -3.25      1.62
    7   12   31     -2.89     -5.21
    0   13   31     -0.30      0.29
    1   13   31      0.71     -1.59
    2   13   31      2.12      3.73
    3   13   31     -2.16      0.88
    4   13   31      0.61     -0.06
    5   13   31     -1.16     -2.33
    6   13   31     -3.35      0.26
    0   14   31     -3.84      0.53
    1   14   31     -4.58      3.43
    2   14   31     -0.12     -0.79
    3   14   31     -1.11      0.80
    4   14   31      3.36     -4.35
    5   14   31      4.09     -0.90
    6   14   31     -4.97      1.94
    0   15   31      0.18     -2.61
    1   15   31      0.97     -1.38
    2   15   31      2.46      4.46
    3   15   31      0.60      0.08
    4   15   31     -0.71      0.26
    5   15   31      2.11     -1.23
    0   16   31      2.57      0.38
    1   16   31     -3.58      0.96
    2   16   31     -0.46      0.84
    3   16   31     -2.23     -1.72
    4   16   31     -0.47     -0.62
    0   17   31      0.28      2.44
    1   17   31      0.16      0.78
    2   17   31      3.37      1.14
    0    0   32      0.74      0.04
    1    0   32      0.35      0.03
    2    0   32     -0.88      0.13
    3    0   32      2.74      0.03
    4    0   32     -4.28      0.03
    5    0   32      2.18      0.05
    6    0   32      2.68      0.04
    7    0   32     -5.17     -0.21
    8    0   32     -7.58      0.00
    9    0   32      2.52      0.08
    0    1   32     -0.07     -4.19
    1    1   32     -1.50      0.93
    2    1   32     -2.10      2.00
    3    1   32      3.82     -0.92
    4    1   32      3.57     -5.26
    5    1   32      0.29      4.46
    6    1   32     -0.83     -1.28
    7    1   32      0.77     -2.83
    8    1   32     -0.52      2.22
    9    1   32      0.29     -0.18
    0    2   32     -0.50      0.12
    1    2   32     -2.30      0.47
    2    2   32      2.01     -0.79
    3    2   32      2.86      1.10
    4    2   32     -1.27     -2.42
    5    2   32      1.13      1.51
    6    2   32      1.91      2.38
    7    2   32     -2.23     -1.55
    8    2   32     -2.76      0.29
    9    2   32      2.39      0.23
    0    3   32     -0.03      3.75
    1    3   32      0.49     -0.68
    2    3   32     -1.41     -0.10
    3    3   32      3.24     -0.08
    4    3   32     -1.62     -0.40
    5    3   32     -1.29     -0.51
    6    3   32      1.06     -0.59
    7    3   32     -1.50     -1.44
    8    3   32     -0.70     -0.43
    9    3   32      1.39     -2.26
    0    4   32      1.27     -0.02
    1    4   32      0.37     -1.08
    2    4   32     -2.37      4.04
    3    4   32      0.02      0.10
    4    4   32      2.08     -0.92
    5    4   32     -1.52      1.15
    6    4   32     -0.42      2.84
    7    4   32      1.16     -2.53
    8    4   32     -1.07      1.60
    9    4   32     -0.23     -1.28
    0    5   32      0.16     -0.99
    1    5   32      1.97     -1.73
    2    5   32      2.03     -0.60
    3    5   32      1.35      2.01
    4    5   32     -2.64      0.18
    5    5   32      1.09      0.50
    6    5   32      2.75      7.22
    7    5   32      0.92     -0.58
    8    5   32     -1.79     -2.67
    9    5   32      2.26     -0.03
    0    6   32     -3.27     -0.20
    1    6   32     -0.91     -2.00
    2    6   32      3.00      1.26
    3    6   32      1.53      0.13
    4    6   32      0.21      0.35
    5    6   32      3.74     -0.39
    6    6   32      1.48     -0.92
    7    6   32      0.62     -0.90
    8    6   32      0.26     -0.23
    9    6   32      1.31     -0.54
    0    7   32      0.33     -3.41
    1    7   32     -1.08     -0.32
    2    7   32      1.63      3.02
    3    7   32     -2.28      1.09
    4    7   32      0.70     -2.02
    5    7   32      3.73      1.52
    6    7   32      2.70      6.26
    7    7   32      0.09      0.48
    8    7   32     -3.06     -0.63
    9    7   32     -0.47      0.81
    0    8   32     -3.70      0.09
    1    8   32     -5.94      0.06
    2    8   32      1.93      1.23
    3    8   32      1.27     -1.25
    4    8   32      0.59     -3.67
    5    8   32      2.51      1.11
    6    8   32      4.48      0.89
    7    8   32      0.91     -2.38
    8    8   32     -1.57      1.25
    0    9   32      0.17      0.21
    1    9   32      0.82     -2.34
    2    9   32      0.59      3.66
    3    9   32     -0.88     -0.41
    4    9   32      3.87     -0.67
    5    9   32      0.88      3.63
    6    9   32      0.89      2.15
    7    9   32     -0.98      1.27
    8    9   32     -0.43      2.70
    0   10   32     -2.31      0.16
    1   10   32     -0.68      1.01
    2   10   32      1.38      0.21
    3   10   32     -0.62     -1.02
    4   10   32      1.83      4.59
    5   10   32     -1.74     -2.77
    6   10   32      4.07      1.25
    7   10   32     -0.77     -0.52
    0   11   32      0.63     -2.52
    1   11   32      1.05      0.84
    2   11   32     -0.03      0.55
    3   11   32     -3.81     -0.46
    4   11   32      5.89     -1.09
    5   11   32      1.06      2.26
    6   11   32     -0.31      4.71
    7   11   32      2.01      3.25
    0   12   32     -2.19      2.38
    1   12   32      1.97     -3.12
    2   12   32      1.51     -3.03
    3   12   32     -0.63      4.27
    4   12   32     -0.75      1.51
    5   12   32     -0.71     -2.81
    6   12   32     -1.77     -3.32
    0   13   32     -0.84     -3.64
    1   13   32      0.16      1.45
    2   13   32      6.41     -2.56
    3   13   32     -3.61      1.61
    4   13   32      2.29      0.28
    5   13   32      3.18     -0.97
    6   13   32     -1.90      1.51
    0   14   32     -1.05      5.89
    1   14   32     -2.91     -0.91
    2   14   32     -1.80     -2.18
    3   14   32     -0.04      3.02
    4   14   32     -2.62     -1.44
    5   14   32      2.68      1.44
    0   15   32     -1.95     -1.79
    1   15   32     -0.90     -3.24
    2   15   32      5.81     -0.03
    3   15   32     -0.35      2.11
    4   15   32      2.48      2.28
    0   16   32      2.05      2.52
    1   16   32     -5.41     -0.56
    2   16   32     -0.96     -1.01
    3   16   32      1.68      0.36
    1    0   33     -0.13      1.85
    2    0   33     -0.01      0.98
    3    0   33     -0.10      0.25
    4    0   33      0.00     -1.87
    5    0   33      0.03      3.13
    6    0   33     -0.05      1.57
    7    0   33      0.01     -4.58
    8    0   33      0.09      2.10
    9    0   33     -0.03     -1.49
    0    1   33      1.52      1.41
    1    1   33     -1.59     -0.80
    2    1   33      0.09      0.71
    3    1   33     -5.65      1.07
    4    1   33     -1.38      2.86
    5    1   33     -0.30     -1.95
    6    1   33      3.13      0.24
    7    1   33      4.39     -0.14
    8    1   33     -0.64      0.46
    9    1   33     -1.81     -0.21
    0    2   33     -0.67     -0.40
    1    2   33     -0.57     -1.05
    2    2   33     -3.39     -2.23
    3    2   33      2.59      1.73
    4    2   33     -1.05      5.04
    5    2   33     -5.56      2.55
    6    2   33      0.43      0.58
    7    2   33      1.51     -1.51
    8    2   33     -0.35      0.25
    9    2   33     -0.37     -1.01
    0    3   33      1.77     -2.72
    1    3   33      1.25     -4.06
    2    3   33     -0.82      4.00
    3    3   33     -6.62      3.10
    4    3   33     -1.90     -0.43
    5    3   33      1.04     -1.62
    6    3   33      0.41      0.09
    7    3   33     -0.24     -2.13
    8    3   33      0.18      0.74
    9    3   33     -0.70      2.23
    0    4   33     -4.19     -0.15
    1    4   33     -0.96     -2.64
    2    4   33     -2.37     -1.23
    3    4   33      2.34      0.50
    4    4   33      0.49      1.57
    5    4   33      0.54     -2.82
    6    4   33     -0.15      0.12
    7    4   33     -3.54     -1.68
    8    4   33      0.37     -1.46
    9    4   33     -1.35      0.53
    0    5   33      0.00      0.69
    1    5   33      0.48      1.57
    2    5   33     -2.25      2.95
    3    5   33     -3.28     -0.08
    4    5   33      3.45     -0.33
    5    5   33      0.69      0.53
    6    5   33     -1.25      4.21
    7    5   33     -2.14      0.63
    8    5   33     -1.80      1.81
    9    5   33     -1.59      2.93
    0    6   33     -2.47     -0.03
    1    6   33     -1.60     -1.29
    2    6   33     -0.44     -0.87
    3    6   33      0.93      1.68
    4    6   33     -0.39     -1.36
    5    6   33      3.74     -4.17
    6    6   33     -6.51     -2.01
    7    6   33      0.23     -2.01
    8    6   33     -0.26     -0.32
    0    7   33     -0.29     -0.05
    1    7   33     -2.70      0.62
    2    7   33      0.30      1.81
    3    7   33      1.41     -1.68
    4    7   33      0.78      0.08
    5    7   33     -2.19      0.67
    6    7   33     -4.59      2.08
    7    7   33     -1.20      0.35
    8    7   33     -1.57      0.75
    0    8   33      0.16     -0.04
    1    8   33     -4.00      0.54
    2    8   33     -2.46     -0.69
    3    8   33      1.72      1.70
    4    8   33     -1.69     -1.66
    5    8   33      1.16      0.23
    6    8   33     -2.17     -0.99
    7    8   33     -1.15      1.00
    8    8   33     -0.67      0.32
    0    9   33      0.17      2.19
    1    9   33      2.67      0.58
    2    9   33      0.01      1.55
    3    9   33     -0.05      0.22
    4    9   33      0.94      1.70
    5    9   33     -5.48      1.52
    6    9   33     -4.54     -0.44
    7    9   33      1.51      0.26
    0   10   33      1.50     -0.01
    1   10   33      1.34     -3.35
    2   10   33     -1.35      1.76
    3   10   33      0.34      2.54
    4   10   33     -1.48     -4.04
    5   10   33     -5.64      0.18
    6   10   33      4.63     -1.07
    7   10   33     -1.40      2.05
    0   11   33     -0.42      3.27
    1   11   33      3.55      2.45
    2   11   33      0.49     -1.83
    3   11   33      0.07      0.76
    4   11   33     -0.28     -3.00
    5   11   33     -3.26      1.59
    6   11   33     -2.26      2.53
    0   12   33      1.06      0.41
    1   12   33     -0.06     -1.44
    2   12   33      0.91     -2.65
    3   12   33      2.71      3.13
    4   12   33      1.45     -1.02
    5   12   33     -2.26      0.89
    6   12   33      0.19      1.07
    0   13   33      0.44      5.11
    1   13   33      2.74      1.86
    2   13   33     -0.50      1.84
    3   13   33     -0.67      2.04
    4   13   33     -1.69     -3.69
    5   13   33      0.36     -1.75
    0   14   33     -0.10      0.27
    1   14   33     -5.27      0.73
    2   14   33      4.08     -2.35
    3   14   33      0.70     -1.05
    4   14   33      0.88     -0.28
    0   15   33      0.07     -0.97
    1   15   33      2.55      2.41
    2   15   33     -0.70      2.78
    3   15   33      0.20      1.06
    0   16   33      1.67     -0.60
    0    0   34     -1.76     -0.11
    1    0   34     -0.17      0.03
    2    0   34     -0.57      0.05
    3    0   34      2.42     -0.03
    4    0   34     -7.00      0.02
    5    0   34      1.88      0.00
    6    0   34      1.42     -0.02
    7    0   34     -2.42     -0.07
    8    0   34     -0.60      0.04
    9    0   34     -1.10      0.08
    0    1   34      0.01     -4.11
    1    1   34     -0.51     -2.24
    2    1   34     -2.30      2.16
    3    1   34      1.11     -2.71
    4    1   34      2.69      0.24
    5    1   34      1.40      3.12
    6    1   34     -1.18     -0.57
    7    1   34     -1.97      0.82
    8    1   34      0.50      5.37
    9    1   34     -1.03     -1.54
    0    2   34      0.44      0.11
    1    2   34     -3.11      0.38
    2    2   34      0.32      0.25
    3    2   34      1.13     -3.17
    4    2   34     -2.94     -1.95
    5    2   34      2.45     -1.03
    6    2   34     -0.31      0.92
    7    2   34     -3.48      0.36
    8    2   34      0.75      1.72
    0    3   34      0.07      0.81
    1    3   34     -0.32      0.39
    2    3   34      0.53     -0.12
    3    3   34      1.08     -2.00
    4    3   34     -0.03     -2.50
    5    3   34     -0.11      0.18
    6    3   34      2.34     -0.76
    7    3   34     -3.19     -0.36
    8    3   34      0.44      2.41
    0    4   34      3.11     -0.07
    1    4   34      0.53     -2.72
    2    4   34     -1.66      0.95
    3    4   34     -1.47     -1.17
    4    4   34      2.16     -0.38
    5    4   34     -0.72     -1.12
    6    4   34      3.54     -1.15
    7    4   34     -0.03     -1.92
    8    4   34     -1.40      1.89
    0    5   34     -0.20      4.44
    1    5   34     -2.18     -0.37
    2    5   34      1.73     -2.77
    3    5   34      0.46      2.19
    4    5   34     -0.77     -1.50
    5    5   34     -2.07      0.15
    6    5   34      1.44      3.56
    7    5   34     -2.42     -2.62
    8    5   34     -2.47     -1.18
    0    6   34     -1.35     -0.39
    1    6   34     -0.30     -1.02
    2    6   34      1.77     -1.33
    3    6   34      4.72      0.81
    4    6   34     -0.39      1.34
    5    6   34      0.89     -2.01
    6    6   34      7.63     -1.27
    7    6   34      0.32     -2.15
    8    6   34     -2.57      2.00
    0    7   34      0.07      3.37
    1    7   34     -1.24      3.55
    2    7   34      3.20     -2.64
    3    7   34     -0.75      0.14
    4    7   34     -2.40     -3.82
    5    7   34      1.71     -4.40
    6    7   34      2.24     -0.82
    7    7   34     -0.34     -0.71
    8    7   34     -1.28     -0.78
    0    8   34     -4.32     -0.30
    1    8   34     -0.08     -0.41
    2    8   34      2.42     -0.67
    3    8   34      1.81      0.60
    4    8   34     -0.61     -4.43
    5    8   34      1.58     -0.41
    6    8   34      4.77     -1.30
    7    8   34      1.40     -1.38
    0    9   34      0.08      6.01
    1    9   34      1.17      1.38
    2    9   34      1.58      0.28
    3    9   34     -1.28      0.36
    4    9   34      0.25     -3.22
    5    9   34     -0.69     -0.46
    6    9   34      0.91     -2.93
    7    9   34     -0.74      0.34
    0   10   34      0.74     -0.54
    1   10   34      0.09      0.51
    2   10   34      1.93     -0.59
    3   10   34      0.04      0.58
    4   10   34      1.10     -3.98
    5   10   34      0.63     -1.14
    6   10   34      4.09     -0.83
    0   11   34      1.05      2.14
    1   11   34      0.34     -1.37
    2   11   34     -2.50      1.69
    3   11   34      1.52      1.00
    4   11   34      4.74     -2.90
    5   11   34     -2.10      0.19
    6   11   34     -0.08      2.44
    0   12   34     -2.06     -0.39
    1   12   34     -0.66     -1.98
    2   12   34     -1.79     -4.05
    3   12   34      4.21      4.81
    4   12   34     -0.99     -1.22
    5   12   34      0.15     -3.34
    0   13   34      3.03     -0.75
    1   13   34     -3.33     -0.48
    2   13   34     -1.50      1.22
    3   13   34      2.31      0.72
    4   13   34      0.39      1.21
    0   14   34     -3.22      2.22
    1   14   34     -1.83      1.25
    2   14   34     -1.09     -6.22
    3   14   34      2.09      3.09
    0   15   34      2.02     -0.19
    1   15   34     -2.04      1.52
    1    0   35     -0.04      2.74
    2    0   35      0.00      0.27
    3    0   35      0.01      3.99
    4    0   35      0.03     -3.75
    5    0   35      0.04      0.60
    6    0   35      0.00     -1.17
    7    0   35     -0.04     -3.50
    8    0   35      0.14      2.46
    0    1   35      0.19      1.28
    1    1   35      1.20      0.36
    2    1   35      1.36      2.46
    3    1   35     -1.42     -0.60
    4    1   35      0.28      0.77
    5    1   35      0.88     -0.08
    6    1   35      1.29     -0.25
    7    1   35     -1.87      0.10
    8    1   35      2.00     -1.45
    0    2   35      2.07     -2.00
    1    2   35     -1.19     -0.93
    2    2   35     -0.09     -1.87
    3    2   35      3.77      3.93
    4    2   35      2.89      4.55
    5    2   35     -5.11      1.99
    6    2   35      0.27     -1.89
    7    2   35      1.32     -1.34
    8    2   35      0.37     -0.20
    0    3   35      0.23      3.71
    1    3   35     -1.73     -4.05
    2    3   35      0.69      4.14
    3    3   35      0.00      1.45
    4    3   35      0.48     -0.13
    5    3   35      1.18      2.10
    6    3   35      0.80      0.22
    7    3   35     -2.61      0.20
    8    3   35      0.77     -1.86
    0    4   35      0.59     -1.10
    1    4   35     -2.11     -0.70
    2    4   35      1.22      1.30
    3    4   35      3.44      4.30
    4    4   35      0.29     -0.07
    5    4   35      1.68     -1.46
    6    4   35      5.34      1.28
    7    4   35     -1.19      1.44
    8    4   35      0.07     -0.03
    0    5   35     -0.07      2.66
    1    5   35     -2.84      1.48
    2    5   35     -1.51      1.09
    3    5   35     -0.47     -0.65
    4    5   35     -1.25     -1.55
    5    5   35     -3.07     -2.04
    6    5   35     -0.93      3.58
    7    5   35     -1.26      0.15
    8    5   35     -0.99     -1.25
    0    6   35      0.68      0.01
    1    6   35      1.42      1.74
    2    6   35      2.27      2.48
    3    6   35     -1.25      1.30
    4    6   35     -0.64     -1.37
    5    6   35      0.71     -0.03
    6    6   35      1.21      3.10
    7    6   35      1.99     -0.14
    0    7   35     -0.09      0.71
    1    7   35     -1.01      3.01
    2    7   35     -1.19      2.78
    3    7   35      3.98     -0.32
    4    7   35     -1.35      0.03
    5    7   35     -1.39     -2.81
    6    7   35     -1.24      6.15
    7    7   35      0.64      0.36
    0    8   35      2.94     -0.02
    1    8   35     -2.00     -1.52
    2    8   35     -1.21      1.44
    3    8   35      1.50     -0.95
    4    8   35      2.27     -0.49
    5    8   35      0.71      5.78
    6    8   35     -1.70      3.97
    7    8   35      1.16      0.54
    0    9   35      0.11     -1.80
    1    9   35     -1.80      1.73
    2    9   35     -0.01      5.41
    3    9   35      2.63     -0.92
    4    9   35     -3.41      0.95
    5    9   35     -0.63      1.29
    6    9   35     -0.95     -1.83
    0   10   35      0.11      0.06
    1   10   35     -0.79     -4.14
    2   10   35      0.66      1.95
    3   10   35      3.14      1.04
    4   10   35     -0.98     -1.09
    5   10   35      0.62      3.91
    6   10   35      2.09      2.11
    0   11   35     -0.10     -3.35
    1   11   35     -4.40      1.36
    2   11   35     -0.32      2.21
    3   11   35      4.09     -1.36
    4   11   35     -2.80      0.57
    5   11   35     -0.53      4.32
    0   12   35      1.62     -0.19
    1   12   35      0.06     -2.84
    2   12   35      1.40      0.99
    3   12   35      1.64     -0.17
    4   12   35     -1.51      1.98
    0   13   35      0.67     -1.49
    1   13   35     -0.13      2.96
    2   13   35     -0.93     -1.84
    3   13   35      0.92     -1.15
    0   14   35      2.46     -0.13
    1   14   35      0.77     -1.08
    2   14   35      1.94      1.17
    0    0   36     -3.00     -0.21
    1    0   36     -1.93      0.02
    2    0   36      1.10     -0.07
    3    0   36      0.28     -0.09
    4    0   36     -3.54     -0.03
    5    0   36      4.75     -0.06
    6    0   36      2.14      0.00
    7    0   36      0.21      0.21
    8    0   36      2.93      0.02
    0    1   36     -0.10     -0.35
    1    1   36      0.22     -0.53
    2    1   36     -2.88      1.20
    3    1   36     -1.42     -3.58
    4    1   36      2.98      4.20
    5    1   36      1.83      1.65
    6    1   36     -0.40     -1.28
    7    1   36      0.34      1.61
    0    2   36      1.67      0.03
    1    2   36     -3.69      0.68
    2    2   36      1.38      0.10
    3    2   36     -1.81      0.54
    4    2   36     -4.20     -2.96
    5    2   36      3.60     -1.53
    6    2   36      0.12      0.88
    7    2   36     -1.83      2.87
    0    3   36      0.22     -1.17
    1    3   36     -2.45      1.13
    2    3   36     -1.07      1.48
    3    3   36     -1.16      0.07
    4    3   36     -1.83     -2.72
    5    3   36     -4.00     -0.32
    6    3   36      1.32     -2.25
    7    3   36     -1.18      2.81
    0    4   36      3.86      0.22
    1    4   36      1.08      0.87
    2    4   36     -2.06      1.40
    3    4   36     -0.82     -0.09
    4    4   36     -2.86     -0.57
    5    4   36     -1.08      3.47
    6    4   36      1.88     -0.70
    7    4   36     -1.57      1.04
    0    5   36     -0.23     -0.97
    1    5   36     -2.38     -0.17
    2    5   36     -1.39     -1.98
    3    5   36      2.06     -2.05
    4    5   36     -0.46     -2.79
    5    5   36     -2.17      0.33
    6    5   36      1.93     -2.19
    7    5   36     -1.94     -0.77
    0    6   36      3.47      0.09
    1    6   36     -0.26      2.33
    2    6   36     -3.94     -1.69
    3    6   36      4.73      0.67
    4    6   36     -4.16      2.10
    5    6   36     -3.51      1.37
    6    6   36      2.30     -1.73
    7    6   36      0.03      0.19
    0    7   36     -0.25      1.35
    1    7   36     -1.98      2.74
    2    7   36     -0.77      0.31
    3    7   36     -0.74     -4.31
    4    7   36     -2.72     -1.22
    5    7   36      0.09     -2.05
    6    7   36     -0.08     -3.96
    0    8   36      1.51     -0.08
    1    8   36      0.73     -1.84
    2    8   36      2.54     -4.48
    3    8   36      1.11      2.01
    4    8   36     -4.75      0.43
    5    8   36     -3.34     -0.22
    6    8   36     -2.35     -1.53
    0    9   36     -0.33      1.82
    1    9   36      0.54      0.04
    2    9   36     -0.18     -1.09
    3    9   36     -1.43     -1.76
    4    9   36     -3.51     -1.23
    5    9   36     -0.47     -0.53
    0   10   36      3.25     -0.43
    1   10   36     -0.92     -0.31
    2   10   36      3.01      0.37
    3   10   36      0.54     -1.07
    4   10   36     -2.64     -2.12
    5   10   36     -0.92      0.77
    0   11   36     -0.56     -3.67
    1   11   36     -0.69      0.05
    2   11   36     -2.97      0.35
    3   11   36      1.62     -3.04
    4   11   36     -0.81     -1.20
    0   12   36      2.56     -2.04
    1   12   36     -3.68      1.13
    2   12   36      0.97      0.31
    3   12   36      1.56     -0.46
    0   13   36      0.81      0.90
    1   13   36     -0.26      0.27
    2   13   36     -4.70      2.32
    1    0   37      0.04     -1.48
    2    0   37     -0.03      1.64
    3    0   37      0.12      3.80
    4    0   37      0.00     -4.28
    5    0   37      0.05     -1.71
    6    0   37     -0.04      0.72
    7    0   37     -0.02      1.88
    0    1   37     -0.87     -2.46
    1    1   37      0.35     -0.14
    2    1   37      0.01      1.81
    3    1   37      3.72     -2.56
    4    1   37      0.14     -0.90
    5    1   37     -0.13      1.96
    6    1   37     -1.42      1.49
    7    1   37     -0.61      0.63
    0    2   37      3.67     -0.73
    1    2   37     -1.19      1.04
    2    2   37      2.72     -4.26
    3    2   37      2.78     -0.19
    4    2   37      0.56      2.51
    5    2   37     -3.70      0.52
    6    2   37     -0.99     -1.27
    7    2   37      2.81      1.97
    0    3   37     -1.35     -1.27
    1    3   37     -1.67     -2.86
    2    3   37      0.44      0.07
    3    3   37      1.95     -3.49
    4    3   37      1.61     -3.51
    5    3   37      2.80      1.68
    6    3   37     -0.72     -2.30
    7    3   37     -0.74     -0.19
    0    4   37      5.69     -0.32
    1    4   37     -2.83      3.99
    2    4   37     -0.36     -2.28
    3    4   37      2.63      1.07
    4    4   37     -0.92      2.57
    5    4   37     -0.39     -1.56
    6    4   37      2.66     -0.51
    7    4   37     -0.46      2.09
    0    5   37     -0.48     -0.57
    1    5   37      2.66      0.11
    2    5   37      3.05     -0.38
    3    5   37      0.87     -1.08
    4    5   37      0.79     -0.15
    5    5   37     -0.74     -1.57
    6    5   37      1.89     -1.94
    0    6   37      0.15     -0.02
    1    6   37      3.12      1.81
    2    6   37      1.80      0.95
    3    6   37     -0.86     -2.55
    4    6   37     -2.92      2.40
    5    6   37     -2.54     -0.72
    6    6   37      2.62      1.66
    0    7   37     -0.12     -2.96
    1    7   37     -0.49      0.60
    2    7   37      2.27     -0.09
    3    7   37     -0.37     -0.68
    4    7   37      0.68     -1.03
    5    7   37      3.17     -1.63
    6    7   37      1.34      2.77
    0    8   37      1.91     -0.11
    1    8   37      1.09      1.76
    2    8   37      4.82      0.68
    3    8   37      0.80     -3.48
    4    8   37      0.35      2.32
    5    8   37     -0.29      1.01
    0    9   37      0.10     -4.60
    1    9   37     -3.08      2.79
    2    9   37      3.82      3.52
    3    9   37     -0.49     -3.89
    4    9   37     -1.53     -1.20
    5    9   37      4.44     -0.09
    0   10   37     -3.87      0.07
    1   10   37     -1.39      2.71
    2   10   37      5.50      0.33
    3   10   37      0.60     -3.05
    4   10   37      0.88      3.25
    0   11   37     -0.32     -2.62
    1   11   37     -2.30      1.93
    2   11   37      2.32      0.02
    3   11   37      1.59     -3.46
    0   12   37     -4.72     -0.34
    1   12   37      0.83      3.56
    2   12   37      0.58     -0.19
    0    0   38      2.18     -0.08
    1    0   38     -0.06      0.05
    2    0   38     -0.19     -0.03
    3    0   38     -3.27     -0.09
    4    0   38      2.43      0.03
    5    0   38      3.13     -0.06
    6    0   38      0.55     -0.01
    0    1   38     -0.29     -0.77
    1    1   38      1.11      0.24
    2    1   38     -2.57     -0.42
    3    1   38     -1.36     -0.40
    4    1   38      1.85      5.89
    5    1   38      1.46     -1.87
    6    1   38      0.23     -1.43
    0    2   38      1.98     -0.04
    1    2   38     -1.52      0.10
    2    2   38      0.26      1.15
    3    2   38     -1.06      2.67
    4    2   38     -2.66     -1.94
    5    2   38      2.90     -0.65
    6    2   38     -0.52     -1.00
    0    3   38      0.32     -4.52
    1    3   38      1.70      1.55
    2    3   38      0.20      0.77
    3    3   38      1.30      1.00
    4    3   38     -1.33      2.55
    5    3   38      0.26     -1.43
    6    3   38      1.57     -2.03
    0    4   38     -3.48     -0.04
    1    4   38      1.26      2.73
    2    4   38     -0.63      2.48
    3    4   38     -1.49     -0.87
    4    4   38     -4.70      1.44
    5    4   38     -0.30      4.86
    6    4   38     -0.47     -2.47
    0    5   38      0.18     -0.89
    1    5   38      2.62      2.03
    2    5   38      0.09      2.69
    3    5   38      0.26     -1.67
    4    5   38      0.40      3.44
    5    5   38      2.13      3.82
    6    5   38      0.38     -0.17
    0    6   38     -0.66      0.22
    1    6   38      2.81      2.50
    2    6   38     -0.20      1.70
    3    6   38     -0.97     -1.63
    4    6   38     -1.67      2.13
    5    6   38     -1.90     -0.36
    0    7   38      0.07     -2.18
    1    7   38     -0.55      4.22
    2    7   38     -1.97      1.37
    3    7   38      1.46     -4.02
    4    7   38      0.97      3.16
    5    7   38      1.14      2.03
    0    8   38     -3.79      0.08
    1    8   38      0.93      1.43
    2    8   38      3.01     -1.07
    3    8   38     -1.16      3.41
    4    8   38     -1.97      3.07
    0    9   38      0.05     -1.25
    1    9   38     -0.73      2.16
    2    9   38     -2.35     -3.65
    3    9   38      0.08     -0.50
    4    9   38     -1.32      2.12
    0   10   38     -3.05      0.30
    1   10   38     -1.04      1.07
    2   10   38      0.40      1.46
    3   10   38     -2.04      0.58
    0   11   38     -1.22     -3.67
    1   11   38      0.68      2.52
    1    0   39     -0.01     -0.75
    2    0   39     -0.01      2.24
    3    0   39     -0.08     -0.47
    4    0   39     -0.03     -3.14
    5    0   39      0.02     -0.40
    0    1   39     -0.21     -2.44
    1    1   39     -0.31      0.50
    2    1   39     -0.79     -1.95
    3    1   39      2.48     -2.25
    4    1   39     -1.15      0.30
    5    1   39     -1.69      3.20
    0    2   39     -3.27      0.33
    1    2   39     -0.95      1.17
    2    2   39      3.47     -1.46
    3    2   39     -2.02     -3.99
    4    2   39     -1.83      1.04
    5    2   39     -0.64      0.64
    0    3   39     -0.65     -1.59
    1    3   39      2.82      0.57
    2    3   39     -4.92     -0.57
    3    3   39      0.03     -3.94
    4    3   39      2.82     -0.38
    5    3   39      1.02      3.90
    0    4   39      0.30      0.56
    1    4   39     -2.30     -0.81
    2    4   39     -2.22     -3.61
    3    4   39     -1.67      0.00
    4    4   39     -1.77     -0.78
    5    4   39     -0.43     -2.41
    0    5   39     -0.26     -1.63
    1    5   39      3.55     -0.50
    2    5   39     -2.20      1.92
    3    5   39     -1.63     -0.39
    4    5   39      2.01      1.33
    5    5   39     -4.01      0.63
    0    6   39     -0.98      0.16
    1    6   39      0.87     -0.82
    2    6   39      1.14     -2.47
    3    6   39     -1.14      0.67
    4    6   39     -0.03     -0.76
    0    7   39     -0.17     -1.53
    1    7   39      1.09     -1.43
    2    7   39      0.92     -3.53
    3    7   39     -3.80      1.27
    4    7   39      3.34      2.77
    0    8   39     -4.88     -0.05
    1    8   39      0.62      1.50
    2    8   39      1.50     -2.78
    3    8   39     -2.16      0.16
    0    9   39      0.01     -2.72
    1    9   39      1.40      1.27
    2    9   39      1.78     -2.53
    0   10   39     -5.28      0.19
    0    0   40      0.31     -0.02
    1    0   40      0.16      0.09
    2    0   40      0.56      0.04
    3    0   40     -1.02     -0.02
    4    0   40      5.26      0.02
    5    0   40      0.34     -0.01
    0    1   40     -0.17     -2.65
    1    1   40      1.01     -0.86
    2    1   40     -2.01      0.17
    3    1   40      0.15      0.09
    4    1   40     -0.21      2.35
    5    1   40      1.87     -1.77
    0    2   40     -0.86      0.12
    1    2   40     -0.08     -2.71
    2    2   40      0.53      0.41
    3    2   40     -0.27      2.47
    4    2   40      1.25     -1.65
    0    3   40      0.02      0.27
    1    3   40      0.48      0.52
    2    3   40      0.14      1.60
    3    3   40      1.42      0.07
    4    3   40     -0.13      4.01
    0    4   40     -3.01     -0.27
    1    4   40      1.95     -4.77
    2    4   40      2.13      0.27
    3    4   40     -0.11     -0.68
    4    4   40      1.69     -0.17
    0    5   40      0.08      3.38
    1    5   40      3.09     -2.13
    2    5   40      1.25      0.62
    3    5   40     -2.37     -0.67
    4    5   40      2.19      2.38
    0    6   40     -0.60      0.01
    1    6   40      5.05      0.09
    2    6   40      1.53      0.60
    3    6   40     -1.36      0.21
    0    7   40      0.03      1.24
    1    7   40      2.36      0.30
    2    7   40     -0.11     -1.52
    0    8   40     -3.91     -0.33
    1    8   40      2.55      0.03
    1    0   41      0.03     -0.60
    2    0   41     -0.08      1.22
    3    0   41     -0.21      1.35
    1    1   41     -0.20     -0.79
    2    1   41      1.31     -2.98
    3    1   41     -0.45     -0.51
    0    2   41     -1.87      0.19
    1    2   41      0.54     -0.19
    2    2   41     -1.27      2.62
    3    2   41     -2.22     -2.99
    0    3   41     -0.07      2.90
    1    3   41     -0.01      0.50
    2    3   41     -3.09     -1.41
    3    3   41     -2.17      0.07
    0    4   41      3.14      0.38
    1    4   41     -0.61     -1.70
    2    4   41      1.66      2.81
    3    4   41     -1.40      0.95
    0    5   41      0.16     -1.10
    1    5   41     -0.02     -0.13
    2    5   41     -2.37      2.01
    0    6   41     -1.13      0.20
    1    6   41     -1.04     -1.58
    1    0   42     -0.54      0.05
    2    0   42      0.29      0.13
    1    1   42     -0.63     -0.39
    2    1   42     -0.87     -2.40
    1    2   42      0.40     -2.05
    1    3   42     -4.56     -0.47
   14    0    0     -1.41      0.03
   12    1    0      1.21     -0.16
   13    1    0      0.01      0.06
   14    1    0     -0.64     -0.01
    0    2    0    158.20     -0.14
   12    2    0     -0.06      0.08
   13    2    0      0.04     -2.70
   14    2    0     -1.15      0.00
   12    3    0      1.80     -0.11
   13    3    0      0.01      0.53
   14    3    0      0.94     -0.02
    0    4    0     -0.32      0.05
   12    4    0      6.23      0.05
   13    4    0      0.00     -0.72
   14    4    0     -0.03     -0.08
   12    5    0      1.50     -0.05
   13    5    0      0.02      2.79
   14    5    0     -0.56     -0.02
   12    6    0      2.66     -0.07
   13    6    0     -0.01      0.44
   14    6    0      1.26     -0.05
   12    7    0      3.17      0.03
   13    7    0     -0.03      0.23
   14    7    0      0.48     -0.04
    0    8    0     -4.43     -0.23
   12    8    0     -0.61     -0.08
   13    8    0     -0.01     -0.71
   14    8    0      1.01     -0.01
   12    9    0     -1.15     -0.01
   13    9    0     -0.01      0.96
   14    9    0      1.01      0.05
   12   10    0     -4.72     -0.01
   13   10    0      0.02      0.90
   14   10    0      0.78     -0.02
   12   11    0     -2.94      0.06
   13   11    0     -0.02     -0.12
   12   12    0     -2.70      0.03
   13   12    0     -0.01     -0.21
   12   13    0     -0.92     -0.02
   13   13    0     -0.07      0.19
   12   14    0     -1.33      0.01
   12   15    0      2.28      0.01
   12   16    0     -0.64      0.02
   11   18    0      0.03     -1.36
    8   22    0      0.93     -0.03
    7   23    0     -0.01      0.79
   13    0    1      0.03      0.59
   14    0    1      0.01      1.47
   13    1    1     -1.81      0.77
   14    1    1      0.35     -1.34
   13    2    1     -0.45      0.05
   14    2    1     -0.91     -1.03
   13    3    1     -1.14      0.73
   14    3    1     -1.18      0.31
   13    4    1      0.20      0.54
   14    4    1      0.60     -2.31
   13    5    1     -1.24      1.19
   14    5    1     -1.25     -0.30
   13    6    1     -1.75      0.94
   14    6    1      0.67      0.40
   13    7    1     -1.41     -0.17
   14    7    1      0.62      0.36
   13    8    1      2.26     -0.17
   14    8    1      0.91      0.45
   12    9    1     -0.59      1.69
   13    9    1      0.82     -1.28
   14    9    1     -0.39     -0.04
    0   10    1     -8.95      0.09
   12   10    1     -0.14      3.43
   13   10    1     -0.59     -0.24
   14   10    1     -0.41      0.88
   12   11    1      2.01     -1.93
   13   11    1      0.68     -0.01
   12   12    1     -0.59      1.31
   13   12    1     -0.57     -0.73
   12   13    1     -0.28     -1.73
   13   13    1      0.51     -0.08
   12   14    1     -1.43     -1.50
   12   15    1     -1.26     -1.62
   12   16    1     -0.46     -1.74
   11   18    1     -1.94     -0.29
    8   22    1     -2.13     -1.89
    7   23    1      0.30     -1.90
    0    0    2    162.86     -0.13
   13    0    2     -0.82      0.07
   14    0    2      0.13     -0.01
   13    1    2     -1.79      0.49
   14    1    2     -1.00      1.17
   13    2    2     -0.13     -0.04
   14    2    2     -0.52     -0.47
   13    3    2     -1.21      0.03
   14    3    2      0.28      0.41
   13    4    2      1.47      0.95
   14    4    2      0.46     -0.65
    0    5    2      0.10     -3.14
   13    5    2     -0.28      0.54
   14    5    2     -0.07     -0.16
   13    6    2      0.55     -0.06
   14    6    2      1.47      1.02
   13    7    2     -0.32      0.05
   14    7    2      0.29     -0.88
   13    8    2      0.31     -0.59
   14    8    2      0.84     -0.35
    0    9    2     -0.02      3.27
   13    9    2      0.10     -0.79
   14    9    2      1.11     -0.46
   13   10    2     -0.24     -0.27
   14   10    2      0.04     -0.49
    0   11    2     -0.04      0.11
   13   11    2      0.66     -0.15
    0   12    2     -4.47      0.55
   13   12    2      0.20     -0.29
   12   13    2     -0.47      2.37
   13   13    2     -0.60     -0.17
   12   14    2     -0.08     -0.79
   12   15    2      0.81      1.33
   12   16    2      0.81     -2.11
    8   22    2     -1.27      1.16
    7   23    2      1.03      1.13
   13    0    3      0.05      2.46
   14    0    3      0.05      0.24
   13    1    3     -0.71      1.32
   14    1    3      0.69     -0.19
   13    2    3      1.41      2.27
   14    2    3     -1.26     -0.87
   13    3    3     -0.82     -0.90
   14    3    3     -1.73      1.22
   13    4    3      1.77      2.64
   14    4    3     -0.19      0.65
   13    5    3      0.19      1.49
   14    5    3     -0.18     -1.17
   13    6    3     -1.33      1.96
   14    6    3     -0.86      1.20
   13    7    3     -0.69     -2.42
   14    7    3      0.26     -1.29
   13    8    3      0.35     -0.65
   14    8    3      0.38     -0.26
   13    9    3      0.83     -1.16
   14    9    3      1.60     -0.02
   13   10    3     -1.31     -1.62
   14   10    3      0.13      1.33
   13   11    3      0.43      1.39
   13   12    3     -0.16     -0.40
   13   13    3      0.23      1.50
    0   14    3     -3.24     -0.14
    8   22    3     -1.37     -0.42
    1    0    4     37.60      0.14
   14    0    4      0.22     -0.03
    1    1    4    -59.95     -0.59
   14    1    4     -1.76      0.16
    1    2    4    -34.87    -45.34
   14    2    4      0.54      0.57
    1    3    4    -17.52     -6.95
   14    3    4      0.25      0.52
   14    4    4      0.41     -0.42
   13    5    4     -0.51      0.38
   14    5    4     -0.24     -0.34
    1    6    4     15.91     12.40
   13    6    4     -1.26      0.07
   14    6    4      0.39      1.34
   13    7    4     -1.23     -1.22
   14    7    4      1.11     -1.66
   13    8    4     -1.18     -1.51
   14    8    4     -0.57     -0.53
   13    9    4     -1.38      1.25
   14    9    4     -0.67      0.54
   13   10    4     -0.95     -1.24
   14   10    4      0.36      0.04
   13   11    4     -0.48      0.40
   13   12    4     -1.32     -0.28
   13   13    4     -0.66     -0.97
   10   19    4     -0.55     -0.27
    3   25    4     -1.01     -0.16
   14    0    5      0.09      0.19
   14    1    5     -0.87      0.05
   14    2    5      0.78     -1.39
   14    3    5     -1.28      1.75
   14    4    5      1.59      0.61
    1    5    5     15.33     16.36
   14    5    5      1.36      1.09
    1    6    5      0.61    -11.06
   14    6    5     -2.18      0.91
   14    7    5      0.54      0.47
   14    8    5      0.63     -1.76
    1    9    5     12.20      3.64
   14    9    5     -0.27     -0.39
   13   10    5      0.14     -2.28
   14   10    5      0.05     -0.78
   13   11    5      0.84      0.75
   13   12    5      0.87     -0.76
   13   13    5      0.02     -1.61
   10   19    5     -1.50      0.80
    5   24    5      0.30     -0.75
    3   25    5      0.38      0.36
   14    0    6     -1.07     -0.02
   14    1    6     -0.06     -0.37
   14    2    6      0.78      1.18
   14    3    6      1.10     -0.21
   14    4    6      1.88     -1.15
   14    5    6      1.16      0.20
    1    6    6      5.52      2.04
   14    6    6     -0.46      1.24
   14    7    6      0.35     -0.21
   14    8    6      0.04     -0.90
   14    9    6     -0.53      0.90
   13   13    6     -0.62     -0.55
   10   19    6     -0.46     -0.91
    5   24    6     -0.68      0.46
    3   25    6     -2.53     -0.03
    5    0    7     -0.02     10.24
   14    0    7     -0.01      1.22
    2    1    7     18.24     -2.33
    2    2    7    -14.89     -6.71
   14    2    7      1.53      0.74
    2    3    7      4.79    -14.38
   14    3    7     -2.35     -2.18
   14    4    7      3.04      0.91
    2    5    7     -4.84      4.61
   14    5    7      1.84      0.41
   14    6    7      0.12     -0.24
    1    7    7     -0.90      4.46
   14    7    7     -1.01     -0.18
   14    8    7      1.20      0.40
   14    9    7     -1.32     -1.06
   13   13    7      0.44     -0.28
   12   15    7     -0.77      0.36
   11   17    7      0.44     -0.02
   10   19    7     -0.80     -1.40
    5   24    7      1.00      0.74
    2   25    7      0.13     -2.02
    3   25    7     -0.61      0.40
    2    0    8     23.19      0.03
    2    1    8    -17.55    -12.86
    2    2    8     14.87     -6.60
    2    3    8      7.00     11.22
    2    4    8     11.12     15.06
    2    5    8     -0.38      9.01
   14    5    8     -0.01     -0.35
    1    6    8     -1.84     -8.47
    2    6    8    -10.24      5.27
   14    6    8      0.77      0.48
   14    7    8      0.06     -0.61
    2    8    8      1.54     -1.97
   14    8    8      0.28      0.79
    2    9    8     -5.99      1.65
   14    9    8     -1.19      0.74
   12   15    8      0.03     -1.65
   11   17    8      1.61      1.24
   10   19    8      0.22     -0.56
    9   20    8      0.48      1.62
    6   23    8      3.94     -0.50
    5   24    8      0.19      2.15
    2   25    8     -2.06      0.14
    7    0    9     -0.09     -0.77
    2    4    9     -4.83      2.05
    1    5    9     -3.02      4.89
    2    5    9     -4.00     -2.52
    2    7    9      8.18      6.77
   14    8    9     -0.68      0.77
    2   10    9     -1.11     -0.39
   13   12    9      0.83     -2.24
   12   15    9     -0.36     -0.46
   11   17    9      0.22     -2.02
    9   20    9      1.25     -0.16
    6   23    9     -0.67     -0.19
    0   25    9     -0.22      3.33
    1   25    9     -0.69      0.07
    2   25    9      0.71     -0.87
    3    1   10     -0.03     -8.96
    3    2   10      1.67      4.42
    2    3   10     10.28     -5.24
    3    3   10      0.85      6.50
    2    4   10     10.17      0.43
    3    4   10     -1.40      7.26
    0    6   10     -7.59     -0.16
    2    7   10      2.51     -0.41
   14    8   10      0.25      1.03
   13   12   10      0.83      2.37
    9   20   10      1.13     -1.29
    8   21   10     -0.46      0.83
    7   22   10      0.64     -1.54
    6   23   10      0.52      1.59
    4   24   10     -0.51      0.92
    0   25   10     -0.88      2.49
    1   25   10     -0.91      0.62
    3    1   11     -1.23     -2.00
    2    2   11      1.26     -2.48
    3    2   11      0.34      0.71
    3    3   11      3.81     -1.05
    1    4   11      7.20      6.25
    0    5   11     -0.10      4.33
    1    6   11      3.63      8.54
    3    6   11      2.68      0.11
   14    7   11     -0.13      0.72
    3    8   11     -3.47     -2.20
   14    8   11     -1.89      0.56
   12   14   11     -1.22     -0.73
   10   18   11     -0.55     -0.31
    8   21   11      0.17      0.43
    7   22   11     -0.49      0.11
    4   24   11      1.90     -1.78
    0   25   11      0.01      0.73
    0    5   12     -0.16      0.45
   14    7   12      2.31      0.48
   13   11   12      0.20      1.79
   12   14   12      2.57      2.35
   11   16   12      0.81      1.41
   10   18   12     -0.79     -2.62
    4    0   13     -0.02     -1.97
    1    2   13     -8.11     -3.51
   14    6   13     -0.24     -0.27
   14    7   13      0.54      1.47
   13   11   13      1.42     -1.51
   12   14   13     -0.62     -2.26
   11   16   13     -2.63     -0.86
    9   19   13      0.61      0.16
    5   23   13      0.33      0.16
    3   24   13      1.75     -0.25
    1    0   14     -1.27     -0.04
    4    2   14      5.81      1.44
    0    3   14      0.00     -4.23
    4    3   14      7.66     -2.39
    4    4   14     -4.40      0.39
   14    5   14     -0.73     -0.32
   14    6   14     -0.49     -0.96
    4    7   14     -1.98      2.70
   13   10   14      0.66      1.80
   12   13   14     -2.41      1.31
    9   19   14     -2.41      0.53
    8   20   14      1.15     -2.38
    6   22   14      0.93      1.87
    2   24   14     -0.83      0.02
   14    4   15     -0.83     -2.96
   14    5   15     -1.56      0.88
    3    6   15      6.37      5.10
    4    7   15      3.58     -0.06
    5    7   15     -0.56      2.78
   13   10   15     -1.21     -0.55
   12   13   15     -0.49     -0.48
   11   15   15      2.12      0.90
   10   17   15      0.06     -0.74
    8   20   15     -1.42     -1.82
    7   21   15      1.20      0.82
    6   22   15      1.90      0.23
    4   23   15      1.46     -1.40
    0   24   15     -2.83     -0.24
    1   24   15     -1.39     -1.76
    2   24   15      0.09     -0.86
   14    0   16     -2.01      0.03
   14    1   16     -0.21      0.01
    0    2   16      1.51      0.17
   14    2   16     -1.16     -0.86
   14    3   16     -0.05      2.04
   14    4   16     -1.98      1.75
    5    5   16     -1.91      1.60
    4    7   16      0.07      0.74
   13    9   16      3.07      0.34
   11   15   16     -1.76     -0.51
   10   17   16      0.37      0.09
    4   23   16      0.00     -0.37
    0   24   16     -0.77     -0.20
    2    0   17      0.04    -12.82
   14    0   17     -0.01     -0.33
   14    1   17      0.22      0.42
   14    2   17      0.91     -0.31
    5    3   17      0.04      0.31
    5    4   17     -1.38     -1.91
    6    4   17     -2.28      4.38
    5    6   17      0.68      0.16
    5    7   17      2.13     -0.34
    4    8   17      2.17     -1.89
   13    8   17      1.01     -3.62
   13    9   17      0.94      0.38
   12   12   17     -1.54      0.88
    9   18   17      0.71     -0.85
    5   22   17      0.57     -2.94
    3   23   17      0.77     -1.11
    5    0   18     11.75     -0.08
    1    2   18     -6.63     -6.95
    5    6   18      0.91     -1.65
    5    7   18     -1.16      1.58
   13    8   18     -0.31     -1.25
   11   14   18      0.57     -2.62
   10   16   18     -1.23      1.08
    8   19   18     -1.74      0.97
    7   20   18     -1.07     -0.91
    6   21   18      0.76     -0.84
    2   23   18     -1.12     -1.01
    5    3   19      1.56     -0.36
    5    4   19      0.97      0.08
    5    5   19     -3.42     -0.26
   13    7   19     -2.57     -1.25
   12   11   19     -1.47      0.78
    4   22   19     -0.21      1.09
    0   23   19     -0.17      0.83
    1   23   19     -0.68      0.80
   13    5   20      0.11      1.41
   13    6   20     -0.21      0.17
   12   10   20     -3.01      1.12
   11   13   20      0.18     -0.81
   10   15   20      2.01     -0.35
    9   17   20     -0.81     -0.81
    5   21   20     -0.03     -0.84
    3   22   20     -0.63      0.44
   13    4   21     -1.23      0.94
   13    5   21      1.01     -0.20
   12    9   21      0.91     -1.42
   10   15   21      0.15     -0.25
    8   18   21     -0.59     -0.24
    7   19   21     -1.23     -0.77
    6   20   21     -1.06      1.32
    2   22   21      1.36      3.33
    3   22   21      0.83     -0.58
   13    0   22     -0.44      0.00
   13    1   22      0.99      1.38
   13    2   22     -2.00      0.60
   13    3   22      2.19      1.07
   12    9   22      1.37      1.87
   11   12   22     -1.28     -1.48
   10   14   22     -2.77      0.62
    9   16   22      0.93     -1.74
    4   21   22     -1.74     -1.32
    0   22   22      0.78     -0.02
    1   22   22     -0.40      1.54
    2   22   22     -0.76      0.84
   12    7   23     -0.24      2.25
   12    8   23     -0.62     -0.45
   11   11   23     -1.74     -0.45
    8   17   23     -0.46     -1.03
    7   18   23     -0.14      2.23
    6   19   23      1.16      1.40
    5   20   23     -0.33     -0.81
    3   21   23     -1.82      0.29
   12    6   24      1.29      0.27
   12    7   24     -0.52      0.67
   11   10   24     -0.76     -1.89
   10   13   24      0.66      1.05
    9   15   24     -1.36     -0.78
    4   20   24     -0.62      1.29
    2   21   24      0.67      0.05
   12    4   25     -0.12     -0.34
   12    5   25      0.84      0.32
   11    9   25      2.25      2.14
   10   12   25      0.15     -0.30
    9   14   25     -1.31     -1.46
    8   16   25     -0.82      1.93
    7   17   25     -0.78     -0.07
    6   18   25      3.35     -2.05
    5   19   25     -0.48      1.37
    0   21   25      0.23      0.02
    1   21   25     -0.35      1.05
   12    0   26     -1.95     -0.06
   12    1   26     -1.11     -0.53
   12    2   26     -1.35     -0.61
   12    3   26      0.78      0.27
   11    8   26     -1.50      2.71
   10   11   26      0.86     -1.99
    8   15   26     -1.01     -0.16
    2   20   26      0.23     -0.79
    3   20   26     -0.70      1.10
   11    7   27     -0.52     -2.36
    9   13   27     -1.93      0.54
    7   16   27     -0.67      0.38
    6   17   27     -1.97     -0.15
    5   18   27      1.23      1.89
    4   19   27      0.79      0.80
    0   20   27      1.76     -0.18
    1   20   27      1.81     -0.86
   11    5   28     -1.44      0.69
   11    6   28      0.29      0.57
   10   10   28     -0.41      0.56
    9   12   28     -0.40      2.21
    8   14   28     -1.16      0.87
    4   18   28     -0.68     -1.52
    2   19   28     -0.78     -3.01
    3   19   28      1.81     -0.48
   11    2   29      2.11     -1.04
   11    3   29      1.58      0.56
   11    4   29      1.98      0.30
   10    8   29      0.54      0.65
    9   11   29     -0.73      3.01
    8   13   29      0.34      0.74
    7   15   29      1.53      0.22
    6   16   29     -0.89      0.15
    5   17   29      3.35     -1.06
    3   18   29     -0.58     -1.08
    0   19   29     -0.11     -2.28
    1   19   29      0.60     -2.31
   10    7   30      1.22     -0.75
    9   10   30     -1.18      1.83
    8   12   30     -0.35      3.29
    7   14   30     -0.11     -0.09
    6   15   30     -2.42      0.23
    5   16   30      1.99      1.15
    4   17   30      0.79      0.60
    2   18   30     -1.62      0.45
   10    5   31      0.50      0.21
   10    6   31     -0.82     -0.19
    9    9   31      0.16     -0.86
    8   11   31     -1.11     -1.41
    7   13   31      1.83      0.63
    3   17   31     -0.82      0.69
   10    0   32      0.90      0.02
   10    1   32      0.16     -3.10
   10    2   32      0.16     -0.53
   10    3   32     -1.36      1.78
    9    8   32      0.05      1.11
    8   10   32     -0.61      2.24
    7   12   32      0.79      0.21
    6   14   32      1.22      0.14
    5   15   32      2.29     -0.31
    0   17   32     -0.10     -1.43
    1   17   32     -1.50     -4.02
    9    6   33     -1.71      2.29
    8    9   33     -1.75      0.19
    7   11   33     -2.32     -0.53
    6   13   33      0.44      2.74
    5   14   33     -0.53     -1.35
    4   15   33     -1.92     -1.03
    1   16   33     -0.80      0.89
    2   16   33      2.18     -1.95
    9    2   34     -0.84      0.28
    9    3   34      0.55     -1.52
    9    4   34     -0.04     -0.48
    8    8   34      1.28      0.59
    7   10   34      2.49     -0.43
    6   12   34     -0.33      0.84
    5   13   34      0.46     -1.98
    4   14   34      0.55     -2.91
    2   15   34      0.33      1.40
    3   15   34      0.60     -0.93
    8    6   35      0.94      0.21
    7    9   35      2.38      1.05
    6   11   35     -1.16     -2.21
    5   12   35      0.15      0.45
    4   13   35     -0.55      0.08
    3   14   35      1.18     -1.51
    0   15   35     -0.48     -1.76
    8    1   36      1.44      0.30
    8    2   36      3.42     -0.40
    8    3   36      1.00      0.99
    8    4   36      0.21      2.55
    7    7   36     -1.31      0.64
    6    9   36     -0.81     -4.04
    5   11   36     -2.33     -0.73
    4   12   36     -0.53     -1.77
    3   13   36      3.78     -2.17
    0   14   36     -0.72     -0.56
    1   14   36     -1.71      2.51
    7    5   37      0.22      0.21
    6    8   37      0.37      0.78
    5   10   37      0.92      0.67
    4   11   37      0.92      0.44
    3   12   37      0.57     -2.07
    0   13   37      0.08     -0.96
    1   13   37     -1.21      0.05
    7    0   38      1.59      0.13
    7    1   38      0.13     -0.58
    7    2   38      0.85      0.02
    6    6   38     -0.48     -1.07
    5    8   38     -1.83      0.10
    4   10   38     -0.39     -0.05
    2   11   38      0.07     -1.06
    3   11   38     -0.24     -0.41
    0   12   38     -1.19     -0.43
    1   12   38     -0.89     -0.20
    6    0   39      0.04      1.03
    6    1   39     -0.27      1.01
    6    2   39      0.14      1.04
    6    3   39      0.46      0.54
    6    4   39     -0.22     -0.02
    5    6   39     -1.97     -1.30
    4    8   39     -1.04      0.66
    3    9   39     -2.19     -2.06
    1   10   39      0.01      1.40
    2   10   39      1.93     -3.04
    5    2   40     -0.37     -1.66
    5    3   40      0.30     -1.23
    5    4   40      0.34      1.13
    4    6   40      2.12      0.45
    3    7   40      0.73     -1.50
    2    8   40      2.04     -0.39
    3    8   40     -0.40     -0.79
    0    9   40      0.15      3.86
    1    9   40      2.05      2.14
    4    0   41     -0.02     -0.52
    0    1   41      0.13      1.86
    4    1   41     -0.08      1.55
    4    2   41      0.17     -0.23
    4    3   41     -0.01      0.22
    4    4   41      0.37     -1.19
    3    5   41     -0.16      1.96
    2    6   41      0.23     -0.17
    3    6   41      0.56      2.17
    0    7   41     -0.09      2.04
    1    7   41      1.72     -0.13
    2    7   41     -0.93     -1.61
    0    0   42     -1.89      0.02
    3    0   42     -0.75     -0.02
    0    1   42      0.04     -0.23
    3    1   42     -0.10      0.55
    0    2   42     -0.43      0.12
    2    2   42      1.07      0.36
    3    2   42     -1.37     -0.10
    0    3   42     -0.03      1.59
    2    3   42     -0.81     -0.42
    0    4   42     -0.07     -0.07
    1    4   42     -1.51     -0.98
    2    4   42      1.63      0.54
    0    5   42     -0.02      0.77
    1    5   42     -1.24     -2.13
    0    0    0      0.00      0.00
# SQUEEZE RESULTS
# Note: Data are Listed for all Voids in the P1 Unit Cell
# i.e. Centre of Gravity, Solvent Accessible Volume,
# Recovered number of Electrons in the Void and
# Details about the Squeezed Material
loop_
  _platon_squeeze_void_nr
  _platon_squeeze_void_average_x
  _platon_squeeze_void_average_y
  _platon_squeeze_void_average_z
  _platon_squeeze_void_volume
  _platon_squeeze_void_count_electrons
  _platon_squeeze_void_content
   1 -0.027  0.250  0.000       841       260 ' '
   2 -0.022 -0.250  0.500       841       259 ' '
   3  0.033  0.760  0.226         7         1 ' '
   4  0.467  0.240  0.726         7         1 ' '
   5  0.533  0.740  0.774         7         1 ' '
   6  0.967  0.260  0.274         7         1 ' '
_platon_squeeze_details
(replace by semicolon in column 1 when used as .sqf)
TITL P212121 in P2(1)2(1)2(1)
CELL   11.6274   19.6630   32.6780     90.00     90.00     90.00
SPGR P212121
# Solvent Accessible Volume =    1723.7
# Electrons Found in S.A.V. =     523.3
# Note: Atoms in Void as Cxxx and Qxxx all others
C101 0.937 0.343 0.541 !       3.96 eA-3
C102 0.676 0.736 0.559 !       2.94 eA-3
C103 0.921 0.501 0.110 !       2.72 eA-3
C104 0.983 0.073 0.362 !       2.34 eA-3
C105 0.716 0.945 0.373 !       2.34 eA-3
C106 0.814 0.935 0.940 !       2.29 eA-3
C107 0.230 0.575 0.614 !       2.27 eA-3
C108 0.734 0.981 0.940 !       2.13 eA-3
C109 0.718 0.581 0.091 !       2.10 eA-3
C110 0.784 0.447 0.591 !       2.09 eA-3
Q111 0.937 0.359 0.710 !       2.05 eA-3
C112 0.467 1.002 0.875 !       2.01 eA-3
Q113 0.780 0.282 0.372 !       1.97 eA-3
C114 0.938 0.983 0.392 !       1.95 eA-3
Q115 0.894 0.380 0.515 !       1.93 eA-3
Q116 0.780 0.895 0.793 !       1.92 eA-3
C117 0.500 0.505 0.592 !       1.92 eA-3
C118 0.222 0.628 0.567 !       1.91 eA-3
C119 0.188 0.939 0.417 !       1.89 eA-3
C120 0.777 0.919 0.423 !       1.89 eA-3
C121 0.688 0.921 0.432 !       1.85 eA-3
Q122 0.231 0.750 0.129 !       1.85 eA-3
C123 0.736 0.613 0.069 !       1.81 eA-3
Q124 0.893 0.381 0.693 !       1.81 eA-3
C125 0.142 0.569 0.618 !       1.80 eA-3
C126 0.829 0.980 0.934 !       1.78 eA-3
Q127 0.453 0.421 0.098 !       1.75 eA-3
C128 0.296 0.517 0.086 !       1.74 eA-3
C129 0.170 0.516 0.135 !       1.74 eA-3
C130 0.736 0.015 0.453 !       1.63 eA-3
C131 0.704 0.221-0.002 !       1.63 eA-3
C132 0.844 0.533 0.134 !       1.60 eA-3
C133 0.037 0.963 0.385 !       1.59 eA-3
C134 0.907 0.454 0.096 !       1.58 eA-3
C135 0.737 0.038 0.898 !       1.57 eA-3
C136 0.326 0.395 0.635 !       1.56 eA-3
Q137 0.233 0.628 0.133 !       1.56 eA-3
Q138 0.313 0.076 0.376 !       1.55 eA-3
C139 0.077 0.552 0.148 !       1.55 eA-3
C140 0.234 0.802 0.437 !       1.54 eA-3
C141 0.874 0.089 0.912 !       1.53 eA-3
C142 0.422 0.945 0.875 !       1.52 eA-3
C143 0.096 0.540 0.608 !       1.51 eA-3
C144 0.278 0.471 0.074 !       1.51 eA-3
Q145 0.986 0.726 0.229 !       1.51 eA-3
Q146 0.172 0.226 0.937 !       1.50 eA-3
Q147 0.196 0.761 0.141 !       1.49 eA-3
Q148 0.031 0.832 0.605 !       1.46 eA-3
Q149 0.732 0.348 0.630 !       1.44 eA-3
Q150 0.548 0.345 0.672 !       1.43 eA-3
C151 0.246 0.577 0.552 !       1.42 eA-3
Q152 0.945 0.390 0.062 !       1.41 eA-3
Q153 0.628 0.918 0.462 !       1.41 eA-3
C154 0.642 0.496 0.588 !       1.41 eA-3
Q155 0.109 0.435 0.628 !       1.39 eA-3
C156 0.018 0.560 0.613 !       1.39 eA-3
C157 0.877 0.981 0.896 !       1.39 eA-3
Q158 0.753 0.467 0.069 !       1.39 eA-3
C159 0.534 0.717 0.551 !       1.37 eA-3
C160 0.780 0.988 0.451 !       1.36 eA-3
C161 0.174 0.434 0.101 !       1.35 eA-3
Q162 0.466 0.180 0.078 !       1.35 eA-3
C163 0.783 0.058 0.967 !       1.32 eA-3
C164 0.921 0.969 0.890 !       1.32 eA-3
Q165 0.810 0.479 0.617 !       1.31 eA-3
C166 0.703 0.947 0.841 !       1.31 eA-3
Q167 0.919 0.442 0.618 !       1.31 eA-3
Q168 0.111 0.393 0.024 !       1.30 eA-3
C169 0.673 0.608 0.049 !       1.30 eA-3
Q170 0.218 0.339 0.952 !       1.29 eA-3
C171 0.657 0.535 0.090 !       1.29 eA-3
C172 0.346 0.133 0.957 !       1.29 eA-3
C173 0.610 1.006 0.855 !       1.28 eA-3
Q174 0.056 0.820 0.109 !       1.28 eA-3
Q175 0.330 0.671 0.555 !       1.28 eA-3
C176 0.330 0.981 0.888 !       1.27 eA-3
Q177 0.138 0.658 0.113 !       1.27 eA-3
Q178 0.345 0.092 0.899 !       1.27 eA-3
Q179 0.270 0.066 0.253 !       1.25 eA-3
C180 0.378 0.453 0.064 !       1.24 eA-3
C181 0.311 0.612 0.560 !       1.22 eA-3
C182 0.829 0.978 0.380 !       1.21 eA-3
C183 0.190 0.404 0.045 !       1.21 eA-3
C184 0.497 0.551 0.073 !       1.20 eA-3
C185 0.406 0.567 0.615 !       1.19 eA-3
Q186 0.252 0.758 0.508 !       1.18 eA-3
Q187 0.205 0.153 0.437 !       1.18 eA-3
Q188 0.047 0.357 0.904 !       1.18 eA-3
C189 0.403 0.440 0.704 !       1.17 eA-3
Q190 0.590 0.454 0.562 !       1.17 eA-3
C191 0.376 0.920 0.855 !       1.17 eA-3
C192 0.672 0.342 0.650 !       1.16 eA-3
C193 0.061 0.483 0.144 !       1.16 eA-3
Q194 0.923 0.082 0.935 !       1.15 eA-3
C195 0.894 0.973 0.414 !       1.15 eA-3
C196 0.641 0.084 0.913 !       1.15 eA-3
C197 0.390 0.946 0.841 !       1.14 eA-3
Q198 0.625 0.947 0.265 !       1.13 eA-3
C199 0.825 0.019 0.878 !       1.13 eA-3
(replace by semicolon in column 1 when used as .sqf)
;
_olex2_submission_special_instructions 'No special instructions were received'
loop_
_space_group_symop_operation_xyz
'x, y, z'
'-x+1/2, -y, z+1/2'
'x+1/2, -y+1/2, -z'
'-x, y+1/2, -z+1/2'
loop_
_atom_site_label
_atom_site_type_symbol
_atom_site_fract_x
_atom_site_fract_y
_atom_site_fract_z
_atom_site_U_iso_or_equiv
_atom_site_adp_type
_atom_site_occupancy
_atom_site_site_symmetry_order
_atom_site_calc_flag
_atom_site_refinement_flags_posn
_atom_site_refinement_flags_adp
C47 C 0.9402(11) 1.4622(8) 0.4417(5) 0.051(4) Uani 1 1 d . .
C3 C 0.9142(15) 0.5346(9) -0.0237(5) 0.063(4) Uani 1 1 d . U
C7 C 1.0017(15) 0.6141(9) 0.0256(5) 0.068(5) Uani 1 1 d . .
H7 H 1.0562 0.5807 0.0313 0.081 Uiso 1 1 calc R .
C46 C 0.7995(14) 0.9287(9) 0.1997(5) 0.066(4) Uani 1 1 d . U
H46 H 0.7851 0.9719 0.2101 0.079 Uiso 1 1 calc R .
C5 C 0.8634(13) 0.4563(8) -0.0778(4) 0.052(3) Uani 1 1 d . .
H5 H 0.8288 0.4503 -0.1032 0.063 Uiso 1 1 calc R .
C64 C -0.0352(15) 1.1143(10) 0.2077(6) 0.075(5) Uani 1 1 d . .
C44 C 0.842(2) 0.8073(11) 0.1694(7) 0.101(7) Uani 1 1 d . .
H44 H 0.8501 0.7640 0.1583 0.121 Uiso 1 1 calc R .
C63 C 0.0654(15) 1.0913(11) 0.2303(8) 0.081(6) Uani 1 1 d . U
C62 C 0.4213(10) 1.1407(5) 0.2991(3) 0.028(2) Uani 1 1 d . U
C31 C 0.1730(12) 0.9059(8) 0.2996(4) 0.053(4) Uani 1 1 d . .
C9 C 0.9281(11) 0.7251(7) 0.0365(4) 0.045(3) Uani 1 1 d . .
C10 C 0.8523(13) 0.6502(7) -0.0117(4) 0.053(4) Uani 1 1 d . .
H10 H 0.7966 0.6439 -0.0318 0.063 Uiso 1 1 calc R .
C69 C -0.0557(14) 1.0957(9) 0.1637(6) 0.070(5) Uani 1 1 d . .
H69 H -0.0024 1.0694 0.1496 0.084 Uiso 1 1 calc R .
C37 C 0.4735(16) 0.8503(9) 0.2807(6) 0.080(5) Uani 1 1 d . .
H37 H 0.4224 0.8152 0.2864 0.096 Uiso 1 1 calc R .
C45 C 0.8793(17) 0.9192(10) 0.1678(5) 0.074(5) Uani 1 1 d . U
H45 H 0.9159 0.9567 0.1563 0.089 Uiso 1 1 calc R .
C35 C 0.3552(13) 0.9261(8) 0.3247(5) 0.060(4) Uani 1 1 d . .
H35 H 0.3744 0.9647 0.3423 0.072 Uiso 1 1 calc R .
C42 C 0.7439(13) 0.8733(8) 0.2150(5) 0.057(4) Uani 1 1 d . .
C8 C 1.0124(14) 0.6757(7) 0.0480(5) 0.057(4) Uani 1 1 d . .
H8 H 1.0680 0.6830 0.0680 0.069 Uiso 1 1 calc R .
C39 C 0.6488(13) 0.8859(8) 0.2493(5) 0.059(4) Uani 1 1 d . .
C67 C -0.2403(13) 1.1498(7) 0.1638(5) 0.052(3) Uani 1 1 d . .
C22 C 0.4728(16) 1.0382(9) 0.1926(5) 0.073(5) Uani 1 1 d . .
H22 H 0.4954 1.0791 0.2044 0.088 Uiso 1 1 calc R .
C56 C 0.6909(9) 1.2350(6) 0.3528(3) 0.077(4) Uani 1 1 d . U
C57 C 0.6043(11) 1.2100(6) 0.3780(3) 0.082(5) Uani 1 1 d G U
H57 H 0.6094 1.2156 0.4062 0.099 Uiso 1 1 calc R .
C58 C 0.5102(9) 1.1768(7) 0.3611(3) 0.096(7) Uani 1 1 d G .
H58 H 0.4522 1.1601 0.3779 0.115 Uiso 1 1 calc R .
C59 C 0.5027(8) 1.1685(6) 0.3189(3) 0.067(4) Uani 1 1 d G U
C60 C 0.5893(10) 1.1934(7) 0.2937(3) 0.090(6) Uani 1 1 d G U
H60 H 0.5843 1.1879 0.2655 0.108 Uiso 1 1 calc R .
C61 C 0.6834(9) 1.2267(7) 0.3107(3) 0.108(7) Uani 1 1 d G U
H61 H 0.7414 1.2433 0.2938 0.129 Uiso 1 1 calc R .
C40 C 0.6402(16) 0.9445(9) 0.2689(5) 0.075(5) Uani 1 1 d . .
H40 H 0.6969 0.9772 0.2648 0.090 Uiso 1 1 calc R .
C6 C 0.9213(14) 0.5978(8) -0.0031(4) 0.054(4) Uani 1 1 d . .
C43 C 0.7636(16) 0.8143(11) 0.2016(6) 0.080(5) Uani 1 1 d . .
H43 H 0.7272 0.7766 0.2129 0.096 Uiso 1 1 calc R .
C11 C 0.7761(16) 0.7738(10) -0.0015(6) 0.079(6) Uani 1 1 d . .
H11A H 0.7797 0.7897 -0.0296 0.095 Uiso 1 1 calc R .
H11B H 0.6969 0.7647 0.0060 0.095 Uiso 1 1 calc R .
C68 C -0.1545(17) 1.1181(10) 0.1443(7) 0.093(7) Uani 1 1 d . .
H68 H -0.1617 1.1107 0.1163 0.112 Uiso 1 1 calc R .
C23 C 0.5388(16) 1.0094(7) 0.1636(5) 0.063(4) Uani 1 1 d . .
H23 H 0.6036 1.0331 0.1550 0.076 Uiso 1 1 calc R .
C24 C -0.1976(10) 0.7251(8) 0.3993(3) 0.112(7) Uani 1 1 d . U
H24 H -0.2006 0.7152 0.4271 0.134 Uiso 1 1 calc R .
C27 C -0.1008(9) 0.7564(7) 0.3829(3) 0.092(6) Uani 1 1 d G .
H27 H -0.0390 0.7674 0.3997 0.111 Uiso 1 1 calc R .
C28 C -0.0963(8) 0.7712(6) 0.3413(3) 0.070(5) Uani 1 1 d G .
C26 C -0.1886(10) 0.7548(7) 0.3162(3) 0.092(7) Uani 1 1 d G .
H26 H -0.1857 0.7648 0.2884 0.110 Uiso 1 1 calc R .
C25 C -0.2855(8) 0.7236(6) 0.3326(3) 0.075(5) Uani 1 1 d G U
H25 H -0.3472 0.7126 0.3157 0.090 Uiso 1 1 calc R .
N8 N -0.2899(8) 0.7087(7) 0.3741(3) 0.087(5) Uani 1 1 d G U
C66 C -0.2268(18) 1.1690(13) 0.2012(7) 0.106(8) Uani 1 1 d . .
H66 H -0.2817 1.1970 0.2133 0.127 Uiso 1 1 calc R .
C41 C 0.5461(13) 0.9601(11) 0.2967(5) 0.080(5) Uani 1 1 d . .
H41 H 0.5420 1.0005 0.3115 0.096 Uiso 1 1 calc R .
C54 C 1.001(2) 1.7000(10) 0.5428(8) 0.101(7) Uani 1 1 d . U
C2 C 0.966(3) 0.4718(10) -0.0024(8) 0.127(9) Uani 1 1 d . U
H2 H 0.9925 0.4726 0.0244 0.152 Uiso 1 1 calc R .
C32 C 0.0666(15) 0.9057(12) 0.2772(5) 0.083(6) Uani 1 1 d . .
H32 H 0.0541 0.9321 0.2540 0.099 Uiso 1 1 calc R .
C4 C 0.8551(13) 0.5193(8) -0.0598(5) 0.057(4) Uani 1 1 d . .
H4 H 0.8093 0.5524 -0.0720 0.068 Uiso 1 1 calc R .
C65 C -0.1209(17) 1.1465(12) 0.2262(6) 0.091(6) Uani 1 1 d . .
H65 H -0.1171 1.1554 0.2542 0.110 Uiso 1 1 calc R .
C29 C -0.0026(14) 0.8174(10) 0.3261(5) 0.069(5) Uani 1 1 d . .
C36 C 0.4601(13) 0.9082(8) 0.2994(5) 0.060(4) Uani 1 1 d . .
C33 C -0.0139(15) 0.8632(9) 0.2931(6) 0.074(5) Uani 1 1 d . .
H33 H -0.0858 0.8645 0.2806 0.089 Uiso 1 1 calc R .
C51 C 0.9757(13) 1.6418(5) 0.5139(4) 0.093(6) Uani 1 1 d . .
C50 C 0.9121(14) 1.5881(6) 0.5298(4) 0.127(11) Uani 1 1 d G .
H50 H 0.8785 1.5919 0.5555 0.152 Uiso 1 1 calc R .
C49 C 0.8986(12) 1.5287(5) 0.5073(4) 0.103(8) Uani 1 1 d G U
H49 H 0.8560 1.4928 0.5179 0.124 Uiso 1 1 calc R .
C48 C 0.9488(12) 1.5230(5) 0.4688(3) 0.066(4) Uani 1 1 d G U
C53 C 1.0124(13) 1.5767(6) 0.4529(3) 0.109(8) Uani 1 1 d G U
H53 H 1.0460 1.5729 0.4272 0.131 Uiso 1 1 calc R .
C52 C 1.0259(13) 1.6361(5) 0.4755(4) 0.089(6) Uani 1 1 d G .
H52 H 1.0685 1.6720 0.4648 0.107 Uiso 1 1 calc R .
C70 C -0.3518(15) 1.1672(8) 0.1417(7) 0.070(5) Uani 1 1 d . .
C1 C 0.969(3) 0.4145(10) -0.0264(7) 0.128(9) Uani 1 1 d . U
H1 H 1.0136 0.3782 -0.0171 0.154 Uiso 1 1 calc R .
C15 C 0.5990(9) 0.8475(4) 0.1118(3) 0.088(6) Uani 1 1 d . .
H15 H 0.5524 0.8211 0.1285 0.106 Uiso 1 1 calc R .
C16 C 0.5976(8) 0.9180(5) 0.1154(3) 0.049(3) Uani 1 1 d G .
C17 C 0.6674(9) 0.9575(3) 0.0903(3) 0.069(5) Uani 1 1 d G .
H17 H 0.6665 1.0046 0.0927 0.083 Uiso 1 1 calc R .
C18 C 0.7386(9) 0.9265(4) 0.0617(3) 0.064(4) Uani 1 1 d G .
H18 H 0.7853 0.9530 0.0449 0.077 Uiso 1 1 calc R .
C13 C 0.7400(9) 0.8561(4) 0.0581(3) 0.049(3) Uani 1 1 d G .
C14 C 0.6702(10) 0.8166(3) 0.0831(3) 0.072(5) Uani 1 1 d G .
H14 H 0.6712 0.7695 0.0807 0.086 Uiso 1 1 calc R .
C34 C 0.3025(13) 0.8723(9) 0.3500(5) 0.062(4) Uani 1 1 d . .
H34A H 0.2940 0.8873 0.3781 0.074 Uiso 1 1 calc R .
H34B H 0.3487 0.8313 0.3495 0.074 Uiso 1 1 calc R .
C12 C 0.8315(16) 0.8203(8) 0.0266(5) 0.065(4) Uani 1 1 d . .
H12 H 0.8677 0.8564 0.0104 0.078 Uiso 1 1 calc R .
C30 C 0.1039(15) 0.8134(11) 0.3458(5) 0.073(5) Uani 1 1 d . .
H30 H 0.1191 0.7829 0.3669 0.087 Uiso 1 1 calc R .
C38 C 0.5633(14) 0.8386(10) 0.2519(8) 0.100(7) Uani 1 1 d . .
H38 H 0.5636 0.8001 0.2354 0.120 Uiso 1 1 calc R .
C19 C 0.5185(14) 0.9510(8) 0.1467(4) 0.056(4) Uani 1 1 d . .
C20 C 0.4213(14) 0.9195(9) 0.1597(5) 0.069(5) Uani 1 1 d . .
H20 H 0.4008 0.8777 0.1486 0.083 Uiso 1 1 calc R .
C21 C 0.3505(15) 0.9497(11) 0.1901(5) 0.078(5) Uani 1 1 d . .
H21 H 0.2857 0.9269 0.1996 0.094 Uiso 1 1 calc R .
Cd1 Cd 0.97405(9) 1.34190(5) 0.40176(3) 0.0520(3) Uani 1 1 d . U
Cd3 Cd 1.03571(10) 1.80643(5) 0.59522(4) 0.0613(3) Uani 1 1 d . U
Cd2 Cd 0.26441(9) 1.04665(6) 0.25984(3) 0.0562(3) Uani 1 1 d . U
N5 N 0.9038(12) 0.8557(8) 0.1534(4) 0.059(3) Uani 1 1 d . U
N3 N 0.9190(10) 0.7879(5) 0.0498(4) 0.050(3) Uani 1 1 d . .
N6 N 0.2630(11) 0.9484(8) 0.2946(4) 0.070(4) Uani 1 1 d . .
N2 N 0.8573(11) 0.7103(6) 0.0062(4) 0.053(3) Uani 1 1 d . .
N7 N 0.1871(10) 0.8603(7) 0.3307(4) 0.059(3) Uani 1 1 d . .
N4 N 0.3761(12) 1.0088(6) 0.2046(4) 0.060(3) Uani 1 1 d . .
N1 N 0.9141(14) 0.4068(7) -0.0624(5) 0.079(4) Uani 1 1 d . U
O11 O -0.3558(11) 1.1513(7) 0.1052(4) 0.088(4) Uani 1 1 d . .
O6 O -0.4280(11) 1.1958(7) 0.1590(5) 0.093(4) Uani 1 1 d . .
O3 O 0.9700(13) 1.4594(7) 0.4096(4) 0.090(4) Uani 1 1 d . .
O9 O 0.0929(17) 1.1170(11) 0.2597(6) 0.138(7) Uani 1 1 d . .
O7 O 0.3492(12) 1.0953(9) 0.3179(4) 0.110(5) Uani 1 1 d . U
O8 O 0.3911(11) 1.1373(7) 0.2626(4) 0.084(3) Uani 1 1 d . U
O10 O 0.1227(13) 1.0481(11) 0.2143(6) 0.137(7) Uani 1 1 d . U
O4 O 0.9050(11) 1.4091(6) 0.4603(4) 0.081(4) Uani 1 1 d . .
O2 O 0.986(3) 1.6991(8) 0.5784(7) 0.217(15) Uani 1 1 d . .
O1 O 1.054(2) 1.7485(7) 0.5270(5) 0.130(6) Uani 1 1 d . U
C55 C 0.7839(11) 1.2651(6) 0.3695(4) 0.036(2) Uani 1 1 d D U
O5 O 0.7963(11) 1.2814(8) 0.4041(4) 0.108(4) Uani 1 1 d D U
O12 O 0.8727(12) 1.2768(10) 0.3518(4) 0.127(5) Uani 1 1 d D U
loop_
_atom_site_aniso_label
_atom_site_aniso_U_11
_atom_site_aniso_U_22
_atom_site_aniso_U_33
_atom_site_aniso_U_23
_atom_site_aniso_U_13
_atom_site_aniso_U_12
C47 0.027(7) 0.058(9) 0.069(10) -0.025(8) 0.007(7) 0.003(6)
C3 0.061(10) 0.060(8) 0.067(10) 0.015(8) 0.015(8) 0.002(8)
C7 0.069(12) 0.060(10) 0.074(10) 0.012(8) -0.027(9) 0.000(8)
C46 0.060(10) 0.061(10) 0.076(11) -0.007(9) 0.008(8) 0.013(8)
C5 0.057(9) 0.050(8) 0.050(8) -0.014(7) 0.004(7) -0.012(8)
C64 0.048(9) 0.087(12) 0.092(12) 0.017(11) -0.003(10) 0.023(10)
C44 0.136(19) 0.063(11) 0.105(15) -0.029(12) 0.041(14) -0.039(13)
C63 0.042(9) 0.080(12) 0.121(17) 0.050(12) 0.013(9) 0.003(8)
C62 0.028(2) 0.027(2) 0.028(2) 0.0001(13) 0.0000(13) 0.0022(13)
C31 0.034(8) 0.074(10) 0.049(8) 0.012(8) 0.015(6) -0.009(7)
C9 0.034(7) 0.057(8) 0.044(7) -0.001(7) -0.010(6) -0.005(6)
C10 0.049(8) 0.053(8) 0.056(8) 0.002(7) -0.007(7) -0.007(7)
C69 0.051(10) 0.064(10) 0.095(13) -0.020(10) -0.025(9) 0.017(8)
C37 0.078(11) 0.069(11) 0.095(12) 0.009(10) 0.057(10) -0.018(10)
C45 0.088(13) 0.070(9) 0.063(10) -0.002(9) 0.019(8) -0.017(10)
C35 0.040(8) 0.062(10) 0.078(11) -0.004(9) -0.009(8) 0.000(7)
C42 0.041(8) 0.061(9) 0.069(9) -0.005(8) 0.010(8) 0.000(8)
C8 0.063(10) 0.035(7) 0.074(9) 0.000(7) 0.004(8) 0.014(7)
C39 0.052(9) 0.051(8) 0.074(10) -0.005(8) 0.004(8) -0.007(7)
C67 0.043(8) 0.049(8) 0.064(9) 0.017(7) 0.013(7) 0.018(7)
C22 0.078(11) 0.059(9) 0.082(11) -0.017(9) 0.056(10) -0.018(10)
C56 0.076(9) 0.058(10) 0.097(10) -0.004(9) -0.002(8) 0.001(8)
C57 0.088(12) 0.057(10) 0.102(12) -0.003(10) -0.001(10) -0.024(9)
C58 0.079(14) 0.112(17) 0.098(14) 0.028(13) -0.003(11) -0.026(12)
C59 0.069(10) 0.069(10) 0.062(8) 0.023(8) -0.004(6) 0.000(7)
C60 0.061(10) 0.147(17) 0.063(10) -0.017(11) -0.006(8) -0.026(11)
C61 0.093(14) 0.138(18) 0.092(9) -0.021(13) -0.018(10) -0.043(13)
C40 0.082(12) 0.059(10) 0.082(12) -0.026(9) 0.019(10) -0.013(9)
C6 0.066(10) 0.046(8) 0.049(8) -0.006(7) 0.001(8) 0.002(7)
C43 0.073(12) 0.083(13) 0.085(12) -0.008(10) 0.020(10) -0.017(11)
C11 0.073(11) 0.097(14) 0.068(10) -0.043(10) -0.005(10) 0.024(11)
C68 0.075(13) 0.070(12) 0.135(18) -0.008(13) -0.050(13) 0.005(11)
C23 0.075(11) 0.043(8) 0.071(10) 0.004(7) 0.003(9) -0.007(9)
C24 0.054(10) 0.148(18) 0.133(14) 0.050(15) -0.001(10) -0.034(11)
C27 0.055(11) 0.123(17) 0.099(14) 0.036(13) 0.008(10) 0.004(12)
C28 0.081(12) 0.061(10) 0.069(11) 0.014(9) -0.020(10) -0.004(10)
C26 0.072(13) 0.117(17) 0.086(13) 0.043(13) -0.016(11) -0.038(12)
C25 0.052(10) 0.083(12) 0.090(10) 0.029(10) 0.019(8) -0.010(9)
N8 0.084(10) 0.092(11) 0.086(9) 0.028(9) 0.010(8) -0.039(9)
C66 0.064(12) 0.15(2) 0.103(16) 0.034(16) 0.034(12) 0.047(14)
C41 0.042(9) 0.111(15) 0.086(12) -0.019(12) 0.013(9) -0.012(10)
C54 0.118(17) 0.059(10) 0.126(17) -0.049(10) 0.052(14) -0.011(10)
C2 0.18(2) 0.063(10) 0.140(16) -0.031(10) -0.087(16) 0.044(13)
C32 0.057(10) 0.120(17) 0.071(11) 0.034(12) -0.011(9) -0.021(11)
C4 0.040(8) 0.059(9) 0.071(10) 0.004(8) -0.004(8) -0.002(7)
C65 0.071(13) 0.121(18) 0.082(13) -0.021(13) 0.011(10) -0.009(13)
C29 0.054(10) 0.097(14) 0.057(9) 0.000(9) -0.020(8) -0.012(9)
C36 0.034(8) 0.063(9) 0.081(10) 0.015(8) 0.007(8) 0.003(7)
C33 0.053(10) 0.076(11) 0.093(12) 0.022(10) -0.011(9) -0.025(9)
C51 0.082(13) 0.072(12) 0.125(17) 0.006(12) 0.002(13) -0.021(11)
C50 0.14(2) 0.079(14) 0.16(2) -0.043(16) 0.066(19) -0.065(15)
C49 0.128(17) 0.058(10) 0.124(15) -0.033(11) 0.076(14) -0.037(11)
C48 0.062(10) 0.067(10) 0.069(9) 0.005(8) 0.003(8) -0.006(8)
C53 0.19(2) 0.052(9) 0.089(13) -0.008(9) 0.006(14) -0.060(12)
C52 0.123(17) 0.064(11) 0.081(12) 0.016(10) 0.019(13) -0.023(12)
C70 0.051(10) 0.047(9) 0.112(15) -0.015(10) 0.022(10) -0.010(8)
C1 0.20(2) 0.055(9) 0.126(16) -0.035(11) -0.082(16) 0.019(13)
C15 0.106(15) 0.036(8) 0.124(16) -0.002(10) 0.036(13) -0.011(9)
C16 0.048(8) 0.050(8) 0.048(8) 0.009(7) -0.021(7) 0.004(7)
C17 0.077(11) 0.033(7) 0.097(13) 0.000(9) 0.013(10) 0.007(8)
C18 0.081(11) 0.041(7) 0.071(10) -0.002(7) 0.033(9) 0.000(8)
C13 0.065(9) 0.039(7) 0.044(7) 0.001(6) 0.008(7) 0.009(7)
C14 0.095(13) 0.041(8) 0.080(11) -0.005(8) 0.019(10) 0.015(9)
C34 0.044(8) 0.084(12) 0.058(9) 0.015(9) 0.006(7) 0.017(8)
C12 0.084(12) 0.048(9) 0.064(10) 0.008(8) -0.020(9) 0.001(8)
C30 0.059(10) 0.098(14) 0.061(10) 0.000(10) -0.019(9) 0.007(10)
C38 0.055(10) 0.075(11) 0.17(2) -0.008(13) 0.056(12) -0.005(9)
C19 0.061(9) 0.048(8) 0.059(8) 0.018(7) -0.008(8) -0.006(8)
C20 0.056(9) 0.063(10) 0.088(12) -0.035(9) 0.019(9) -0.023(8)
C21 0.063(10) 0.113(15) 0.059(9) 0.005(11) 0.015(8) -0.037(11)
Cd1 0.0502(6) 0.0502(6) 0.0554(6) 0.0032(5) 0.0007(5) 0.0005(5)
Cd3 0.0582(7) 0.0388(5) 0.0870(8) 0.0008(6) 0.0053(7) 0.0055(5)
Cd2 0.0495(6) 0.0575(6) 0.0617(6) 0.0005(6) 0.0039(5) 0.0015(5)
N5 0.061(8) 0.073(8) 0.043(6) -0.004(6) 0.000(6) 0.007(7)
N3 0.043(6) 0.037(6) 0.070(8) -0.017(6) -0.012(6) 0.011(5)
N6 0.059(8) 0.074(9) 0.077(9) 0.006(8) -0.034(7) 0.016(8)
N2 0.058(8) 0.043(6) 0.059(7) -0.016(6) -0.007(6) 0.008(6)
N7 0.036(7) 0.081(9) 0.060(7) 0.005(7) -0.016(6) 0.004(7)
N4 0.072(9) 0.044(7) 0.065(8) -0.010(6) 0.005(7) -0.009(6)
N1 0.085(10) 0.051(8) 0.102(10) -0.020(8) -0.016(9) -0.010(8)
O11 0.076(8) 0.099(10) 0.088(9) -0.012(8) -0.019(7) 0.037(8)
O6 0.051(7) 0.073(8) 0.156(13) 0.021(9) 0.016(8) 0.025(7)
O3 0.120(11) 0.085(9) 0.066(7) 0.005(7) -0.003(8) -0.017(9)
O9 0.143(16) 0.162(18) 0.109(12) -0.027(14) -0.014(12) 0.056(14)
O7 0.083(9) 0.166(14) 0.080(8) 0.011(9) -0.028(7) -0.053(9)
O8 0.082(8) 0.085(8) 0.086(7) -0.008(7) 0.007(6) -0.027(7)
O10 0.079(10) 0.159(16) 0.173(15) -0.026(14) -0.053(10) 0.049(11)
O4 0.076(8) 0.064(7) 0.102(9) -0.010(7) 0.024(7) -0.008(7)
O2 0.39(4) 0.076(10) 0.183(18) -0.060(12) 0.19(2) -0.117(17)
O1 0.22(2) 0.064(8) 0.102(9) 0.003(7) -0.004(12) -0.037(11)
C55 0.036(3) 0.037(3) 0.036(3) -0.0002(13) -0.0002(13) 0.0004(13)
O5 0.078(7) 0.129(9) 0.116(7) -0.005(8) 0.003(7) -0.036(7)
O12 0.102(8) 0.175(11) 0.105(8) -0.040(8) -0.004(7) -0.030(8)
loop_
_atom_type_symbol
_atom_type_description
_atom_type_scat_dispersion_real
_atom_type_scat_dispersion_imag
_atom_type_scat_source
C C 0.0033 0.0016 'International Tables Vol C Tables 4.2.6.8 and 6.1.1.4'
H H 0.0000 0.0000 'International Tables Vol C Tables 4.2.6.8 and 6.1.1.4'
Cd Cd -0.8075 1.2024 'International Tables Vol C Tables 4.2.6.8 and 6.1.1.4'
N N 0.0061 0.0033 'International Tables Vol C Tables 4.2.6.8 and 6.1.1.4'
O O 0.0106 0.0060 'International Tables Vol C Tables 4.2.6.8 and 6.1.1.4'
loop_
_geom_angle_atom_site_label_1
_geom_angle_atom_site_label_2
_geom_angle_atom_site_label_3
_geom_angle
_geom_angle_site_symmetry_1
_geom_angle_site_symmetry_3
C48 C47 Cd1 165.6(10) . .
O3 C47 C48 125.6(17) . .
O3 C47 Cd1 57.3(10) . .
O3 C47 O4 120.9(16) . .
O4 C47 C48 113.1(13) . .
O4 C47 Cd1 64.3(8) . .
C6 C3 C2 117.8(15) . .
C4 C3 C6 128.3(15) . .
C4 C3 C2 113.6(16) . .
C6 C7 C8 128.0(16) . .
C42 C46 C45 118.6(16) . .
N1 C5 C4 124.5(15) . .
C63 C64 C69 122.5(18) . .
C65 C64 C63 121(2) . .
C65 C64 C69 115.7(16) . .
N5 C44 C43 126.2(19) . .
C64 C63 Cd2 170.8(17) . .
O9 C63 C64 121(2) . .
O9 C63 Cd2 66.0(14) . .
O9 C63 O10 122(2) . .
O10 C63 C64 117(2) . .
O10 C63 Cd2 56.0(11) . .
C59 C62 O7 120.5(11) . .
O8 C62 C59 136.1(12) . .
O8 C62 O7 102.9(11) . .
N6 C31 C32 127.5(15) . .
N6 C31 N7 113.8(13) . .
N7 C31 C32 118.7(14) . .
N3 C9 C8 127.3(13) . .
N3 C9 N2 114.0(12) . .
N2 C9 C8 118.3(13) . .
N2 C10 C6 124.8(14) . .
C68 C69 C64 119.5(17) . .
C36 C37 C38 122.7(17) . .
N5 C45 C46 120.9(16) . .
C36 C35 N6 106.4(13) . .
C34 C35 C36 118.2(14) . .
C34 C35 N6 106.1(12) . .
C46 C42 C39 117.6(14) . .
C43 C42 C46 121.5(16) . .
C43 C42 C39 120.9(15) . .
C7 C8 C9 112.6(14) . .
C40 C39 C42 122.0(15) . .
C40 C39 C38 120.6(16) . .
C38 C39 C42 116.2(15) . .
C68 C67 C70 120.9(16) . .
C66 C67 C68 119.9(17) . .
C66 C67 C70 119.2(15) . .
N4 C22 C23 120.6(15) . .
C57 C56 C61 120.0 . .
C55 C56 C57 119.8(9) . .
C55 C56 C61 120.2(9) . .
C56 C57 C58 120.0 . .
C59 C58 C57 120.0 . .
C62 C59 C58 127.0(9) . .
C62 C59 C60 113.0(9) . .
C58 C59 C60 120.0 . .
C61 C60 C59 120.0 . .
C60 C61 C56 120.0 . .
C39 C40 C41 122.9(17) . .
C7 C6 C3 125.0(16) . .
C10 C6 C3 122.8(15) . .
C10 C6 C7 112.0(14) . .
C42 C43 C44 118.0(19) . .
C12 C11 N2 97.5(13) . .
C67 C68 C69 123(2) . .
C19 C23 C22 124.8(17) . .
C27 C24 N8 120.0 . .
C28 C27 C24 120.0 . .
C27 C28 C26 120.0 . .
C27 C28 C29 118.5(9) . .
C26 C28 C29 120.3(9) . .
C28 C26 C25 120.0 . .
N8 C25 C26 120.0 . .
C24 N8 Cd3 117.2(6) . 3_376
C25 N8 C24 120.0 . .
C25 N8 Cd3 119.3(5) . 3_376
C67 C66 C65 121.0(18) . .
C36 C41 C40 114.4(17) . .
C51 C54 Cd3 177.3(15) . .
O2 C54 C51 125(2) . .
O2 C54 Cd3 54.1(10) . .
O2 C54 O1 120(2) . .
O1 C54 C51 114.7(19) . .
O1 C54 Cd3 66.5(11) . .
C1 C2 C3 114(2) . .
C33 C32 C31 113.6(15) . .
C5 C4 C3 121.3(15) . .
C64 C65 C66 119.6(18) . .
C33 C29 C28 124.8(13) . .
C30 C29 C28 117.1(15) . .
C30 C29 C33 118.1(17) . .
C37 C36 C35 123.8(15) . .
C37 C36 C41 120.8(15) . .
C41 C36 C35 115.4(15) . .
C32 C33 C29 128.4(16) . .
C50 C51 C54 116.5(12) . .
C50 C51 C52 120.0 . .
C52 C51 C54 122.9(12) . .
C51 C50 C49 120.0 . .
C48 C49 C50 120.0 . .
C49 C48 C47 125.0(9) . .
C53 C48 C47 115.0(9) . .
C53 C48 C49 120.0 . .
C48 C53 C52 120.0 . .
C53 C52 C51 120.0 . .
C67 C70 Cd3 173.6(13) . 2_584
O11 C70 C67 115.7(15) . .
O11 C70 Cd3 58.0(10) . 2_584
O6 C70 C67 121.0(19) . .
O6 C70 Cd3 65.3(12) . 2_584
O6 C70 O11 123(2) . .
N1 C1 C2 125(2) . .
C16 C15 C14 120.0 . .
C15 C16 C19 119.3(8) . .
C17 C16 C15 120.0 . .
C17 C16 C19 120.7(8) . .
C16 C17 C18 120.0 . .
C13 C18 C17 120.0 . .
C18 C13 C12 119.3(8) . .
C14 C13 C18 120.0 . .
C14 C13 C12 120.6(8) . .
C13 C14 C15 120.0 . .
C35 C34 N7 104.3(12) . .
C11 C12 C13 112.4(14) . .
N3 C12 C11 112.0(14) . .
N3 C12 C13 108.8(11) . .
C29 C30 N7 113.8(16) . .
C39 C38 C37 117.6(19) . .
C23 C19 C16 123.7(15) . .
C23 C19 C20 115.0(16) . .
C20 C19 C16 121.3(13) . .
C19 C20 C21 120.7(15) . .
N4 C21 C20 120.1(15) . .
N5 Cd1 C47 111.1(5) 4_755 .
N5 Cd1 O3 89.0(5) 4_755 .
N5 Cd1 O4 138.1(5) 4_755 .
N5 Cd1 O5 128.0(5) 4_755 .
N5 Cd1 O12 80.3(5) 4_755 .
N3 Cd1 C47 98.7(5) 4_755 .
N3 Cd1 N5 105.1(5) 4_755 4_755
N3 Cd1 O3 113.5(4) 4_755 .
N3 Cd1 O4 83.6(5) 4_755 .
N3 Cd1 O5 102.6(5) 4_755 .
N3 Cd1 O12 119.7(6) 4_755 .
O3 Cd1 C47 23.5(4) . .
O3 Cd1 O4 51.2(4) . .
O3 Cd1 O5 118.3(6) . .
O3 Cd1 O12 126.7(6) . .
O4 Cd1 C47 27.8(4) . .
O5 Cd1 C47 107.0(5) . .
O5 Cd1 O4 87.7(5) . .
O12 Cd1 C47 136.1(5) . .
O12 Cd1 O4 131.2(5) . .
O12 Cd1 O5 47.7(4) . .
N8 Cd3 C54 108(3) 3_676 .
N8 Cd3 C70 119(4) 3_676 2_585
N8 Cd3 N1 95(5) 3_676 4_765
N8 Cd3 O6 95(4) 3_676 2_585
N8 Cd3 O1 105(3) 3_676 .
C70 Cd3 C54 112.7(6) 2_585 .
N1 Cd3 C54 113.4(7) 4_765 .
N1 Cd3 C70 107.4(5) 4_765 2_585
N1 Cd3 O6 122.8(5) 4_765 2_585
N1 Cd3 O1 87.3(5) 4_765 .
O11 Cd3 N8 143(3) 2_585 3_676
O11 Cd3 C54 103.5(6) 2_585 .
O11 Cd3 C70 27.4(5) 2_585 2_585
O11 Cd3 N1 89.3(5) 2_585 4_765
O11 Cd3 O6 53.8(4) 2_585 2_585
O11 Cd3 O1 111.8(7) 2_585 .
O6 Cd3 C54 116.6(6) 2_585 .
O6 Cd3 C70 26.5(5) 2_585 2_585
O6 Cd3 O1 142.8(6) 2_585 .
O2 Cd3 N8 102(4) . 3_676
O2 Cd3 C54 25.0(6) . .
O2 Cd3 C70 96.7(7) . 2_585
O2 Cd3 N1 138.3(7) . 4_765
O2 Cd3 O11 98.1(9) . 2_585
O2 Cd3 O6 93.5(5) . 2_585
O2 Cd3 O1 51.8(5) . .
O1 Cd3 C54 27.1(6) . .
O1 Cd3 C70 131.3(7) . 2_585
N6 Cd2 C63 117.5(5) . .
N6 Cd2 N4 96.9(5) . .
N6 Cd2 O9 119.1(6) . .
N6 Cd2 O7 86.8(5) . .
N6 Cd2 O8 130.5(5) . .
N4 Cd2 C63 107.9(7) . .
N4 Cd2 O9 129.5(6) . .
O9 Cd2 C63 25.3(6) . .
O7 Cd2 C63 121.7(8) . .
O7 Cd2 N4 121.3(5) . .
O7 Cd2 O9 96.5(6) . .
O8 Cd2 C63 108.3(6) . .
O8 Cd2 N4 85.5(4) . .
O8 Cd2 O9 94.8(7) . .
O8 Cd2 O7 52.2(5) . .
O10 Cd2 C63 26.6(7) . .
O10 Cd2 N6 110.2(7) . .
O10 Cd2 N4 84.2(7) . .
O10 Cd2 O9 51.8(6) . .
O10 Cd2 O7 148.2(7) . .
O10 Cd2 O8 119.3(7) . .
C44 N5 C45 114.4(15) . .
C44 N5 Cd1 124.6(13) . 4_745
C45 N5 Cd1 120.3(11) . 4_745
C9 N3 C12 107.6(12) . .
C9 N3 Cd1 128.7(9) . 4_745
C12 N3 Cd1 123.6(9) . 4_745
C31 N6 C35 106.9(13) . .
C31 N6 Cd2 126.9(10) . .
C35 N6 Cd2 124.9(10) . .
C9 N2 C11 108.4(11) . .
C10 N2 C9 123.9(13) . .
C10 N2 C11 127.5(12) . .
C31 N7 C34 108.5(13) . .
C31 N7 C30 127.0(12) . .
C30 N7 C34 124.2(12) . .
C22 N4 Cd2 124.1(10) . .
C21 N4 C22 118.7(15) . .
C21 N4 Cd2 116.2(11) . .
C5 N1 C1 119.3(15) . .
C5 N1 Cd3 126.6(12) . 4_735
C1 N1 Cd3 112.3(14) . 4_735
C70 O11 Cd3 94.7(11) . 2_584
C70 O6 Cd3 88.3(14) . 2_584
C47 O3 Cd1 99.2(12) . .
C63 O9 Cd2 88.7(15) . .
C62 O7 Cd2 99.2(8) . .
C62 O8 Cd2 104.9(9) . .
C63 O10 Cd2 97.5(15) . .
C47 O4 Cd1 87.9(9) . .
C54 O2 Cd3 100.9(14) . .
C54 O1 Cd3 86.4(13) . .
O5 C55 C56 127.0(13) . .
O5 C55 O12 107.6(13) . .
O12 C55 C56 125.2(13) . .
C55 O5 Cd1 102.1(9) . .
C55 O12 Cd1 101.3(9) . .
loop_
_geom_bond_atom_site_label_1
_geom_bond_atom_site_label_2
_geom_bond_distance
_geom_bond_site_symmetry_2
C47 C48 1.492(16) .
C47 Cd1 2.729(14) .
C47 O3 1.104(17) .
C47 O4 1.28(2) .
C3 C6 1.41(2) .
C3 C2 1.54(3) .
C3 C4 1.40(2) .
C7 C8 1.42(2) .
C7 C6 1.36(2) .
C46 C45 1.41(2) .
C46 C42 1.36(2) .
C5 C4 1.37(2) .
C5 N1 1.25(2) .
C64 C63 1.46(3) .
C64 C69 1.50(2) .
C64 C65 1.33(3) .
C44 C43 1.40(3) .
C44 N5 1.30(2) .
C63 Cd2 2.657(19) .
C63 O9 1.13(3) .
C63 O10 1.20(3) .
C62 C59 1.270(13) .
C62 O7 1.370(18) .
C62 O8 1.247(16) .
C31 C32 1.44(2) .
C31 N6 1.35(2) .
C31 N7 1.366(19) .
C9 C8 1.43(2) .
C9 N3 1.313(17) .
C9 N2 1.319(17) .
C10 C6 1.34(2) .
C10 N2 1.319(18) .
C69 C68 1.38(2) .
C37 C36 1.30(2) .
C37 C38 1.43(2) .
C45 N5 1.36(2) .
C35 C36 1.52(2) .
C35 C34 1.48(2) .
C35 N6 1.519(19) .
C42 C39 1.59(2) .
C42 C43 1.26(2) .
C39 C40 1.32(2) .
C39 C38 1.36(2) .
C67 C68 1.34(3) .
C67 C66 1.29(3) .
C67 C70 1.52(2) .
C22 C23 1.35(2) .
C22 N4 1.32(2) .
C56 C57 1.3900 .
C56 C61 1.3900 .
C56 C55 1.348(15) .
C57 C58 1.3900 .
C58 C59 1.3900 .
C59 C60 1.3900 .
C60 C61 1.3900 .
C40 C41 1.45(2) .
C11 C12 1.45(2) .
C11 N2 1.59(2) .
C23 C19 1.29(2) .
C24 C27 1.3900 .
C24 N8 1.3900 .
C27 C28 1.3900 .
C28 C26 1.3900 .
C28 C29 1.503(19) .
C26 C25 1.3900 .
C25 N8 1.3900 .
N8 Cd3 2.281(8) 3_376
C66 C65 1.54(3) .
C41 C36 1.43(2) .
C54 C51 1.51(2) .
C54 Cd3 2.735(19) .
C54 O2 1.18(3) .
C54 O1 1.25(3) .
C2 C1 1.37(3) .
C32 C33 1.36(2) .
C29 C33 1.41(2) .
C29 C30 1.40(2) .
C51 C50 1.3900 .
C51 C52 1.3900 .
C50 C49 1.3900 .
C49 C48 1.3900 .
C48 C53 1.3900 .
C53 C52 1.3900 .
C70 Cd3 2.67(2) 2_584
C70 O11 1.23(2) .
C70 O6 1.19(2) .
C1 N1 1.35(3) .
C15 C16 1.3900 .
C15 C14 1.3900 .
C16 C17 1.3900 .
C16 C19 1.521(17) .
C17 C18 1.3900 .
C18 C13 1.3900 .
C13 C14 1.3900 .
C13 C12 1.639(19) .
C34 N7 1.50(2) .
C12 N3 1.420(19) .
C30 N7 1.42(2) .
C19 C20 1.36(2) .
C20 C21 1.42(2) .
C21 N4 1.29(2) .
Cd1 N5 2.310(12) 4_755
Cd1 N3 2.276(11) 4_755
Cd1 O3 2.325(14) .
Cd1 O4 2.460(12) .
Cd1 O5 2.387(12) .
Cd1 O12 2.387(14) .
Cd3 N8 2.28(18) 3_676
Cd3 C70 2.67(2) 2_585
Cd3 N1 2.321(15) 4_765
Cd3 O11 2.275(12) 2_585
Cd3 O6 2.430(15) 2_585
Cd3 O2 2.256(14) .
Cd3 O1 2.513(15) .
Cd2 N6 2.241(14) .
Cd2 N4 2.344(13) .
Cd2 O9 2.428(18) .
Cd2 O7 2.343(14) .
Cd2 O8 2.314(12) .
Cd2 O10 2.220(15) .
N5 Cd1 2.310(12) 4_745
N3 Cd1 2.276(11) 4_745
N1 Cd3 2.321(15) 4_735
O11 Cd3 2.275(12) 2_584
O6 Cd3 2.430(15) 2_584
C55 O5 1.183(15) .
C55 O12 1.206(15) .
