#------------------------------------------------------------------------------
#$Date: 2019-11-23 11:15:34 +0200 (Sat, 23 Nov 2019) $
#$Revision: 233045 $
#$URL: file:///home/coder/svn-repositories/cod/cif/4/34/85/4348517.cif $
#------------------------------------------------------------------------------
#
# This file is available in the Crystallography Open Database (COD),
# http://www.crystallography.net/
#
# All data on this site have been placed in the public domain by the
# contributors.
#
data_4348517
loop_
_publ_author_name
'Pariyar, Anand'
'Yaghoobnejad Asl, Hooman'
'Choudhury, Amitava'
_publ_section_title
;
 Tetragonal versus Hexagonal: Structure-Dependent Catalytic Activity of
 Co/Zn Bimetallic Metal-Organic Frameworks.
;
_journal_issue                   18
_journal_name_full               'Inorganic chemistry'
_journal_page_first              9250
_journal_page_last               9257
_journal_paper_doi               10.1021/acs.inorgchem.6b01288
_journal_volume                  55
_journal_year                    2016
_chemical_formula_sum            'C24.67 H30.67 N3.33 O14.67 Zn3'
_chemical_formula_weight         804.63
_space_group_crystal_system      hexagonal
_space_group_IT_number           185
_space_group_name_Hall           'P 6c -2'
_space_group_name_H-M_alt        'P 63 c m'
_atom_sites_solution_hydrogens   geom
_audit_creation_method           SHELXL-2014/7
_cell_angle_alpha                90
_cell_angle_beta                 90
_cell_angle_gamma                120
_cell_formula_units_Z            6
_cell_length_a                   18.368(10)
_cell_length_b                   18.368(10)
_cell_length_c                   17.964(10)
_cell_measurement_reflns_used    1008
_cell_measurement_temperature    220(2)
_cell_measurement_theta_max      22.20
_cell_measurement_theta_min      2.49
_cell_volume                     5249(5)
_computing_cell_refinement       'Bruker SAINT V7.60A (Bruker, 2008)'
_computing_data_collection       'Bruker SMART V5.631 (Bruker, 2002)'
_computing_data_reduction        'Bruker SAINT V7.60A (Bruker, 2008)'
_computing_molecular_graphics    'SHELXTL (Sheldrick, 2008)'
_computing_publication_material  'SHELXTL (Sheldrick, 2008)'
_computing_structure_refinement  'SHELXL-2014/7 (Sheldrick, 2014)'
_computing_structure_solution    'SHELXS-97 (Sheldrick, 2008)'
_diffrn_ambient_temperature      220(2)
_diffrn_measured_fraction_theta_full 0.999
_diffrn_measured_fraction_theta_max 0.995
_diffrn_measurement_device_type  'Bruker Smart-Apex CCD area detector'
_diffrn_measurement_method       '\w scans'
_diffrn_radiation_monochromator  graphite
_diffrn_radiation_source         'fine-focus sealed tube'
_diffrn_radiation_type           MoK\a
_diffrn_radiation_wavelength     0.71073
_diffrn_reflns_av_R_equivalents  0.0886
_diffrn_reflns_av_unetI/netI     0.0529
_diffrn_reflns_Laue_measured_fraction_full 0.999
_diffrn_reflns_Laue_measured_fraction_max 0.995
_diffrn_reflns_limit_h_max       24
_diffrn_reflns_limit_h_min       -24
_diffrn_reflns_limit_k_max       24
_diffrn_reflns_limit_k_min       -23
_diffrn_reflns_limit_l_max       23
_diffrn_reflns_limit_l_min       -21
_diffrn_reflns_number            31394
_diffrn_reflns_point_group_measured_fraction_full 0.977
_diffrn_reflns_point_group_measured_fraction_max 0.964
_diffrn_reflns_theta_full        25.242
_diffrn_reflns_theta_max         28.397
_diffrn_reflns_theta_min         2.218
_exptl_absorpt_coefficient_mu    2.106
_exptl_absorpt_correction_T_max  0.9591
_exptl_absorpt_correction_T_min  0.2421
_exptl_absorpt_correction_type   multi-scan
_exptl_absorpt_process_details   '(SADABS; Bruker, 2008)'
_exptl_crystal_colour            colorless
_exptl_crystal_density_diffrn    1.527
_exptl_crystal_description       needle
_exptl_crystal_F_000             2456
_exptl_crystal_size_max          0.940
_exptl_crystal_size_mid          0.070
_exptl_crystal_size_min          0.020
_refine_diff_density_max         0.763
_refine_diff_density_min         -0.487
_refine_diff_density_rms         0.108
_refine_ls_abs_structure_details
;
 Flack x determined using 1214 quotients [(I+)-(I-)]/[(I+)+(I-)]
 (Parsons, Flack and Wagner, Acta Cryst. B69 (2013) 249-259).
;
_refine_ls_abs_structure_Flack   0.012(11)
_refine_ls_extinction_method     none
_refine_ls_goodness_of_fit_ref   1.051
_refine_ls_hydrogen_treatment    constr
_refine_ls_matrix_type           full
_refine_ls_number_parameters     208
_refine_ls_number_reflns         4462
_refine_ls_number_restraints     188
_refine_ls_restrained_S_all      1.039
_refine_ls_R_factor_all          0.0842
_refine_ls_R_factor_gt           0.0532
_refine_ls_shift/su_max          0.090
_refine_ls_shift/su_mean         0.007
_refine_ls_structure_factor_coef Fsqd
_refine_ls_weighting_details
'w=1/[\s^2^(Fo^2^)+(0.0720P)^2^+1.9545P] where P=(Fo^2^+2Fc^2^)/3'
_refine_ls_weighting_scheme      calc
_refine_ls_wR_factor_gt          0.1238
_refine_ls_wR_factor_ref         0.1428
_reflns_Friedel_coverage         0.875
_reflns_Friedel_fraction_full    0.953
_reflns_Friedel_fraction_max     0.930
_reflns_number_gt                3274
_reflns_number_total             4462
_reflns_threshold_expression     'I > 2\s(I)'
_cod_data_source_file            ic6b01288_si_002.cif
_cod_data_source_block           MST-2(Zn)
_cod_original_cell_volume        5249(6)
_cod_database_code               4348517
_shelx_shelxl_version_number     2014/7
_shelx_space_group_comment
;
The symmetry employed for this shelxl refinement is uniquely defined
by the following loop, which should always be used as a source of
symmetry information in preference to the above space-group names.
They are only intended as comments.
;
_shelx_estimated_absorpt_t_min   0.242
_shelx_estimated_absorpt_t_max   0.959
_shelx_res_file
;

    sadp63cm.res created by SHELXL-2014/7

TITL sadP63cm in P6(3)cm
CELL  0.71073  18.3681  18.3681  17.9641   90.000   90.000  120.000
ZERR      6.00   0.0100   0.0100   0.0099    0.000    0.000    0.000
LATT  -1
SYMM  - Y,   X - Y,   Z
SYMM  - X + Y, - X,   Z
SYMM  - X, - Y, 1/2 + Z
SYMM    Y, - X + Y, 1/2 + Z
SYMM    X - Y,   X, 1/2 + Z
SYMM  - Y, - X, 1/2 + Z
SYMM  - X + Y,   Y, 1/2 + Z
SYMM    X,   X - Y, 1/2 + Z
SYMM    Y,   X,   Z
SYMM    X - Y, - Y,   Z
SYMM  - X, - X + Y,   Z
SFAC  C    H    N    O    ZN
UNIT  148 184 20 88 18
LIST 6 ! automatically inserted. Change 6 to 4 for CHECKCIF!!
MERG   2
FMAP   2
PLAN   5
SIZE     0.020   0.070   0.940
ACTA
SIMU
DELU
BOND   $H
L.S.  4
DFIX 1.45 0.02 N1 C12
DFIX 1.45 0.02 N1 C11
DFIX 1.45 0.02 N2 C14
DFIX 1.45 0.02 N2 C15
DFIX 1.45 0.02 N3 C16
DFIX 1.45 0.02 N3 C17
DFIX 2.4 0.02 C16 C17
rem DFIX 2.5 0.02 C17 O10
TEMP   -53.00
WGHT    0.072000    1.954500
FVAR       0.04330
ZN1   5    0.349102    0.349102    0.828242    10.50000    0.04215    0.04215 =
         0.02167   -0.00082   -0.00082    0.00772
ZN2   5    0.243131    0.341566    0.670440    11.00000    0.05074    0.04650 =
         0.02024   -0.00010    0.00435    0.02776
O1    4    0.343497    0.343497    0.712729    10.50000    0.04029    0.04029 =
         0.02102    0.00565    0.00565    0.01092
O2    4    0.211883    0.281925    0.575545    11.00000    0.07160    0.08238 =
         0.02430   -0.01336   -0.00639    0.05566
O3    4    0.317557    0.224297    0.842616    11.00000    0.10871    0.04704 =
         0.02440    0.00242   -0.01137    0.02197
O4    4    0.271343    0.151598    0.737259    11.00000    0.06589    0.05080 =
         0.02045    0.00801   -0.00319    0.01612
C1    1    0.239094    0.239094    0.545235    10.50000    0.04261    0.04261 =
         0.01830   -0.00010   -0.00010    0.01594
C2    1    0.222435    0.222435    0.464185    10.50000    0.04825    0.04825 =
         0.01452    0.00205    0.00205    0.02754
C3    1    0.177724    0.253651    0.425027    11.00000    0.05168    0.04707 =
         0.01779    0.00314    0.00126    0.02729
AFIX  43
H3A   2    0.155729    0.282994    0.450666    11.00000   -1.20000
AFIX   0
C4    1    0.165832    0.241696    0.349584    11.00000    0.04771    0.04664 =
         0.01893    0.00182   -0.00209    0.02422
C5    1    0.197713    0.197713    0.311122    10.50000    0.05042    0.05042 =
         0.02258   -0.00216   -0.00216    0.02225
AFIX  43
H5A   2    0.189587    0.189586    0.259459    10.50000   -1.20000
AFIX   0
O5    4    0.236509    0.441984    0.654843    11.00000    0.05206    0.04599 =
         0.05627    0.00178    0.00489    0.02289
O6    4    0.368094    0.485950    0.621360    11.00000    0.07115    0.05721 =
         0.10166    0.02035    0.02532    0.04183
C6    1    0.279224    0.157399    0.806459    11.00000    0.05166    0.04860 =
         0.02268    0.00375   -0.00348    0.02163
C7    1    0.308569    0.498978    0.632953    11.00000    0.05378    0.04627 =
         0.06089   -0.00008    0.00055    0.02390
C8    1    0.321566    0.585860    0.624383    11.00000    0.04997    0.04086 =
         0.07057    0.00129   -0.00313    0.02400
C9    1    0.252400    0.598655    0.624501    11.00000    0.03699    0.04584 =
         0.07523   -0.00573   -0.00176    0.01506
AFIX  43
H9A   2    0.197555    0.552180    0.624660    11.00000   -1.20000
AFIX   0
O7    4    0.365751    0.365751    0.942603    10.50000    0.06349    0.06349 =
         0.02464   -0.00351   -0.00351    0.01911
C10   1    0.317462    0.317462    0.989109    10.50000    0.07724    0.07724 =
         0.03256    0.01019    0.01019    0.03764
AFIX  43
H10A  2    0.268884    0.268884    0.972651    10.50000   -1.20000
AFIX   0
N1    3    0.330169    0.330169    1.062435    10.50000    0.12691    0.12691 =
         0.03679    0.01893    0.01893    0.09439
C11   1    0.266642    0.266642    1.110477    10.50000    0.22389    0.22389 =
         0.07933    0.09004    0.09004    0.16096
AFIX  33
H11A  2    0.282096    0.282096    1.162110    10.50000   -1.50000
H11B  2    0.212791    0.262580    1.100715    10.50000   -1.50000
H11C  2    0.262580    0.212791    1.100715    10.50000   -1.50000
AFIX   0
O8    4    0.389373    0.479141    0.821301    11.00000    0.17562    0.06125 =
         0.03641   -0.01752   -0.02639    0.03678
N2    3    0.466010    0.610984    0.861954    11.00000    0.19573    0.05717 =
         0.09435   -0.01532    0.01129   -0.01311
C12   1    0.406301    0.406301    1.089690    10.50000    0.12307
AFIX  33
H12A  2    0.406462    0.406462    1.143686    10.50000   -1.50000
H12B  2    0.456036    0.406247    1.071614    10.50000   -1.50000
H12C  2    0.406247    0.456036    1.071614    10.50000   -1.50000
AFIX   0
C13   1    0.421776    0.531239    0.865494    11.00000    0.11501
AFIX  43
H13A  2    0.413841    0.510414    0.914398    11.00000   -1.20000
AFIX   0
C15   1    0.516915    0.655701    0.801573    11.00000    0.22369
AFIX  33
H15A  2    0.544307    0.715496    0.811842    11.00000   -1.50000
H15B  2    0.559146    0.639483    0.793822    11.00000   -1.50000
H15C  2    0.482586    0.643125    0.757194    11.00000   -1.50000
AFIX   0
C14   1    0.495714    0.664056    0.929530    11.00000    0.24279
AFIX  33
H14A  2    0.528215    0.722729    0.915184    11.00000   -1.50000
H14B  2    0.447741    0.655261    0.959022    11.00000   -1.50000
H14C  2    0.530657    0.648966    0.958681    11.00000   -1.50000
AFIX   0
N3    3    0.000000    0.000000    0.141963    10.16667    0.49988
C17   1    0.000000    0.000000    0.222689    10.16667    0.47339
C16   1   -0.073090   -0.073090    0.111780    10.16667    0.48033
O9    4    0.000000    0.000000    0.441632    10.16667    0.51836
O10   4    0.082107    0.082107    1.056040    10.16667    0.34340

HKLF    4

REM  sadP63cm in P6(3)cm
REM R1 =  0.0532 for    3274 Fo > 4sig(Fo)  and  0.0842 for all    4462 data
REM    208 parameters refined using    188 restraints

END

WGHT      0.0727      1.6482

REM Highest difference peak  0.763,  deepest hole -0.487,  1-sigma level  0.108
Q1    1   0.4233  0.5428  0.8071  11.00000  0.05    0.74
Q2    1   0.0000  0.0000  0.3894  10.16667  0.05    0.72
Q3    1   0.1245  0.1245  1.0019  10.50000  0.05    0.61
Q4    1   0.3566  0.3566  1.1066  10.50000  0.05    0.54
Q5    1   0.2878  0.3297  0.8267  11.00000  0.05    0.53
;
_shelx_res_checksum              48188
_shelx_hkl_file
;
   1   1   0  151.51    5.73
   2  -1   0  155.75    5.72
   2  -1   0  158.13    5.38
   1  -2   0  151.25    5.40
   2  -2   0   65.46    2.42
  -2   2   0   66.82    2.57
   2   0   0   67.15    2.58
   0   2   0   66.79    2.68
   0  -2   0   66.35    2.42
   2   0   0   69.85    2.38
   1  -3   0    2.61    0.19
   2   1   0    2.56    0.27
   2  -3   0    2.45    0.20
  -1   3   0    2.57    0.34
   3  -2   0    2.37    0.19
   2   1   0    2.23    0.16
  -2   3   0    2.51    0.29
   1   2   0    2.21    0.16
   3  -2   0    2.89    0.27
   3  -1   0    2.58    0.17
   1   2   0    2.29    0.29
   3  -1   0    2.70    0.27
   3   0   0  118.80    4.15
   0  -3   0  119.74    4.21
   3  -3   0  119.03    4.22
   0   3   0  112.93    4.62
  -3   3   0  122.40    4.47
   3   0   0  112.81    4.48
   2  -4   0    0.44    0.14
   2   2   0    0.65    0.22
   4  -2   0    0.66    0.15
   4  -2   0    1.09    0.24
   2   2   0    0.71    0.13
  -2   4   0    0.44    0.21
   3  -4   0   85.86    3.15
   1   3   0   80.89    3.48
   1  -4   0   88.38    3.15
  -3   4   0   86.87    3.43
   3   1   0   86.11    3.07
   4  -1   0   87.13    3.08
   3   1   0   83.24    3.38
   1   3   0   89.57    3.10
  -1   4   0   86.12    3.57
   4  -3   0   83.34    3.14
   4  -1   0   85.71    3.40
   0  -4   0    0.37    0.13
   4  -4   0    0.55    0.15
  -4   4   0    0.81    0.20
   4   0   0    0.73    0.22
   0   4   0    0.72    0.27
   4   0   0    0.81    0.13
   3   2   0   28.80    1.14
  -2   5   0   29.50    1.54
   3  -5   0   29.69    1.23
   2  -5   0   30.04    1.23
   2   3   0   29.21    1.15
   5  -2   0   31.16    1.20
   5  -2   0   28.80    1.39
  -3   5   0   26.43    1.45
   2   3   0   27.79    1.43
   5  -3   0   29.66    1.23
   5  -3   0   28.62    1.38
   3   2   0   27.51    1.39
   1   4   0    2.03    0.40
   4   1   0    2.06    0.19
   5  -4   0    1.78    0.25
  -5   4   0    2.09    0.30
   5  -1   0    2.02    0.34
   1   4   0    2.17    0.21
   4   1   0    1.73    0.31
   5  -1   0    2.19    0.21
  -1   5   0    2.42    0.46
   4  -5   0    2.34    0.27
  -4   5   0    2.44    0.36
   1  -5   0    2.02    0.25
   0   5   0    8.08    0.73
   0  -5   0    8.06    0.49
  -5   5   0    9.18    0.61
   5  -5   0    7.70    0.52
   5   0   0    8.90    0.63
   5   0   0    9.11    0.45
   3  -6   0   23.47    1.05
   6  -3   0   24.50    1.05
  -3   6   0   23.90    1.36
   6  -3   0   22.38    1.21
   3   3   0   22.03    1.22
   3   3   0   21.48    0.94
   2  -6   0    8.55    0.51
   4   2   0    8.39    0.43
   6  -2   0    8.50    0.64
  -2   6   0    7.77    0.81
   6  -2   0    7.84    0.46
   6  -4   0    8.68    0.64
  -4   6   0    8.38    0.67
   6  -4   0    7.06    0.49
   2   4   0    8.72    0.44
   4  -6   0    7.24    0.50
   2   4   0    7.30    0.66
   4   2   0    7.53    0.62
   1   5   0    0.41    0.26
   6  -1   0    0.57    0.13
  -1   6   0    0.66    0.30
  -5   6   0    0.38    0.18
   5   1   0    0.69    0.23
   5   1   0    0.58    0.13
   6  -5   0    0.41    0.16
  -6   5   0    0.45    0.18
   1   5   0    0.21    0.09
   1  -6   0    0.78    0.18
   5  -6   0    0.43    0.17
   6  -1   0    0.81    0.24
   6  -6   0   11.58    0.68
   0   6   0   10.08    0.92
   0  -6   0   10.85    0.62
   6   0   0   10.92    0.78
  -6   6   0   10.38    0.75
   6   0   0   11.40    0.56
   3  -7   0   15.00    0.81
   4   3   0   15.00    0.98
   7  -4   0   16.18    0.84
   7  -3   0   16.30    0.80
   7  -4   0   14.55    0.95
   4   3   0   15.40    0.70
  -3   7   0   16.13    1.16
   3   4   0   15.73    0.71
   4  -7   0   14.86    0.81
   3   4   0   14.24    0.99
  -4   7   0   15.82    1.07
   7  -3   0   13.99    0.94
   2   5   0    6.77    0.73
   2  -7   0    6.70    0.47
   5  -7   0    6.08    0.47
   7  -2   0    6.29    0.63
   5   2   0    6.27    0.37
   5   2   0    6.17    0.63
  -2   7   0    5.52    0.79
   7  -5   0    6.22    0.48
   7  -2   0    6.24    0.42
  -7   5   0    5.96    0.53
  -5   7   0    6.38    0.68
   2   5   0    6.35    0.38
  -1   7   0    0.79    0.37
   6   1   0    1.06    0.18
   6  -7   0    0.88    0.23
   1  -7   0    1.02    0.23
   1   6   0    1.36    0.42
   7  -1   0    0.87    0.18
   7  -6   0    1.09    0.25
   1   6   0    1.17    0.19
  -7   6   0    1.14    0.27
   7  -1   0    1.10    0.30
  -6   7   0    1.13    0.29
   6   1   0    0.39    0.22
  -7   7   0   63.57    2.80
   7  -7   0   63.45    2.57
   0  -7   0   63.21    2.51
   7   0   0   63.46    2.39
   0   7   0   63.98    3.12
   7   0   0   60.45    2.82
  -4   8   0  211.18    8.34
   4   4   0  210.40    7.33
   4   4   0  199.54    8.08
   8  -4   0  213.44    7.51
   4  -8   0  205.68    7.52
   8  -4   0  204.93    8.06
   3  -8   0    5.94    0.46
   5   3   0    5.23    0.35
   8  -5   0    6.07    0.49
   5   3   0    5.38    0.64
   8  -3   0    6.14    0.67
   8  -5   0    5.91    0.66
   8  -3   0    4.91    0.41
   3   5   0    5.53    0.70
   3   5   0    5.18    0.35
   5  -8   0    5.47    0.46
  -3   8   0    5.96    0.85
  -5   8   0    5.40    0.71
   2   6   0   38.24    1.54
   2  -8   0   37.28    1.66
   6   2   0   37.25    1.51
  -6   8   0   39.40    2.01
  -8   6   0   38.58    1.84
   2   6   0   36.40    2.03
   8  -6   0   36.92    1.70
   6   2   0   38.10    1.94
   8  -2   0   39.18    1.95
  -2   8   0   39.91    2.25
   6  -8   0   36.79    1.69
   8  -2   0   38.32    1.60
   1   7   0   35.67    2.02
   8  -1   0   34.60    1.80
  -7   8   0   33.41    1.79
   8  -1   0   34.46    1.42
   7   1   0   35.50    1.40
  -8   7   0   34.03    1.72
   7   1   0   31.82    1.77
   1   7   0   33.85    1.43
   7  -8   0   33.56    1.58
   1  -8   0   33.50    1.52
   8  -7   0   33.40    1.59
  -1   8   0   32.29    2.04
   0  -8   0   96.62    3.56
   8   0   0   87.95    3.94
   8   0   0   94.39    3.41
   8  -8   0   87.59    3.59
  -8   8   0   92.68    3.93
   0   8   0   86.97    4.23
   4  -9   0    4.64    0.50
   9  -5   0    4.94    0.65
  -4   9   0    4.86    0.80
   5  -9   0    5.20    0.51
   9  -4   0    5.68    0.48
   4   5   0    4.35    0.65
   5   4   0    5.24    0.67
   4   5   0    4.35    0.33
   9  -4   0    4.85    0.65
   9  -5   0    5.04    0.52
   5   4   0    5.14    0.35
  -5   9   0    6.24    0.84
  -3   9   0   14.69    1.28
   3   6   0   12.09    1.04
   9  -3   0   14.75    0.81
   3  -9   0   14.75    0.86
   9  -3   0   13.77    1.02
   9  -6   0   13.72    0.87
   6  -9   0   14.00    0.87
   3   6   0   15.52    0.73
  -9   6   0   16.23    1.03
  -6   9   0   13.44    1.09
   6   3   0   14.16    1.04
   6   3   0   15.26    0.72
   9  -7   0   17.35    1.07
   2   7   0   20.09    0.93
   2  -9   0   20.69    1.06
   7  -9   0   19.07    1.08
   7   2   0   19.87    0.91
   7   2   0   20.02    1.28
   9  -2   0   20.20    0.99
  -2   9   0   19.68    1.55
  -9   7   0   17.93    1.15
  -7   9   0   18.75    1.29
   2   7   0   21.58    1.43
   9  -2   0   20.35    1.30
   1  -9   0    5.54    0.48
   9  -1   0    5.65    0.73
   1   8   0    6.43    0.44
   8   1   0    5.68    0.73
   9  -8   0    4.43    0.55
  -1   9   0    6.33    0.96
  -9   8   0    6.81    0.71
  -8   9   0    4.99    0.69
   8  -9   0    6.20    0.62
   1   8   0    5.53    0.86
   8   1   0    5.43    0.40
   9  -1   0    6.12    0.44
  -9   9   0  118.67    5.07
   0   9   0  119.61    5.46
   9  -9   0  120.54    4.70
   9   0   0  124.74    4.46
   9   0   0  119.72    5.12
   5 -10   0    0.83    0.26
  10  -5   0    0.81    0.26
  -5  10   0    1.21    0.44
   5   5   0    1.04    0.18
   5   5   0    1.17    0.38
  10  -5   0    1.00    0.34
   6 -10   0    2.65    0.40
  10  -6   0    1.84    0.45
  -4  10   0    2.88    0.69
  -6  10   0    2.64    0.56
   4   6   0    2.32    0.52
   6   4   0    2.33    0.50
   4 -10   0    2.59    0.40
  10  -4   0    1.71    0.43
  10  -4   0    2.39    0.38
   6   4   0    2.07    0.25
   4   6   0    1.93    0.25
  10  -6   0    2.27    0.39
   3 -10   0    1.93    0.34
  -7  10   0    2.37    0.57
  10  -7   0    2.19    0.40
  10  -3   0    2.30    0.50
  10  -3   0    2.46    0.35
 -10   7   0    2.69    0.47
   3   7   0    1.99    0.51
   7 -10   0    1.76    0.36
   7   3   0    1.68    0.45
   7   3   0    2.27    0.27
  -3  10   0    2.72    0.68
   3   7   0    2.41    0.28
  -2  10   0   16.13    1.43
   2   8   0   16.60    0.82
   2   8   0   14.72    1.25
   8   2   0   15.86    1.16
   8   2   0   15.77    0.78
   2 -10   0   13.54    0.88
  -8  10   0   15.19    1.18
   8 -10   0   15.44    0.99
  10  -8   0   14.40    0.97
  10  -2   0   16.20    0.88
  10  -2   0   17.27    1.22
 -10   8   0   16.31    1.09
 -10   9   0   15.16    1.09
  10  -1   0   14.68    0.80
   1   9   0   15.78    1.34
   9   1   0   14.64    0.75
  10  -9   0   11.79    0.90
   9 -10   0   13.36    0.93
   9   1   0   14.30    1.11
   1 -10   0   15.46    0.89
  10  -1   0   13.40    1.10
  -1  10   0   16.33    1.41
   1   9   0   13.11    0.75
  -9  10   0   13.50    1.08
   0  10   0    3.11    0.75
   0  10   0    3.80    0.41
  10   0   0    4.07    0.40
 -10  10   0    3.79    0.61
  10 -10   0    3.61    0.56
  10   0   0    3.09    0.61
  11  -6   0    1.06    0.38
   6 -11   0    1.34    0.31
   5   6   0    1.54    0.23
   6   5   0    1.25    0.39
  11  -6   0    1.18    0.30
   5   6   0    1.42    0.44
   5 -11   0    2.07    0.38
  11  -5   0    1.66    0.36
  -6  11   0    1.40    0.50
   6   5   0    1.63    0.23
  -5  11   0    1.30    0.50
  11  -5   0    1.46    0.42
   4   7   0    1.97    0.52
   4 -11   0    1.41    0.30
   7   4   0    1.34    0.22
   7 -11   0    1.47    0.33
  11  -7   0    1.50    0.35
  11  -4   0    1.28    0.32
  -7  11   0    0.76    0.37
   4   7   0    1.43    0.22
  11  -4   0    2.04    0.48
  -4  11   0    1.72    0.56
   7   4   0    0.84    0.35
 -11   7   0    1.72    0.43
  -8  11   0   24.15    1.72
 -11   8   0   28.29    1.57
  -3  11   0   25.97    1.98
   8   3   0   26.26    1.65
  11  -3   0   25.03    1.30
  11  -3   0   25.75    1.62
   3   8   0   24.53    1.70
   3   8   0   26.49    1.17
  11  -8   0   26.47    1.44
   3 -11   0   26.59    1.36
   8 -11   0   25.29    1.40
   8   3   0   25.28    1.15
  -2  11   0    0.03    0.34
  11  -2   0    0.97    0.25
  11  -2   0    0.70    0.34
   9 -11   0    0.43    0.22
   9   2   0    0.46    0.15
   2 -11   0    0.78    0.24
 -11   9   0    0.74    0.27
   9   2   0    0.90    0.37
   2   9   0    0.59    0.39
   2   9   0    0.65    0.16
  11  -9   0    0.82    0.29
  -9  11   0    0.75    0.35
  -1  11   0   14.86    1.61
  11 -10   0   13.74    1.00
 -11  10   0   14.47    1.13
   1 -11   0   15.83    0.96
  10   1   0   15.87    1.27
  10 -11   0   15.75    1.06
  11  -1   0   16.47    0.90
   1  10   0   15.38    1.54
  11  -1   0   14.88    1.23
   1  10   0   16.05    0.85
 -10  11   0   16.59    1.25
  10   1   0   15.16    0.82
  11 -11   0   13.87    1.02
  11   0   0   14.71    0.83
   0  11   0   14.61    0.83
 -11  11   0   15.18    1.19
  11   0   0   13.90    1.21
   0  11   0   11.92    1.49
  12  -6   0    0.24    0.21
  -6  12   0   -0.50    0.27
   6 -12   0    0.05    0.18
   6   6   0   -0.14    0.23
   6   6   0    0.28    0.12
  12  -6   0   -0.34    0.21
  -5  12   0    9.93    1.34
  -7  12   0   10.80    1.27
   7   5   0   10.19    1.06
  12  -5   0   10.93    1.00
  12  -7   0   11.02    0.82
   7 -12   0    9.29    0.78
   5   7   0    9.79    0.58
   5 -12   0    9.67    0.76
   7   5   0   10.55    0.59
  12  -5   0   11.40    0.81
   5   7   0   10.76    1.12
  12  -7   0   11.40    1.00
 -12   8   0    0.85    0.31
   4 -12   0    1.12    0.32
   8   4   0    1.41    0.23
  12  -4   0    0.89    0.30
   4   8   0    1.53    0.24
   4   8   0    1.17    0.44
   8 -12   0    1.37    0.34
  12  -4   0    1.07    0.41
  -4  12   0    0.64    0.47
  12  -8   0    1.64    0.39
  -8  12   0    1.53    0.47
   8   4   0    0.39    0.35
 -12   9   0   29.83    1.75
  -3  12   0   32.59    2.29
  12  -9   0   30.86    1.65
   9 -12   0   30.70    1.63
   9   3   0   32.35    1.34
   3   9   0   30.50    1.34
   3   9   0   26.57    1.91
  12  -3   0   29.70    1.85
  -9  12   0   30.32    2.01
   9   3   0   28.15    1.83
   3 -12   0   27.82    1.50
  12  -2   0    2.56    0.39
  12 -10   0    2.05    0.45
  10 -12   0    2.45    0.49
   2 -12   0    2.28    0.41
 -10  12   0    1.95    0.53
  12  -2   0    1.76    0.53
  10   2   0    2.52    0.32
   2  10   0    2.79    0.68
  10   2   0    2.47    0.57
   2  10   0    2.48    0.32
 -12  10   0    1.88    0.45
  -2  12   0    1.88    0.69
 -11  12   0    3.46    0.69
  11 -12   0    4.82    0.67
 -12  11   0    3.74    0.66
  11   1   0    3.18    0.69
  12  -1   0    4.36    0.79
   1  11   0    4.83    0.93
  12  -1   0    5.11    0.52
  12 -11   0    4.93    0.68
  11   1   0    4.17    0.43
  -1  12   0    3.12    0.79
  12   0   0   58.24    2.41
  12 -12   0   60.25    2.73
  12   0   0   52.27    2.96
 -12  12   0   54.97    2.97
   0  12   0   59.73    3.40
  13  -7   0   -0.08    0.15
   6 -13   0   -0.29    0.16
  13  -7   0    0.08    0.30
  13  -6   0   -0.25    0.25
   7 -13   0   -0.10    0.17
   6   7   0    0.19    0.12
   6   7   0   -0.18    0.22
   7   6   0    0.28    0.31
  -7  13   0    0.90    0.44
  13  -6   0    0.38    0.24
   7   6   0    0.04    0.11
  -6  13   0   -0.03    0.36
   8   5   0   13.19    1.21
   8   5   0   14.58    0.76
  13  -5   0   14.19    1.21
   8 -13   0   14.34    1.02
 -13   8   0   14.47    1.12
   5   8   0   15.38    1.29
  13  -5   0   14.62    1.00
   5   8   0   15.02    0.76
  -5  13   0   16.47    1.77
  -8  13   0   15.56    1.42
  13  -8   0   15.28    1.06
   5 -13   0   14.76    1.00
 -13   9   0   -0.16    0.19
  13  -9   0   -0.03    0.18
  -4  13   0   -0.06    0.40
   9   4   0    0.05    0.09
  13  -4   0   -0.01    0.19
   4   9   0    0.02    0.25
   4 -13   0    0.04    0.19
   9   4   0    0.11    0.30
   9 -13   0   -0.02    0.18
  13  -4   0    0.34    0.34
  -9  13   0    0.31    0.32
   3  10   0    0.53    0.35
  13  -3   0   -0.05    0.29
  13  -3   0    0.13    0.24
 -10  13   0    0.34    0.29
  -3  13   0    0.26    0.40
  10   3   0   -0.05    0.11
 -13  10   0   -0.11    0.17
  13 -10   0    0.16    0.22
   3 -13   0    0.21    0.19
  10 -13   0   -0.21    0.18
  10   3   0    0.20    0.34
  11   2   0    3.96    0.42
  11 -13   0    4.57    0.68
   2  11   0    5.89    1.01
 -13  11   0    5.75    0.82
  11   2   0    4.54    0.82
 -11  13   0    2.98    0.66
  13 -11   0    4.30    0.66
  -2  13   0    4.47    0.96
  13  -2   0    3.93    0.75
  13  -2   0    4.08    0.55
 -13  12   0    1.18    0.39
  -1  13   0    0.99    0.53
 -12  13   0    0.75    0.38
   1  12   0    1.34    0.51
  13  -1   0    1.50    0.53
  13 -12   0    1.42    0.43
  12   1   0    1.24    0.48
  13  -1   0    0.99    0.27
  12 -13   0    1.71    0.43
  12   1   0    0.88    0.26
  13 -13   0    2.77    0.56
   0  13   0    3.45    0.83
  13   0   0    1.70    0.49
  13   0   0    2.41    0.39
 -13  13   0    3.64    0.72
  -7  14   0   19.85    1.75
   7   7   0   19.65    0.95
  14  -7   0   20.11    1.49
   7 -14   0   18.69    1.23
   7   7   0   20.48    1.54
  14  -7   0   21.17    1.30
   8   6   0    5.36    0.41
  -6  14   0    6.93    1.22
   8   6   0    7.04    0.97
  14  -6   0    6.47    0.93
   8 -14   0    5.77    0.72
   6   8   0    5.42    0.88
   6 -14   0    5.21    0.69
  -8  14   0    4.92    0.96
  14  -8   0    4.66    0.67
  14  -6   0    5.28    0.70
  14  -5   0    0.28    0.24
   5   9   0   -0.23    0.24
  -9  14   0    0.50    0.36
   9   5   0    0.53    0.33
   5 -14   0    0.43    0.24
  14  -9   0    0.09    0.19
 -14   9   0   -0.06    0.20
  -5  14   0    0.02    0.40
   9   5   0    0.22    0.13
  14  -5   0    0.24    0.33
   9 -14   0    0.26    0.24
  14  -4   0    1.63    0.39
  -4  14   0    0.83    0.51
 -14  10   0    1.43    0.39
  10   4   0    1.15    0.46
  14 -10   0    1.34    0.41
  14  -4   0    0.98    0.45
  10 -14   0    1.12    0.34
  10   4   0    1.34    0.25
 -10  14   0    1.91    0.54
   4  10   0    1.50    0.54
  -3  14   0   -0.06    0.34
  11   3   0    0.73    0.36
 -11  14   0    0.32    0.32
  14  -3   0   -0.02    0.21
  11 -14   0   -0.30    0.21
 -14  11   0    0.75    0.32
  11   3   0   -0.20    0.10
  14  -3   0    0.10    0.35
  14 -11   0    0.02    0.25
   3  11   0    0.41    0.39
  -2  14   0    7.92    1.34
  14  -2   0    8.49    0.75
 -12  14   0    7.14    1.06
   2  12   0    8.76    1.25
  12   2   0    9.24    1.18
  14  -2   0    9.49    1.17
  12 -14   0    7.53    0.89
 -14  12   0    7.18    0.98
  14 -12   0    7.93    0.94
  12   2   0    9.24    0.63
  -1  14   0    0.40    0.41
 -13  14   0   -0.12    0.26
  14  -1   0    0.13    0.24
  13 -14   0   -0.10    0.23
   1  13   0    0.73    0.43
  13   1   0    0.12    0.17
 -14  13   0    0.25    0.26
  13   1   0    0.65    0.37
  14  -1   0    0.11    0.34
  14 -13   0    0.10    0.26
  14 -14   0    0.18    0.30
 -14  14   0    0.31    0.31
   0  14   0   -0.19    0.33
  14   0   0    0.49    0.20
  14   0   0    0.14    0.36
   8   7   0    0.76    0.35
   7   8   0    0.07    0.30
  15  -8   0   -0.38    0.32
  15  -7   0    0.08    0.21
   8 -15   0   -0.06    0.23
  -7  15   0    0.23    0.38
  -8  15   0    0.41    0.41
  15  -8   0    0.20    0.22
   7 -15   0    0.60    0.29
  15  -7   0    0.41    0.39
  -6  15   0    0.68    0.48
  15  -6   0    0.38    0.27
  15  -9   0   -0.22    0.16
   9   6   0    0.35    0.33
   6 -15   0    0.53    0.26
 -15   9   0    0.03    0.28
  15  -6   0   -0.47    0.30
   9 -15   0    0.13    0.23
   6   9   0    0.44    0.31
  -9  15   0   -0.46    0.28
  15  -5   0    0.29    0.25
  10   5   0   -0.15    0.10
 -10  15   0   -0.13    0.32
  10   5   0   -0.18    0.26
  10 -15   0    0.06    0.22
  -5  15   0   -0.22    0.38
 -15  10   0   -0.11    0.25
  15  -5   0    0.16    0.31
   5  10   0    0.04    0.29
  15 -10   0   -0.38    0.19
 -11  15   0    0.62    0.34
  15  -4   0    0.54    0.37
  15 -11   0    0.35    0.30
  11   4   0    0.30    0.31
  11   4   0    0.16    0.13
   4  11   0    0.36    0.33
 -15  11   0    0.52    0.33
  15  -4   0    0.35    0.27
  -4  15   0    0.45    0.42
  11 -15   0    0.54    0.30
  12 -15   0    1.24    0.42
 -12  15   0    0.59    0.37
  12   3   0    0.87    0.23
  15  -3   0    1.03    0.35
  15 -12   0    0.93    0.38
  -3  15   0    1.52    0.63
  15  -3   0    0.92    0.44
  12   3   0    0.36    0.38
 -15  12   0    1.15    0.43
   3  12   0    1.37    0.52
  13 -15   0    0.23    0.29
  13   2   0    0.03    0.15
  15  -2   0    0.61    0.38
  15 -13   0    0.35    0.32
 -15  13   0    0.28    0.29
  13   2   0    0.13    0.36
 -13  15   0   -0.14    0.28
  -2  15   0   -0.24    0.31
  15  -2   0    0.06    0.26
   2  13   0   -0.03    0.26
  15  -1   0    2.87    0.67
  14 -15   0    2.89    0.62
 -14  15   0    2.54    0.67
  14   1   0    2.46    0.44
  15  -1   0    3.36    0.57
  15 -14   0    2.70    0.61
  -1  15   0    3.98    0.99
  14   1   0    3.16    0.74
 -15  14   0    3.54    0.72
   1  14   0    1.85    0.67
  15   0   0    0.48    0.41
 -15  15   0    0.43    0.32
   0  15   0    0.79    0.54
  15 -15   0    0.15    0.27
  15   0   0    0.73    0.32
   8   8   0    5.20    0.92
  16  -8   0    5.02    0.87
  16  -8   0    5.08    0.74
  -8  16   0    3.57    0.91
   8 -16   0    5.17    0.74
  16  -7   0    7.22    0.87
   9   7   0    7.96    1.14
  -9  16   0    7.36    1.30
   9 -16   0    7.17    0.88
  16  -9   0    7.59    0.91
  -7  16   0    7.15    1.33
   7   9   0    7.28    1.14
  16  -7   0    8.31    1.11
 -16   9   0    7.20    0.96
  16 -10   0   -0.02    0.23
  -6  16   0    0.00    0.42
  10   6   0    0.15    0.31
 -16  10   0    0.26    0.33
  10 -16   0    0.27    0.27
   6  10   0    1.21    0.48
  16  -6   0    0.37    0.30
  16  -6   0    0.31    0.35
 -10  16   0    0.18    0.35
 -11  16   0    1.60    0.58
   5  11   0    1.67    0.55
  16 -11   0    1.20    0.42
  -5  16   0    2.17    0.77
  11   5   0    2.42    0.65
  16  -5   0    2.06    0.49
  16  -5   0    2.08    0.57
  11 -16   0    1.62    0.45
 -16  11   0    1.40    0.45
   4  12   0    2.31    0.69
  12   4   0    3.40    0.75
  16  -4   0    2.76    0.66
  12   4   0    2.16    0.33
  -4  16   0    2.83    0.91
 -12  16   0    2.14    0.63
  16  -4   0    2.49    0.51
 -16  12   0    1.69    0.48
  16 -12   0    2.06    0.54
  12 -16   0    2.46    0.56
 -13  16   0    2.26    0.64
  13 -16   0    2.34    0.53
  13   3   0    1.97    0.36
   3  13   0    2.99    0.77
  13   3   0    2.32    0.65
  16  -3   0    1.59    0.41
  16  -3   0    2.26    0.62
  16 -13   0    2.27    0.58
  -3  16   0    1.63    0.70
 -16  13   0    1.83    0.53
  16 -14   0    4.43    0.80
 -14  16   0    4.34    0.96
   2  14   0    4.09    0.93
  14 -16   0    3.82    0.70
  16  -2   0    5.34    0.96
  16  -2   0    3.56    0.59
  -2  16   0    3.57    0.96
 -16  14   0    3.74    0.77
  14   2   0    3.60    0.85
  14   2   0    4.56    0.55
  15   1   0    1.65    0.55
  15 -16   0    1.22    0.45
   1  15   0    1.86    0.67
  16 -15   0    0.98    0.43
 -16  15   0    1.23    0.49
 -15  16   0    1.25    0.49
  -1  16   0    0.69    0.54
  16  -1   0    1.94    0.44
  15   1   0    1.35    0.36
  16  -1   0    1.19    0.52
 -16  16   0    2.90    0.71
  16   0   0    2.14    0.64
   0  16   0    1.92    0.73
  16   0   0    1.58    0.43
  16 -16   0    2.12    0.56
   9 -17   0    8.02    0.93
  17  -8   0    8.18    1.12
 -17   9   0    6.05    0.95
  -9  17   0    4.43    1.06
  17  -9   0    6.27    0.86
  17  -8   0    5.84    0.83
  -8  17   0    6.24    1.29
   9   8   0    6.61    1.05
   8   9   0    5.40    0.97
 -10  17   0    0.17    0.45
  -7  17   0    0.45    0.56
  17  -7   0    0.58    0.35
 -17  10   0    0.48    0.38
  17  -7   0   -0.15    0.35
  10   7   0    0.58    0.42
  10 -17   0    1.08    0.36
   7  10   0    0.21    0.57
  17 -10   0    0.90    0.37
  11 -17   0    3.67    0.66
   6  11   0    3.73    0.81
  11   6   0    2.99    0.73
 -17  11   0    2.77    0.64
  -6  17   0    1.46    0.68
  17  -6   0    2.86    0.57
 -11  17   0    2.20    0.69
  17  -6   0    2.35    0.61
  17 -11   0    2.78    0.61
 -17  12   0    0.51    0.35
  -5  17   0    1.02    0.60
  17 -12   0    0.53    0.34
  17  -5   0    1.01    0.47
   5  12   0    0.40    0.35
  12   5   0    1.19    0.53
 -12  17   0    1.42    0.55
  17  -5   0    1.22    0.41
  12 -17   0    0.61    0.40
  -4  17   0    0.72    0.60
  13 -17   0    1.68    0.47
   4  13   0    1.14    0.47
  13   4   0    1.49    0.55
 -13  17   0    2.74    0.72
  17 -13   0    1.17    0.47
  17  -4   0    1.41    0.45
 -17  13   0    1.72    0.52
  17  -4   0    0.59    0.43
  17 -14   0    1.69    0.55
  -3  17   0    1.26    0.70
 -14  17   0    1.82    0.59
   3  14   0    1.59    0.60
  14 -17   0    0.99    0.43
 -17  14   0    1.98    0.55
  17  -3   0    2.07    0.58
  17  -3   0    1.55    0.45
  14   3   0    1.91    0.65
 -15  17   0    0.34    0.38
   2  15   0    0.17    0.44
 -17  15   0   -0.43    0.28
  15   2   0   -0.12    0.35
  17  -2   0    0.45    0.39
  17 -15   0    0.47    0.38
  15   2   0    0.09    0.22
  -2  17   0   -0.56    0.46
  15 -17   0   -0.21    0.26
  17  -2   0   -0.07    0.23
  16   1   0   -0.04    0.40
  16   1   0    0.08    0.27
  17  -1   0    0.25    0.26
 -16  17   0    0.23    0.36
  -1  17   0   -0.15    0.39
  16 -17   0    0.14    0.34
   1  16   0   -0.43    0.37
  17  -1   0    0.72    0.41
 -17  16   0    0.16    0.37
  17 -16   0    0.03    0.34
  17   0   0    4.96    1.02
 -17  17   0    3.02    0.79
   0  17   0    5.12    1.15
  17 -17   0    4.26    0.80
   9   9   0    3.64    0.83
  -9  18   0    3.62    0.95
  18  -9   0    3.83    0.71
  18 -10   0    0.07    0.29
 -10  18   0    0.14    0.46
  18  -8   0    0.02    0.23
  18  -8   0    0.30    0.38
   8  10   0   -0.42    0.33
 -18  10   0   -0.44    0.28
  10   8   0    0.51    0.41
  -8  18   0    0.10    0.42
  11   7   0    2.43    0.70
  18  -7   0    4.67    0.86
  18 -11   0    3.12    0.66
  -7  18   0    2.32    0.79
 -11  18   0    3.18    0.84
  11 -18   0    4.40    0.72
   7  11   0    4.05    0.99
 -18  11   0    3.79    0.78
  18  -7   0    2.88    0.58
   6  12   0    0.60    0.44
  18  -6   0   -0.22    0.23
 -18  12   0   -0.02    0.28
  18  -6   0    0.22    0.41
 -12  18   0   -0.42    0.39
  12 -18   0   -0.17    0.25
  12   6   0    0.55    0.40
  -6  18   0    0.29    0.49
  18 -12   0    0.66    0.37
 -13  18   0    1.46    0.60
  18 -13   0    1.39    0.50
  13 -18   0    1.53    0.44
 -18  13   0    1.53    0.51
  18  -5   0    1.03    0.51
   5  13   0    0.59    0.48
  18  -5   0    0.70    0.34
  -5  18   0    0.64    0.56
  13   5   0    1.17    0.52
  14 -18   0    0.15    0.30
 -18  14   0    0.31    0.34
   4  14   0    0.63    0.45
  18 -14   0    0.36    0.32
  18  -4   0    1.31    0.44
  14   4   0    0.17    0.46
 -14  18   0    0.53    0.43
  -4  18   0   -0.96    0.42
  18  -4   0    0.41    0.32
  15 -18   0    1.13    0.43
  15   3   0    1.55    0.59
  18  -3   0    0.99    0.49
   3  15   0    1.35    0.57
 -15  18   0    1.11    0.57
  18 -15   0    0.89    0.45
  -3  18   0    2.81    0.95
  18  -3   0    1.31    0.42
 -18  15   0    0.42    0.40
  16 -18   0    1.30    0.47
   2  16   0    1.02    0.55
  -2  18   0   -0.25    0.41
  18  -2   0    1.55    0.54
 -16  18   0    1.28    0.46
 -18  16   0    0.81    0.46
  18 -16   0    0.95    0.47
  18  -2   0    1.59    0.46
  16   2   0   -0.16    0.46
  17 -18   0   -0.16    0.34
  18  -1   0    0.86    0.37
  -1  18   0    0.45    0.51
  18  -1   0    1.15    0.53
  17   1   0    1.01    0.46
   1  17   0    0.08    0.53
  18 -17   0    0.92    0.51
 -18  17   0   -0.56    0.36
 -17  18   0    0.99    0.67
  18   0   0   -0.06    0.42
   0  18   0    0.53    0.51
 -18  18   0    0.71    0.44
  18 -18   0    0.29    0.37
  18   0   0    0.00    0.26
  19 -10   0    0.57    0.39
 -10  19   0    0.31    0.51
  10   9   0    0.68    0.41
  19  -9   0    1.31    0.48
 -19  10   0    1.13    0.51
   9  10   0    0.12    0.40
  -9  19   0   -0.01    0.51
  19 -11   0   -0.38    0.27
  -8  19   0    0.48    0.55
   8  11   0   -0.06    0.35
  19  -8   0   -0.07    0.25
 -19  11   0   -0.16    0.31
 -11  19   0    0.22    0.47
  19  -8   0    0.00    0.45
  11   8   0    0.35    0.40
  12   7   0    4.46    0.90
  19  -7   0    2.95    0.61
 -12  19   0    3.21    0.90
  19 -12   0    4.09    0.77
 -19  12   0    2.98    0.67
   7  12   0    3.07    0.98
  -7  19   0    2.50    0.86
  19  -7   0    3.08    0.75
  12 -19   0    2.62    0.55
 -13  19   0    0.22    0.46
  13   6   0    0.44    0.42
  19  -6   0   -0.05    0.22
   6  13   0    0.58    0.40
  13 -19   0    0.29    0.37
  -6  19   0   -0.07    0.53
  19  -6   0    0.18    0.36
 -19  13   0    0.62    0.43
  19 -13   0    0.32    0.35
 -14  19   0    1.20    0.58
  -5  19   0    1.46    0.70
  19 -14   0    0.83    0.48
  14   5   0    2.35    0.70
  19  -5   0    2.22    0.64
  14 -19   0    1.50    0.51
 -19  14   0    0.62    0.38
   5  14   0    1.45    0.61
  19  -5   0    0.75    0.35
  19  -4   0    0.14    0.26
  19 -15   0    0.35    0.35
 -19  15   0    0.41    0.39
 -15  19   0    0.30    0.52
  15 -19   0    0.25    0.32
   4  15   0    1.13    0.50
  19  -4   0    0.17    0.39
  -4  19   0    0.77    0.60
  15   4   0    0.54    0.46
  19  -3   0    0.31    0.46
  16   3   0    0.09    0.40
 -16  19   0    0.41    0.37
  19 -16   0    0.49    0.41
  16 -19   0    0.44    0.38
 -19  16   0    0.20    0.39
  19  -3   0    0.14    0.26
   3  16   0    0.01    0.42
  -3  19   0    0.74    0.62
 -19  17   0    0.23    0.40
  17 -19   0    0.76    0.37
  -2  19   0    0.90    0.62
 -17  19   0    0.19    0.41
  19  -2   0    0.18    0.45
  19  -2   0    0.75    0.34
   2  17   0    0.69    0.53
  19 -17   0   -0.01    0.32
  17   2   0    0.00    0.43
  19  -1   0    0.39    0.32
   1  18   0    1.07    0.58
  18 -19   0   -0.02    0.33
 -19  18   0    0.05    0.40
  19 -18   0   -0.54    0.27
  19  -1   0    1.02    0.54
 -18  19   0    0.48    0.53
  -1  19   0    0.89    0.53
  18   1   0    0.69    0.55
 -19  19   0    0.87    0.58
  19 -19   0    1.43    0.51
  19   0   0    1.39    0.53
   0  19   0    0.06    0.47
  20 -10   0    2.64    0.64
 -10  20   0    2.62    0.79
 -20  10   0    2.85    0.73
  10  10   0    2.12    0.65
  20  -9   0    3.23    0.67
 -11  20   0    3.05    0.92
   9  11   0    2.70    0.79
  -9  20   0    3.91    1.12
  20 -11   0    3.29    0.73
  11   9   0    5.16    1.02
 -20  11   0    3.99    0.83
  20 -12   0    3.45    0.74
  -8  20   0    2.76    0.95
  12   8   0    4.18    0.91
  20  -8   0    3.33    0.69
 -12  20   0    5.21    1.19
   8  12   0    5.44    1.01
  20  -8   0    6.72    1.10
 -20  12   0    5.26    0.93
  20  -7   0    1.08    0.54
  20  -7   0    0.55    0.39
 -20  13   0    0.58    0.43
  -7  20   0    0.63    0.56
   7  13   0    0.61    0.71
  20 -13   0    1.14    0.52
  13   7   0    0.74    0.50
 -13  20   0    1.05    0.56
  -6  20   0   -0.69    0.47
  20  -6   0   -0.63    0.38
  20  -6   0    0.01    0.25
 -14  20   0    0.20    0.54
  14   6   0   -0.42    0.33
 -20  14   0   -0.13    0.34
  20 -14   0    0.71    0.44
  14 -20   0    0.16    0.34
   6  14   0    1.10    0.48
  20  -5   0    0.16    0.26
 -20  15   0    0.02    0.32
  20 -15   0    0.41    0.39
  20  -5   0    0.09    0.46
  15 -20   0    0.12    0.33
   5  15   0    0.46    0.43
 -15  20   0    0.66    0.54
  -5  20   0    1.04    0.56
  15   5   0    0.23    0.50
  16   4   0   -0.79    0.40
 -20  16   0   -0.05    0.37
  20  -4   0   -0.28    0.38
  20 -16   0    0.17    0.39
 -16  20   0    0.75    0.50
  -4  20   0    0.51    0.60
  16 -20   0    0.01    0.30
   4  16   0   -0.34    0.38
  20  -4   0   -0.06    0.23
  20  -3   0    1.02    0.41
  17 -20   0    2.05    0.60
  -3  20   0    2.11    0.81
   3  17   0    0.70    0.59
 -20  17   0    1.18    0.54
  20  -3   0    1.78    0.59
 -17  20   0    2.29    0.69
  20 -17   0    1.72    0.58
  17   3   0    2.81    0.80
   2  18   0   -0.17    0.45
  18 -20   0    0.16    0.39
 -18  20   0   -0.16    0.45
  20 -18   0   -0.07    0.31
  20  -2   0   -0.36    0.22
 -20  18   0    0.13    0.47
  -2  20   0   -0.27    0.46
  20  -2   0    0.68    0.48
  18   2   0   -0.12    0.55
 -19  20   0    0.78    0.53
  20 -19   0    0.93    0.50
  -1  20   0    1.78    0.65
  19 -20   0    1.26    0.50
  19   1   0    1.88    0.64
   1  19   0    0.80    0.54
 -20  19   0    1.11    0.57
  20  -1   0    1.89    0.65
 -20  20   0    3.04    0.89
   0  20   0    4.27    1.12
  20   0   0    5.40    0.97
  20 -20   0    3.05    0.71
 -21  11   0    0.12    0.42
 -11  21   0    1.23    0.58
 -21  10   0    0.11    0.41
  21 -10   0    0.68    0.40
  10  11   0    0.58    0.49
  11  10   0    0.99    0.57
 -10  21   0    0.22    0.59
  21 -11   0    1.12    0.43
 -12  21   0    2.63    0.89
   9  12   0    1.86    0.66
  12   9   0    1.54    0.57
  -9  21   0    2.21    0.86
 -21  12   0    1.63    0.58
  21 -12   0    1.88    0.54
  21  -9   0    2.97    0.63
  13   8   0    0.19    0.44
   8  13   0   -0.41    0.37
  21 -13   0    0.56    0.38
  -8  21   0    1.29    0.60
  21  -8   0   -0.21    0.24
  21  -8   0   -0.10    0.48
 -13  21   0    0.25    0.51
 -21  13   0    0.11    0.36
 -14  21   0   -0.70    0.48
  21 -14   0    0.15    0.37
  14   7   0    0.71    0.50
 -21  14   0    0.88    0.43
  21  -7   0    0.87    0.38
  -7  21   0    0.96    0.67
   7  14   0    1.05    0.51
   6  15   0    0.45    0.46
 -21  15   0    0.04    0.36
  -6  21   0   -0.75    0.52
  21  -6   0   -0.06    0.27
  21 -15   0   -0.41    0.32
  15   6   0    0.30    0.50
 -15  21   0    0.75    0.55
  -5  21   0    0.69    0.65
  16   5   0    1.07    0.57
  21  -5   0    0.87    0.34
  16 -21   0    0.22    0.38
 -21  16   0    1.15    0.48
  21 -16   0    0.06    0.33
 -16  21   0    0.23    0.53
   5  16   0   -0.39    0.40
  21  -4   0    0.22    0.27
  21 -17   0    0.38    0.36
   4  17   0    0.25    0.48
 -21  17   0    0.15    0.37
  17   4   0   -0.62    0.52
  17 -21   0    0.62    0.39
 -17  21   0    0.45    0.53
  -4  21   0    0.09    0.60
  -3  21   0   -0.18    0.48
 -21  18   0    0.61    0.45
  18 -21   0   -0.26    0.34
  21 -18   0   -0.63    0.30
  21  -3   0    0.54    0.33
  18   3   0    0.79    0.57
   3  18   0    0.46    0.46
 -21  19   0    1.08    0.50
  19   2   0    2.37    0.66
  -2  21   0   -0.89    0.54
  21 -19   0    0.03    0.39
  19 -21   0    0.54    0.41
 -19  21   0    1.40    0.66
   2  19   0    0.70    0.51
  20   1   0    0.35    0.56
  -1  21   0    0.46    0.62
   1  20   0    0.36    0.49
 -21  20   0    0.09    0.49
  20 -21   0    0.89    0.42
 -20  21   0   -0.04    0.58
  21 -20   0    0.12    0.39
   0  21   0    1.65    0.69
  21 -21   0    0.28    0.40
  11  11   0    1.57    0.66
 -11  22   0    1.32    0.74
  22 -11   0    1.39    0.44
 -12  22   0    1.29    0.55
  22 -10   0    0.13    0.35
  22 -12   0   -0.29    0.25
  10  12   0    0.30    0.46
  12  10   0   -0.13    0.39
 -10  22   0    0.67    0.61
  -9  22   0    0.84    0.57
 -13  22   0    0.20    0.54
  22 -13   0   -0.29    0.29
   9  13   0    0.28    0.42
  22  -9   0    0.12    0.35
  13   9   0    0.26    0.44
 -14  22   0    0.97    0.67
  22 -14   0    0.09    0.36
   8  14   0   -0.58    0.40
  22  -8   0    0.24    0.30
  14   8   0    1.41    0.51
  15   7   0    0.64    0.45
  -7  22   0    0.13    0.52
  22 -15   0    0.60    0.38
 -15  22   0   -0.16    0.61
   7  15   0    0.00    0.46
  22  -7   0    0.54    0.35
   6  16   0   -0.08    0.43
  22  -6   0   -0.28    0.27
  16   6   0   -0.80    0.47
  22 -16   0    1.28    0.55
 -16  22   0    0.11    0.57
  -6  22   0    0.96    0.59
   5  17   0    1.05    0.54
  -5  22   0    0.67    0.66
  22 -17   0    0.61    0.45
 -17  22   0   -0.18    0.52
  22  -5   0   -0.08    0.26
  17   5   0    0.34    0.48
   4  18   0   -0.32    0.44
  18 -22   0   -0.26    0.35
  22 -18   0    0.06    0.35
  22  -4   0   -0.71    0.30
 -18  22   0   -0.72    0.63
  -4  22   0    0.45    0.60
  18   4   0   -0.13    0.54
  -3  22   0    0.28    0.54
   3  19   0    1.09    0.61
  19   3   0   -0.38    0.54
  19 -22   0    1.13    0.47
  22 -19   0    0.17    0.41
 -19  22   0    0.94    0.58
   2  20   0    1.60    0.71
  20   2   0    1.37    0.63
  -2  22   0    0.01    0.53
  22 -20   0    0.66    0.47
 -20  22   0    0.03    0.59
  20 -22   0   -0.01    0.39
 -11  23   0    0.84    0.82
 -12  23   0   -1.38    0.58
  11  12   0    0.36    0.47
  23 -11   0    0.03    0.27
  12  11   0   -1.10    0.37
  23 -12   0    0.27    0.32
  13  10   0    0.16    0.44
  23 -13   0   -0.57    0.26
  10  13   0   -0.49    0.38
 -10  23   0    0.20    0.64
 -13  23   0   -0.09    0.57
  23 -10   0   -0.43    0.28
   9  14   0    0.26    0.45
  -9  23   0   -0.24    0.58
 -14  23   0   -0.58    0.57
  23 -14   0    0.04    0.35
  23  -9   0   -0.41    0.26
  14   9   0    0.16    0.42
  15   8   0   -0.08    0.50
   8  15   0   -0.26    0.52
  -8  23   0    0.16    0.65
 -15  23   0    1.33    0.72
  23 -15   0    0.21    0.44
  23  -8   0    0.47    0.39
 -16  23   0   -0.17    0.58
  -7  23   0    0.04    0.59
  23 -16   0    0.43    0.39
  16   7   0    0.58    0.54
  23  -7   0    0.35    0.36
   7  16   0    1.17    0.62
  -6  23   0   -1.02    0.56
   6  17   0    0.95    0.60
  23 -17   0    0.54    0.43
 -17  23   0   -1.11    0.58
  17   6   0    0.68    0.60
  23  -6   0   -0.12    0.29
  23 -18   0   -0.21    0.38
  -5  23   0    1.06    0.66
 -18  23   0    1.03    0.66
  18   5   0   -0.40    0.56
   5  18   0   -0.42    0.53
 -12  24   0   -0.42    0.65
  12  12   0   -0.09    0.44
  24 -12   0   -0.17    0.34
  13  11   0    0.33    0.48
 -13  24   0   -1.31    0.59
 -11  24   0    0.10    0.63
  11  13   0   -1.02    0.39
  24 -11   0   -0.51    0.28
  24 -13   0   -0.35    0.36
  24 -10   0   -0.18    0.36
  24 -14   0   -0.11    0.33
  10  14   0   -0.37    0.41
 -14  24   0   -0.57    0.61
 -10  24   0    0.55    0.72
  14  10   0   -0.38    0.43
  -9  24   0    1.83    0.89
  15   9   0   -0.52    0.43
 -15  24   0   -0.33    0.62
  24  -9   0    0.29    0.39
   9  15   0    0.29    0.54
  16   8   0    0.78    0.65
 -16  24   0    0.93    0.72
   8  16   0    0.50    0.52
  -8  24   0   -0.12    0.71
   1   0  -1   -0.17    0.04
   0  -1  -1   -0.13    0.04
   1  -1  -1   -0.08    0.04
   1  -1   1   -0.10    0.02
   1   0   1   -0.11    0.03
   0   1  -1   -0.12    0.04
   0   1   1   -0.10    0.05
   1   1   1  342.41   11.73
  -1   2   1  332.01   12.34
   2  -1   1  323.59   11.66
   2  -1  -1  342.11   11.70
   1   1   1  335.51   12.36
   1   1  -1  348.52   12.34
   1  -2   1  326.04   11.67
  -1   2  -1  344.79   12.38
   1  -2  -1  335.98   11.75
   2  -1  -1  341.60   12.35
   2   0   1   -0.15    0.05
   0  -2  -1   -0.04    0.07
   2   0  -1   -0.08    0.08
  -2   2  -1   -0.06    0.05
   2   0  -1   -0.11    0.03
   0   2  -1   -0.17    0.07
  -2   2   1   -0.08    0.08
   0   2   1   -0.12    0.09
   2  -2   1   -0.03    0.04
   2   0   1   -0.09    0.04
   2  -2  -1   -0.07    0.05
   3  -1   1   18.11    0.76
   1   2   1   17.71    0.95
   2   1  -1   18.50    0.90
   3  -2  -1   18.08    0.91
  -2   3   1   18.03    0.91
   2   1  -1   20.52    0.71
   1  -3  -1   19.11    0.85
   2  -3   1   18.59    0.75
  -1   3  -1   18.79    0.98
   3  -2  -1   19.68    0.81
   1   2   1   17.87    0.80
   3  -1   1   18.84    0.85
   3  -1  -1   20.74    0.80
  -2   3  -1   20.63    0.94
   1  -3   1   18.96    0.73
   2  -3  -1   19.19    0.83
   1   2  -1   19.14    0.93
   3  -2   1   18.35    0.84
  -1   3   1   17.14    0.95
   2   1   1   17.76    0.78
   3  -2   1   17.51    0.75
   3  -1  -1   19.32    0.93
   2   1   1   18.75    0.88
  -3   3   1   -0.12    0.07
   3   0  -1   -0.03    0.10
   3   0   1   -0.08    0.08
   3  -3   1    0.11    0.07
   3   0   1   -0.10    0.06
   0   3  -1   -0.28    0.10
   3  -3  -1   -0.09    0.05
   3   0  -1   -0.09    0.06
   0   3   1   -0.11    0.14
   0  -3  -1   -0.06    0.09
  -3   3  -1    0.02    0.07
  -2   4  -1  263.44    9.94
   4  -2  -1  267.29    9.29
   2   2   1  268.78    9.27
   2   2  -1  258.26    9.86
   2  -4   1  282.07    9.24
   2  -4  -1  245.83    9.31
   2   2  -1  258.33    9.16
  -2   4   1  269.40    9.94
   4  -2  -1  257.50    9.86
   2   2   1  266.35    9.87
   4  -2   1  277.08    9.79
   4  -2   1  261.85    9.22
   3  -4   1   65.77    2.36
  -1   4  -1   61.50    2.74
   4  -1   1   61.90    2.54
   1   3   1   59.03    2.70
   3   1  -1   65.91    2.28
  -3   4   1   67.61    2.65
  -4   3  -1   67.45    2.51
   4  -1   1   64.85    2.34
   1  -4  -1   63.27    2.44
   1   3   1   65.36    2.39
   4  -3  -1   63.53    2.63
   3   1  -1   64.00    2.63
   4  -3  -1   61.78    2.41
  -1   4   1   61.11    2.75
  -3   4  -1   66.72    2.63
   4  -3   1   61.41    2.33
   3   1   1   64.50    2.36
   1   3  -1   64.36    2.67
   4  -1  -1   64.01    2.64
   3   1   1   63.35    2.57
   1  -4   1   63.60    2.31
   4  -1  -1   58.19    2.35
   4   0   1    0.04    0.11
  -4   4   1    0.01    0.12
  -4   4  -1   -0.02    0.08
   4   0   1    0.00    0.06
   4   0  -1   -0.05    0.05
   4   0  -1   -0.11    0.09
   0   4  -1    0.01    0.16
   4  -4   1    0.03    0.09
   4  -4  -1   -0.15    0.07
   0   4   1   -0.21    0.17
   0  -4   1    0.04    0.06
   2  -5  -1   10.05    0.61
   3   2  -1   10.10    0.45
   5  -2   1   11.30    0.53
   3  -5   1   11.74    0.56
   5  -3  -1    9.42    0.69
   5  -3  -1    9.14    0.57
  -3   5   1   11.85    0.77
   3   2  -1    9.07    0.67
   5  -2   1   11.55    0.67
  -2   5  -1   10.29    0.78
   2   3   1   12.11    0.58
   2   3   1   11.23    0.75
   3  -5  -1    9.50    0.59
   5  -3   1   11.29    0.66
   2  -5   1   11.27    0.53
   2   3  -1    9.73    0.70
  -2   5   1   11.78    0.83
   3   2   1   10.41    0.68
  -3   5  -1   10.38    0.74
   2   3  -1    9.36    0.44
   5  -2  -1   10.04    0.56
   5  -3   1   11.55    0.54
   5  -2  -1    9.50    0.69
   3   2   1   11.97    0.56
   4   1  -1   74.34    2.56
  -1   5  -1   63.68    3.07
  -5   4  -1   73.55    2.85
  -4   5   1   68.81    2.95
   1   4   1   76.73    2.70
   1  -5  -1   73.26    2.76
   4   1  -1   65.11    2.93
   4  -5   1   70.72    2.67
   5  -4  -1   68.27    2.71
   5  -1   1   70.22    2.89
   5  -1   1   75.66    2.64
   1   4   1   66.43    3.08
  -1   5   1   71.67    3.16
   1  -5   1   70.63    2.61
   4  -5  -1   67.16    2.72
   1   4  -1   73.89    2.55
   4   1   1   72.83    2.64
  -5   4   1   79.58    2.95
   5  -1  -1   73.25    2.66
   4   1   1   69.65    2.90
   1   4  -1   71.17    3.05
   5  -1  -1   60.98    2.92
   5  -4   1   69.62    2.65
  -4   5  -1   70.60    2.95
   0   5  -1   -0.07    0.17
   5   0   1   -0.05    0.06
   0   5   1   -0.04    0.20
   5  -5  -1    0.01    0.11
  -5   5   1   -0.07    0.10
   5   0  -1    0.09    0.07
   0  -5   1    0.05    0.09
   5   0   1    0.00    0.12
  -5   5  -1    0.21    0.12
   5   0  -1   -0.06    0.14
   0  -5  -1   -0.02    0.11
   5  -5   1    0.13    0.11
   6  -3   1  127.46    4.70
   3  -6   1  122.56    4.33
   3  -6  -1  116.48    4.43
  -3   6   1  119.10    4.88
   6  -3   1  129.52    4.32
   3   3  -1  117.82    4.20
  -3   6  -1  114.91    4.88
   6  -3  -1  115.63    4.38
   3   3  -1  108.36    4.73
   3   3   1  115.87    4.76
   6  -3  -1  113.93    4.75
   3   3   1  123.94    4.33
   4   2  -1    7.73    0.38
   6  -4  -1    8.67    0.54
   4   2  -1    7.18    0.61
  -4   6   1    8.74    0.69
  -2   6  -1    7.94    0.81
   6  -2   1    8.61    0.46
   6  -4  -1    6.18    0.59
   4  -6   1    8.00    0.48
   2  -6  -1    6.66    0.51
   6  -2   1    7.82    0.59
   2   4   1    9.22    0.50
   2   4   1    8.68    0.71
   2   4  -1    6.95    0.65
   2  -6   1    8.48    0.47
  -4   6  -1    7.35    0.64
   4   2   1    8.38    0.47
   4   2   1    8.49    0.62
   6  -2  -1    7.66    0.64
   2   4  -1    7.53    0.37
   6  -4   1    8.19    0.48
   6  -2  -1    6.71    0.47
   4  -6  -1    7.57    0.53
  -2   6   1    8.58    0.85
  -6   5  -1   30.05    1.43
   6  -1   1   29.90    1.49
  -1   6  -1   32.90    1.76
   5   1  -1   32.02    1.21
   5   1  -1   32.21    1.56
   1  -6  -1   31.45    1.39
   1   5   1   30.27    1.71
   6  -5  -1   29.03    1.36
  -5   6   1   29.23    1.53
   1   5   1   29.46    1.30
   5  -6   1   29.27    1.32
   6  -1   1   32.08    1.28
   1   5  -1   31.18    1.65
   6  -1  -1   30.78    1.57
   5   1   1   29.61    1.26
   1  -6   1   30.53    1.27
   5   1   1   29.21    1.49
  -5   6  -1   32.89    1.56
   5  -6  -1   29.77    1.38
  -1   6   1   29.72    1.75
   1   5  -1   32.82    1.20
  -6   5   1   30.50    1.50
   6  -5   1   28.99    1.32
   6  -6   1    0.02    0.10
   6  -6  -1   -0.05    0.11
   6   0  -1    0.09    0.17
   6   0   1   -0.03    0.07
  -6   6   1   -0.08    0.14
   0   6  -1   -0.18    0.19
  -6   6  -1    0.03    0.12
   0  -6  -1    0.05    0.13
   6   0  -1   -0.02    0.07
   0   6   1   -0.21    0.18
   0  -6   1   -0.06    0.08
   6   0   1    0.16    0.17
   3   4   1    7.25    0.67
   7  -4  -1    7.03    0.51
   4  -7   1    6.93    0.47
   3  -7  -1    7.36    0.54
   7  -3   1    6.19    0.42
   7  -3   1    6.82    0.59
   3   4   1    6.52    0.44
   4   3  -1    6.64    0.62
  -3   7  -1    7.70    0.84
  -4   7   1    6.05    0.75
   4   3  -1    7.78    0.37
   7  -4  -1    7.82    0.66
   7  -3  -1    8.30    0.53
   4   3   1    7.51    0.64
   3   4  -1    7.44    0.36
   4  -7  -1    7.88    0.56
   4   3   1    6.41    0.43
   3   4  -1    7.19    0.71
  -3   7   1    6.43    0.80
  -4   7  -1    8.15    0.81
   7  -4   1    6.50    0.46
   3  -7   1    6.74    0.46
   7  -3  -1    8.53    0.69
   7  -4   1    6.86    0.58
   7  -2   1   39.96    1.60
   7  -5  -1   40.29    1.75
  -7   5  -1   39.82    1.81
   5   2  -1   38.03    1.94
   5   2  -1   40.45    1.52
   2  -7  -1   40.59    1.75
   2   5   1   38.40    2.05
  -5   7   1   38.67    1.99
  -2   7  -1   40.64    2.19
   7  -2   1   39.55    1.89
   5  -7   1   39.00    1.67
   2   5   1   40.98    1.65
   2   5  -1   39.56    2.02
   5   2   1   40.22    1.91
   7  -2  -1   37.51    1.94
   7  -2  -1   42.52    1.69
  -5   7  -1   40.89    2.02
   2  -7   1   38.89    1.63
   7  -5   1   39.26    1.69
   5   2   1   40.25    1.61
  -2   7   1   36.61    2.13
   5  -7  -1   41.10    1.76
   2   5  -1   41.25    1.51
   6   1  -1    3.40    0.26
   7  -1   1    5.04    0.35
   1  -7  -1    4.03    0.45
   1   6   1    4.77    0.71
   7  -1   1    4.45    0.53
   6   1  -1    3.89    0.56
  -6   7   1    4.13    0.55
   6  -7   1    3.95    0.41
  -7   6  -1    3.60    0.44
  -1   7  -1    3.65    0.66
   1   6   1    3.98    0.34
   7  -6  -1    3.77    0.44
   6   1   1    4.20    0.32
   1   6  -1    3.06    0.55
  -7   6   1    3.17    0.46
   7  -6   1    3.98    0.42
   1   6  -1    3.84    0.26
  -6   7  -1    3.60    0.51
  -1   7   1    3.85    0.68
   7  -1  -1    3.63    0.54
   1  -7   1    4.76    0.34
   7  -1  -1    3.66    0.35
   6  -7  -1    3.79    0.45
   6   1   1    4.46    0.53
   7  -7   1   -0.07    0.10
   7   0   1   -0.07    0.14
   7  -7  -1   -0.06    0.13
  -7   7   1    0.08    0.16
   0   7  -1   -0.04    0.22
   0  -7   1    0.03    0.11
   7   0  -1    0.00    0.09
   0   7   1   -0.09    0.22
  -7   7  -1   -0.11    0.11
   0  -7  -1    0.30    0.16
   7   0  -1   -0.24    0.16
   7   0   1    0.04    0.09
  -4   8  -1   35.29    1.94
   4   4  -1   32.32    1.73
   4  -8  -1   34.19    1.54
   4  -8   1   31.09    1.42
   8  -4  -1   33.88    1.50
   8  -4  -1   32.83    1.74
   8  -4   1   31.58    1.41
   4   4   1   29.44    1.68
   4   4  -1   34.32    1.27
   8  -4   1   30.56    1.62
  -4   8   1   30.65    1.84
   4   4   1   31.59    1.37
   5   3  -1   10.44    0.85
   3   5   1   11.62    0.63
   3  -8  -1   10.83    0.74
   5  -8   1   11.26    0.68
   8  -5  -1   10.31    0.71
  -3   8  -1   11.23    1.03
   8  -5  -1    9.47    0.82
   3   5   1   11.40    0.92
   8  -3   1   11.94    0.64
   8  -3   1   11.92    0.84
  -5   8   1   12.77    0.98
   5   3  -1   11.72    0.54
   3   5  -1    9.54    0.84
   3   5  -1   10.52    0.51
   5   3   1   12.33    0.63
   8  -5   1   11.10    0.80
   8  -3  -1   12.06    0.90
   3  -8   1   12.35    0.67
   5  -8  -1   10.49    0.72
   8  -3  -1   11.33    0.70
  -3   8   1   13.06    1.08
   5   3   1   10.68    0.85
   8  -5   1   11.09    0.68
  -5   8  -1   10.95    0.92
   8  -2   1   35.78    1.48
   2   6   1   34.01    1.96
   8  -6  -1   34.51    1.62
   6  -8   1   36.20    1.58
   8  -2   1   36.62    1.81
   6   2  -1   35.88    1.40
   6   2  -1   34.39    1.84
  -8   6  -1   35.36    1.70
  -6   8   1   37.81    1.93
   2   6   1   34.21    1.51
  -2   8  -1   34.08    2.07
   2  -8  -1   35.53    1.64
   6   2   1   34.14    1.47
  -2   8   1   34.78    2.11
   2   6  -1   33.72    1.90
   2   6  -1   35.50    1.38
   2  -8   1   35.03    1.52
  -8   6   1   37.41    1.80
   8  -6   1   35.26    1.59
  -6   8  -1   36.53    1.90
   8  -2  -1   36.36    1.88
   8  -2  -1   37.46    1.57
   6   2   1   32.86    1.77
   6  -8  -1   33.41    1.63
   7  -8   1   17.75    0.96
  -7   8   1   18.82    1.18
   1   7   1   16.36    1.30
   7   1  -1   16.05    1.14
   1  -8  -1   17.54    0.98
   1   7   1   18.40    0.90
   7   1  -1   16.23    0.78
   8  -7  -1   16.40    0.98
  -8   7  -1   18.21    1.07
   8  -1   1   17.52    0.84
  -1   8  -1   14.87    1.26
   8  -1   1   16.26    1.08
   7   1   1   16.87    1.09
   8  -7   1   16.23    0.94
  -1   8   1   17.30    1.39
   1   7  -1   19.48    1.31
   7   1   1   18.04    0.85
  -8   7   1   17.82    1.10
   8  -1  -1   16.62    0.85
   8  -1  -1   16.36    1.14
   7  -8  -1   16.59    0.99
   1   7  -1   17.23    0.78
  -7   8  -1   16.97    1.11
   1  -8   1   17.08    0.86
   8   0  -1    0.11    0.12
  -8   8  -1   -0.39    0.14
   0  -8  -1   -0.05    0.14
   8  -8  -1    0.15    0.17
   8  -8   1   -0.07    0.12
   8   0   1    0.00    0.19
   8   0  -1   -0.22    0.18
   0   8   1   -0.01    0.30
   0   8  -1   -0.07    0.25
   8   0   1    0.09    0.11
  -8   8   1    0.19    0.19
   5  -9   1   10.66    0.70
  -4   9  -1   12.42    1.11
   4   5   1   12.62    0.97
   5   4  -1   13.36    1.00
   9  -4   1   13.01    0.91
   4  -9  -1   11.85    0.79
   5   4  -1   12.52    0.57
   9  -5  -1   12.03    0.95
   9  -4   1   11.42    0.70
  -5   9   1   11.11    1.00
   9  -5  -1   11.38    0.76
   4   5   1   10.56    0.63
  -4   9   1    9.36    1.10
  -5   9  -1   12.13    1.05
   4  -9   1   10.93    0.70
   5  -9  -1   12.48    0.81
   9  -4  -1   11.76    0.95
   5   4   1   11.94    0.94
   9  -4  -1   12.08    0.77
   9  -5   1   10.74    0.84
   9  -5   1   11.80    0.74
   5   4   1   12.24    0.66
   4   5  -1   10.86    0.93
   4   5  -1   12.60    0.57
  -3   9  -1   17.20    1.39
   3   6   1   15.94    0.85
   3   6   1   16.60    1.22
   9  -6  -1   18.47    1.03
   3  -9  -1   18.52    1.03
   6  -9   1   17.64    0.96
  -6   9   1   17.33    1.25
   6   3  -1   17.81    1.19
   6   3  -1   18.99    0.79
   9  -3   1   18.54    1.16
  -9   6  -1   16.56    1.04
   9  -3   1   17.99    0.89
   3   6  -1   17.05    0.75
   3  -9   1   16.35    0.90
   6  -9  -1   18.69    1.04
  -6   9  -1   14.86    1.17
  -3   9   1   16.53    1.38
   9  -3  -1   16.56    1.18
   9  -6   1   16.00    0.95
   6   3   1   16.97    0.85
   9  -3  -1   18.30    0.97
   6   3   1   16.84    1.14
   3   6  -1   16.30    1.19
   7   2  -1   13.23    0.63
   2   7   1   12.86    0.72
   9  -7  -1   13.01    0.85
   7   2  -1   12.18    0.96
   9  -2   1   12.49    0.69
   9  -2   1   12.98    0.95
  -2   9  -1   11.49    1.24
   2   7   1   11.53    1.07
   7  -9   1   12.80    0.80
  -9   7  -1   13.80    0.90
  -7   9   1   11.90    0.98
   2  -9  -1   11.34    0.78
   7  -9  -1   12.91    0.85
   2   7  -1   12.55    1.05
  -2   9   1   10.37    1.24
   2  -9   1   12.06    0.71
  -7   9  -1   12.26    0.98
   2   7  -1   12.98    0.60
   9  -7   1   11.61    0.78
  -9   7   1   11.75    0.90
   7   2   1   11.69    0.66
   9  -2  -1   13.02    0.77
   9  -2  -1   11.56    0.97
   7   2   1   13.25    0.97
   1  -9  -1   15.45    0.96
   8   1  -1   15.93    1.18
  -1   9  -1   19.33    1.46
   1   8   1   15.69    1.33
   1   8   1   17.08    0.90
   9  -1   1   15.84    1.12
  -8   9   1   15.50    1.15
   9  -1   1   16.17    0.84
   9  -8  -1   16.42    1.02
  -9   8  -1   16.21    1.08
   8   1  -1   17.60    0.83
   8  -9   1   15.13    0.95
   8  -9  -1   16.53    1.03
   8   1   1   15.93    1.14
   9  -1  -1   20.57    0.95
  -8   9  -1   17.59    1.18
  -1   9   1   15.96    1.41
   1   8  -1   19.13    0.81
   1   8  -1   15.30    1.27
  -9   8   1   17.14    1.14
   9  -1  -1   15.81    1.18
   8   1   1   15.98    0.83
   9  -8   1   16.48    0.99
   1  -9   1   16.87    0.88
   9   0  -1   -0.02    0.21
   9  -9   1    0.21    0.17
   0   9   1    0.42    0.36
   9  -9  -1   -0.22    0.14
   0   9  -1    0.12    0.09
  -9   9   1   -0.05    0.16
   9   0   1    0.15    0.12
  -9   9  -1    0.18    0.20
   9   0  -1    0.03    0.11
   0   9  -1   -0.04    0.27
   9   0   1    0.12    0.23
   5   5   1    6.90    0.81
   5 -10  -1    7.13    0.61
  -5  10  -1    7.38    1.00
  -5  10   1    6.19    0.91
   5   5  -1    6.82    0.38
  10  -5  -1    6.44    0.80
   5   5  -1    6.74    0.83
   5 -10   1    6.24    0.52
  10  -5  -1    7.40    0.60
   5   5   1    6.41    0.46
  10  -5   1    5.47    0.55
  10  -5   1    7.70    0.78
  10  -4   1   14.44    1.01
   6   4  -1   11.58    0.98
   6 -10   1   13.84    0.83
  10  -4   1   13.36    0.78
   6   4  -1   12.30    0.62
   4 -10  -1   11.25    0.83
   4   6   1   12.85    0.71
  10  -6  -1   11.95    0.83
  10  -6  -1   11.66    1.00
  -6  10   1   12.99    1.11
   4   6   1   14.95    1.11
  -4  10  -1   13.08    1.35
  10  -4  -1   11.27    0.98
  10  -6   1   14.37    1.00
   6   4   1   12.27    0.99
  10  -6   1   13.32    0.84
   6   4   1   13.95    0.72
   4 -10   1   14.22    0.81
  10  -4  -1   11.94    0.81
   4   6  -1   12.10    0.60
  -4  10   1   14.72    1.29
  -6  10  -1   11.33    1.17
   6 -10  -1   12.22    0.86
   4   6  -1   11.25    0.99
  10  -3   1    0.03    0.21
  10  -7  -1    0.54    0.24
   3   7   1    0.28    0.13
  -3  10  -1    0.31    0.34
   3 -10  -1    0.92    0.26
   7 -10   1    0.25    0.18
  -7  10   1   -0.15    0.19
  10  -3   1    0.33    0.17
   7   3  -1    0.37    0.12
   7   3  -1    0.24    0.26
   3   7   1    0.18    0.28
 -10   7  -1    0.76    0.25
   7   3   1    0.31    0.13
   3   7  -1    0.21    0.27
  -3  10   1    0.72    0.41
   7   3   1    0.14    0.25
   7 -10  -1    0.68    0.24
   3   7  -1    0.28    0.11
  -7  10  -1    0.61    0.33
  10  -7   1    0.72    0.25
 -10   7   1    0.10    0.22
   3 -10   1    0.48    0.18
  10  -3  -1    0.39    0.29
  10  -3  -1    0.56    0.23
  10  -2   1   29.86    1.31
 -10   8  -1   25.62    1.52
  -2  10  -1   25.76    1.88
   8 -10   1   28.82    1.45
   2 -10  -1   24.76    1.40
   8   2  -1   28.89    1.73
  -8  10   1   30.12    1.78
  10  -2   1   28.21    1.66
   2   8   1   30.58    1.34
   2   8   1   33.13    1.96
  10  -8  -1   26.04    1.45
   8   2  -1   27.95    1.21
  -2  10   1   26.66    2.00
   2   8  -1   28.93    1.18
  -8  10  -1   26.64    1.69
   2 -10   1   28.22    1.33
   8 -10  -1   28.14    1.50
   8   2   1   29.12    1.67
   8   2   1   29.89    1.28
   2   8  -1   26.29    1.76
  10  -2  -1   28.04    1.37
 -10   8   1   30.12    1.65
  10  -8   1   29.03    1.46
  10  -2  -1   27.31    1.71
   9   1  -1   36.70    1.55
  -9  10   1   35.71    2.04
  10  -1   1   37.54    1.57
   9 -10   1   36.37    1.74
  10  -1   1   35.45    1.97
 -10   9  -1   33.43    1.88
   1   9   1   37.05    2.31
  10  -9  -1   33.67    1.78
   1 -10  -1   37.13    1.75
  -1  10  -1   34.40    2.25
   1   9   1   35.45    1.61
   9   1  -1   36.33    2.05
   1 -10   1   34.70    1.60
 -10   9   1   37.26    1.99
  10  -1  -1   33.77    2.03
   9 -10  -1   36.10    1.81
   1   9  -1   33.64    2.14
  10  -9   1   37.46    1.78
  -9  10  -1   34.79    1.98
  -1  10   1   33.33    2.27
   9   1   1   38.18    1.57
   9   1   1   35.39    1.98
   1   9  -1   38.69    1.51
   0  10   1    0.04    0.31
  10   0  -1   -0.02    0.25
  10 -10  -1    0.04    0.19
   0  10  -1   -0.03    0.10
   0  10   1    0.03    0.12
  10   0  -1    0.00    0.12
   0  10  -1    0.45    0.32
 -10  10   1    0.35    0.23
 -10  10  -1   -0.08    0.18
  10   0   1   -0.10    0.10
  10   0   1    0.08    0.27
  10 -10   1    0.26    0.20
  11  -6  -1    3.04    0.59
  -6  11   1    1.24    0.46
   6   5  -1    2.11    0.50
  11  -6  -1    2.45    0.43
  -5  11  -1    2.38    0.64
   6 -11   1    1.83    0.35
   5   6   1    2.05    0.50
   5 -11  -1    2.91    0.46
  11  -5   1    1.69    0.35
   5   6   1    1.88    0.29
  11  -5   1    1.88    0.44
   6   5  -1    3.03    0.24
   5   6  -1    2.29    0.52
  -5  11   1    1.89    0.56
  11  -6   1    1.91    0.46
   5   6  -1    2.83    0.23
  11  -6   1    1.98    0.39
  11  -5  -1    1.96    0.50
   6 -11  -1    3.16    0.49
  11  -5  -1    2.04    0.38
   5 -11   1    1.99    0.36
  -6  11  -1    2.38    0.63
   6   5   1    2.15    0.30
   6   5   1    2.02    0.49
 -11   7  -1    6.74    0.72
   4 -11  -1    8.27    0.68
  -7  11   1    7.92    1.02
  -4  11  -1    9.62    1.26
   4   7   1    7.50    0.96
  11  -7  -1    7.24    0.73
   4   7   1    7.76    0.53
   7   4  -1    8.28    0.46
  11  -4   1    8.62    0.62
   7   4  -1    8.51    0.95
  11  -4   1    7.12    0.85
   7 -11   1    8.23    0.65
  -4  11   1    7.53    1.14
   7 -11  -1    7.91    0.77
   7   4   1    8.11    0.53
   4 -11   1    6.97    0.58
   4   7  -1    7.69    0.44
  -7  11  -1    9.90    1.13
  11  -4  -1    8.20    0.94
  11  -4  -1    8.09    0.66
   4   7  -1    7.69    0.93
   7   4   1    7.82    0.89
  11  -7   1    7.39    0.64
   8 -11   1    5.11    0.59
 -11   8  -1    4.79    0.62
   3   8   1    4.71    0.41
   8   3  -1    4.89    0.35
   3   8   1    4.32    0.77
  11  -3   1    5.13    0.50
   3 -11  -1    4.55    0.58
  11  -3   1    4.28    0.67
  -8  11   1    4.68    0.77
  11  -8  -1    4.26    0.59
  -3  11  -1    4.05    0.84
   8   3  -1    5.98    0.82
   3 -11   1    5.03    0.51
 -11   8   1    4.70    0.66
  11  -8   1    4.14    0.56
   8   3   1    5.64    0.78
  11  -3  -1    4.63    0.74
   3   8  -1    4.86    0.33
   3   8  -1    3.20    0.66
  -3  11   1    4.26    0.90
  11  -3  -1    4.61    0.54
  -8  11  -1    5.45    0.81
   8 -11  -1    5.01    0.63
   8   3   1    4.95    0.40
   2   9   1    2.02    0.31
 -11   9  -1    2.13    0.43
  11  -9  -1    1.89    0.42
  11  -2   1    1.86    0.31
  -9  11   1    1.74    0.46
   2   9   1    2.14    0.61
   9 -11   1    1.93    0.40
  -2  11  -1    1.32    0.55
  11  -2   1    1.61    0.45
   2 -11  -1    2.01    0.39
   9   2  -1    2.39    0.57
   9   2  -1    2.58    0.31
  -9  11  -1    0.82    0.35
  -2  11   1    2.17    0.67
   9   2   1    1.87    0.29
  11  -9   1    1.54    0.36
   2 -11   1    2.14    0.35
 -11   9   1    2.34    0.49
   9   2   1    2.22    0.50
  11  -2  -1    1.61    0.50
   2   9  -1    2.15    0.26
   2   9  -1    1.68    0.52
   9 -11  -1    2.31    0.45
  11  -2  -1    1.98    0.37
   1 -11  -1   52.58    2.44
   1  10   1   54.64    3.12
 -10  11   1   57.86    2.89
  11  -1   1   57.07    2.83
  10   1  -1   55.08    2.88
  11  -1   1   57.10    2.27
  10 -11   1   55.16    2.49
 -11  10  -1   56.09    2.73
  11 -10  -1   54.22    2.55
   1  10   1   59.33    2.35
  -1  11  -1   53.36    3.12
  10   1  -1   53.76    2.25
  10   1   1   56.05    2.24
 -11  10   1   56.85    2.81
  11  -1  -1   53.73    2.86
  10 -11  -1   53.68    2.54
  -1  11   1   51.97    3.18
   1  10  -1   59.65    2.20
   1 -11   1   53.85    2.32
 -10  11  -1   51.46    2.78
   1  10  -1   51.99    2.98
  11 -10   1   51.24    2.47
  11   0  -1   -0.07    0.14
  11 -11  -1   -0.14    0.17
 -11  11   1    0.03    0.23
 -11  11  -1    0.19    0.21
   0  11   1    0.10    0.14
  11   0   1   -0.02    0.13
   0  11   1   -0.34    0.32
  11 -11   1   -0.11    0.18
  11   0   1    0.30    0.35
   0  11  -1   -0.24    0.29
  11   0  -1   -0.15    0.26
  -6  12  -1   10.34    1.30
   6 -12   1   10.77    0.76
  12  -6  -1   10.28    1.08
  12  -6   1   10.26    0.93
   6 -12  -1    8.42    0.74
   6   6  -1   10.86    1.10
   6   6  -1    9.73    0.52
   6   6   1    8.83    1.02
  -6  12   1   11.02    1.35
   6   6   1   10.89    0.64
  12  -6  -1   10.72    0.81
  12  -6   1    7.98    0.71
   7   5  -1    3.59    0.29
   5   7   1    3.98    0.71
  12  -7  -1    3.11    0.52
   7   5  -1    2.62    0.58
  12  -7  -1    3.84    0.69
   7 -12   1    3.68    0.51
  12  -5   1    3.55    0.63
   5 -12  -1    3.40    0.53
  -5  12  -1    3.63    0.81
   5   7   1    3.36    0.37
  -7  12   1    2.42    0.64
  12  -5   1    3.39    0.50
   7 -12  -1    2.82    0.49
   5   7  -1    3.17    0.26
  12  -5  -1    2.83    0.61
   5   7  -1    2.93    0.63
   7   5   1    3.77    0.67
  -7  12  -1    3.65    0.75
  12  -7   1    3.41    0.52
  -5  12   1    3.45    0.79
   7   5   1    3.29    0.36
   5 -12   1    2.83    0.44
  12  -5  -1    3.68    0.52
  12  -4   1    6.48    0.61
 -12   8  -1    6.88    0.75
  -8  12   1    6.01    0.93
   4   8   1    5.35    0.87
   4   8   1    6.63    0.49
   4 -12  -1    7.90    0.76
  12  -8  -1    6.36    0.73
   8   4  -1    6.90    0.43
   8 -12   1    6.41    0.68
   8   4  -1    4.92    0.82
  -4  12  -1    5.26    1.01
  12  -4   1    6.43    0.84
  -4  12   1    5.63    1.07
   4   8  -1    6.47    0.40
  12  -8   1    6.01    0.69
   4 -12   1    6.32    0.63
   8   4   1    5.66    0.45
   8 -12  -1    5.74    0.72
   4   8  -1    5.34    0.85
  -8  12  -1    6.89    1.01
   8   4   1    6.86    0.89
  12  -4  -1    7.28    0.70
  12  -4  -1    7.20    0.95
 -12   8   1    5.63    0.75
   3 -12  -1    2.15    0.41
   3   9   1    1.51    0.52
  12  -3   1    2.72    0.41
  -9  12   1    1.84    0.53
   9   3  -1    2.18    0.28
   9   3  -1    2.84    0.61
  12  -3   1    2.19    0.52
  -3  12  -1    2.26    0.68
  12  -9  -1    2.41    0.48
   9 -12   1    2.06    0.42
   3   9   1    2.18    0.33
 -12   9  -1    1.40    0.35
  -9  12  -1    2.13    0.53
   3   9  -1    1.91    0.58
   9   3   1    2.44    0.32
   3 -12   1    2.43    0.39
  -3  12   1    1.81    0.69
   9 -12  -1    2.21    0.47
  12  -3  -1    1.92    0.54
  12  -9   1    2.03    0.43
   9   3   1    2.56    0.56
  12  -3  -1    2.28    0.43
 -12   9   1    2.84    0.53
 -10  12   1    7.17    0.99
  10   2  -1    7.59    0.53
  10 -12   1    7.54    0.77
  12  -2   1    7.95    0.97
  10   2  -1    6.77    0.95
  12  -2   1    7.23    0.58
 -12  10  -1    9.00    0.92
   2 -12  -1    9.01    0.72
   2  10   1    6.88    0.54
  -2  12  -1    7.71    1.22
  12 -10  -1    6.91    0.81
   2  10   1    8.54    1.18
  12  -2  -1    9.06    1.07
 -10  12  -1    7.27    0.97
  10   2   1    6.87    0.52
  -2  12   1    6.12    1.15
 -12  10   1    7.30    0.88
  10 -12  -1    7.90    0.83
  12 -10   1    8.07    0.81
  10   2   1    6.26    0.90
   2  10  -1    6.86    1.04
  12  -2  -1    6.49    0.67
  11   1  -1    1.94    0.32
  12  -1   1    1.41    0.29
  -1  12  -1    2.15    0.68
 -12  11  -1    1.42    0.40
 -11  12   1    1.60    0.48
  11 -12   1    1.31    0.38
  12  -1   1    1.66    0.50
  12 -11  -1    0.82    0.37
  11   1  -1    1.43    0.50
   1  11   1    1.35    0.28
   1  11   1    2.79    0.69
 -12  11   1    1.64    0.44
 -11  12  -1    1.47    0.44
   1  11  -1    0.94    0.49
  12  -1  -1    1.89    0.55
  11   1   1    2.09    0.32
  11   1   1    1.89    0.51
  -1  12   1    1.77    0.65
  12  -1  -1    1.49    0.35
  12 -11   1    1.44    0.39
  11 -12  -1    1.50    0.42
  12   0   1    0.16    0.15
  12   0   1   -0.15    0.28
   0  12   1   -0.05    0.33
  12   0  -1    0.00    0.31
  12   0  -1    0.02    0.20
   0  12  -1    0.42    0.38
   0  12   1    0.02    0.14
 -12  12  -1   -0.13    0.21
  12 -12  -1    0.34    0.29
  12 -12   1   -0.13    0.22
 -12  12   1   -0.05    0.22
  -7  13   1    2.15    0.66
   6   7   1    1.76    0.29
  -6  13  -1    1.96    0.64
  13  -7  -1    2.17    0.44
   6 -13  -1    2.80    0.51
  13  -6   1    1.64    0.40
   7   6  -1    2.32    0.26
   6   7   1    1.96    0.57
  13  -6   1    2.88    0.61
   7 -13   1    2.14    0.41
  13  -7  -1    1.69    0.52
   7   6  -1    2.66    0.61
  13  -7   1    2.55    0.48
   6 -13   1    2.40    0.40
   7   6   1    1.53    0.48
  13  -6  -1    1.86    0.42
  -7  13  -1    2.25    0.68
   7   6   1    2.19    0.31
  13  -6  -1    1.68    0.49
  -6  13   1    2.24    0.68
  13  -7   1    1.97    0.52
   7 -13  -1    2.29    0.48
   6   7  -1    2.14    0.24
   6   7  -1    1.45    0.58
   8   5  -1    5.10    0.83
   5   8   1    4.19    0.79
   5   8   1    5.17    0.43
   5 -13  -1    4.87    0.66
 -13   8  -1    3.70    0.61
   8   5  -1    5.77    0.38
  13  -5   1    6.08    0.84
   8 -13   1    4.89    0.63
  -5  13  -1    6.52    1.13
  13  -8  -1    5.80    0.72
  13  -5   1    4.06    0.58
  -8  13   1    4.59    0.87
   8   5   1    4.83    0.79
   8   5   1    4.61    0.44
   5 -13   1    5.07    0.60
  13  -5  -1    5.85    0.68
   8 -13  -1    4.98    0.68
  -8  13  -1    5.31    0.93
 -13   8   1    4.72    0.74
  13  -8   1    4.09    0.61
  -5  13   1    4.02    0.96
  13  -5  -1    4.45    0.78
   5   8  -1    4.57    0.80
   4   9   1    5.26    0.90
   9 -13   1    4.55    0.62
  -9  13   1    3.13    0.71
   9   4  -1    4.12    0.76
  13  -4   1    3.56    0.50
   9   4  -1    3.71    0.36
   4   9   1    4.51    0.45
  13  -9  -1    4.20    0.65
  -4  13  -1    4.46    0.94
 -13   9  -1    3.50    0.58
   4 -13  -1    3.35    0.54
  13  -4   1    5.14    0.80
  13  -9   1    4.82    0.66
  13  -4  -1    3.31    0.69
   9   4   1    5.03    0.82
  -9  13  -1    3.68    0.75
   4   9  -1    4.51    0.79
  13  -4  -1    3.69    0.56
  -4  13   1    4.95    1.02
   4 -13   1    4.27    0.54
 -13   9   1    3.96    0.68
   9   4   1    4.23    0.42
   9 -13  -1    3.99    0.62
  13  -3   1    2.39    0.59
  10   3  -1    3.08    0.70
   3  10   1    2.11    0.60
  13  -3   1    2.84    0.44
 -10  13   1    2.20    0.60
  13 -10  -1    4.07    0.64
  -3  13  -1    2.61    0.74
   3  10   1    2.52    0.37
  10 -13   1    2.12    0.46
 -13  10  -1    2.35    0.50
  10   3  -1    3.38    0.36
   3 -13  -1    3.19    0.51
  10 -13  -1    2.93    0.56
  13 -10   1    2.64    0.51
  10   3   1    2.49    0.59
   3  10  -1    2.60    0.65
  10   3   1    2.84    0.37
 -13  10   1    3.01    0.60
  13  -3  -1    2.89    0.47
  -3  13   1    2.86    0.81
  13  -3  -1    2.71    0.63
 -10  13  -1    3.07    0.68
  -2  13  -1    9.25    1.39
  13  -2   1    8.73    1.09
  13  -2   1    9.04    0.69
  11   2  -1    9.66    0.65
   2  11   1   10.64    1.32
  13 -11  -1   10.69    1.02
  11 -13   1    8.18    0.87
 -11  13   1   12.83    1.33
 -13  11  -1    9.21    0.99
  11   2  -1   10.23    1.19
  13  -2  -1    8.18    0.72
  11 -13  -1   10.62    0.92
  11   2   1    9.41    1.11
  13 -11   1   10.75    0.88
 -13  11   1    8.61    1.03
  -2  13   1   11.33    1.55
 -11  13  -1   10.36    1.19
   2  11  -1   10.77    1.32
  11   2   1    9.32    0.62
  13  -2  -1    9.56    1.18
  13  -1   1    3.47    0.46
  12 -13   1    4.25    0.66
  12   1  -1    2.79    0.66
   1  12   1    3.87    0.88
  -1  13  -1    3.52    0.84
 -13  12  -1    2.71    0.57
  13 -12  -1    2.95    0.59
 -12  13   1    4.49    0.81
  13  -1   1    3.98    0.76
  12   1  -1    3.30    0.44
  13 -12   1    4.16    0.65
 -12  13  -1    3.13    0.65
   1  12  -1    4.04    0.86
  13  -1  -1    3.31    0.50
  12   1   1    3.89    0.77
  13  -1  -1    4.33    0.76
  12 -13  -1    4.67    0.72
  -1  13   1    3.65    0.83
 -13  12   1    3.76    0.71
  12   1   1    3.48    0.43
  13   0  -1    0.18    0.22
  13   0   1   -0.11    0.36
  13 -13   1   -0.19    0.23
 -13  13   1   -0.10    0.23
   0  13   1    0.02    0.39
  13   0   1    0.22    0.17
  13   0  -1    0.13    0.31
  13 -13  -1    0.15    0.26
   0  13  -1   -0.03    0.31
 -13  13  -1    0.02    0.26
  14  -7  -1    3.06    0.54
   7   7   1    2.70    0.35
   7 -14  -1    2.26    0.48
  14  -7  -1    2.46    0.61
   7   7   1    3.50    0.79
  14  -7   1    2.46    0.50
   7 -14   1    2.37    0.44
   7   7  -1    2.81    0.63
  14  -7   1    2.85    0.65
  -7  14  -1    2.77    0.77
  -7  14   1    2.69    0.73
  -6  14  -1    1.08    0.46
   6   8   1    1.53    0.28
  14  -6   1    1.73    0.51
   8   6  -1    2.16    0.59
   6 -14  -1    1.35    0.39
  -8  14   1    0.79    0.48
  14  -8  -1    1.68    0.42
  14  -6   1    2.05    0.45
   6   8   1    1.75    0.50
   8 -14   1    1.11    0.33
 -14   8  -1    1.46    0.43
  14  -6  -1    1.37    0.37
   8 -14  -1    1.23    0.38
  14  -6  -1    0.36    0.38
  -8  14  -1    1.12    0.50
   8   6   1    1.38    0.49
  14  -8   1    1.27    0.37
   6   8  -1    0.88    0.40
   8   6   1    1.21    0.24
  -6  14   1    1.13    0.52
   6 -14   1    1.51    0.37
   5   9   1    1.40    0.48
 -14   9  -1    0.86    0.33
  -5  14  -1    1.10    0.50
   9 -14   1    1.30    0.37
  14  -9  -1    1.24    0.40
   9   5  -1    0.65    0.38
  14  -5   1    0.74    0.40
   5 -14  -1    1.61    0.42
  -9  14   1    0.74    0.43
  14  -5   1    0.87    0.35
   9   5  -1    1.16    0.22
  14  -5  -1    0.86    0.43
  -9  14  -1    1.36    0.55
   9 -14  -1    1.45    0.39
   9   5   1    1.42    0.50
 -14   9   1    0.90    0.37
  14  -5  -1    0.92    0.33
   5   9  -1    1.23    0.48
  14  -9   1    0.59    0.30
   9   5   1    0.99    0.22
  -5  14   1    1.78    0.67
   4 -14  -1    3.93    0.56
   4  10   1    4.14    0.81
  14  -4   1    3.45    0.69
  10 -14   1    3.95    0.59
  14 -10  -1    4.44    0.67
  -4  14  -1    3.42    0.85
  10   4  -1    4.19    0.78
 -14  10  -1    4.38    0.68
  10   4  -1    3.70    0.38
  14  -4   1    3.79    0.57
 -10  14   1    3.88    0.80
 -10  14  -1    3.90    0.82
  14  -4  -1    4.14    0.81
  10   4   1    3.59    0.74
  10 -14  -1    4.06    0.66
  -4  14   1    3.56    0.90
   4  10  -1    3.36    0.71
  14 -10   1    3.72    0.63
 -14  10   1    3.17    0.65
  14  -4  -1    3.46    0.56
  10   4   1    4.27    0.44
  11   3  -1    1.63    0.30
  14 -11  -1    1.40    0.45
 -11  14   1    1.99    0.60
  11   3  -1    1.40    0.50
  -3  14  -1    1.32    0.62
  11 -14   1    1.41    0.40
  14  -3   1    2.21    0.41
 -14  11  -1    1.74    0.42
   3  11   1    2.07    0.64
  14  -3   1    1.81    0.57
   3  11  -1    1.25    0.52
 -11  14  -1    0.99    0.44
  11 -14  -1    2.14    0.49
  14  -3  -1    1.41    0.38
  -3  14   1    2.55    0.76
  11   3   1    1.82    0.31
  11   3   1    1.88    0.54
 -14  11   1    2.25    0.54
  14  -3  -1    1.40    0.46
  14 -11   1    1.99    0.47
  12   2  -1    6.97    0.55
  12   2  -1    5.90    0.99
 -14  12  -1    5.61    0.83
  12 -14   1    6.67    0.83
  14 -12  -1    6.91    0.90
  -2  14  -1    5.63    1.12
  14  -2   1    6.77    0.67
   2  12   1    3.90    0.89
 -12  14   1    4.87    0.91
  14  -2   1    7.45    1.04
  14 -12   1    5.58    0.78
  14  -2  -1    7.83    1.08
 -12  14  -1    5.30    1.00
 -14  12   1    6.89    0.97
  12 -14  -1    6.74    0.87
  12   2   1    5.24    0.51
  -2  14   1    6.52    1.21
  14  -2  -1    6.21    0.70
   2  12  -1    5.42    1.00
  12   2   1    7.25    1.02
  -1  14  -1    0.50    0.44
  13   1  -1    0.11    0.19
 -13  14   1    0.20    0.31
  13   1  -1    0.28    0.32
   1  13   1    0.26    0.41
  13 -14   1    0.26    0.29
  14 -13  -1    0.38    0.32
 -14  13  -1    0.29    0.28
  14  -1   1    0.03    0.30
  14  -1   1    0.09    0.17
 -14  13   1    0.12    0.27
  13 -14  -1   -0.20    0.20
  -1  14   1    0.29    0.41
 -13  14  -1    0.00    0.23
  13   1   1    0.57    0.38
   1  13  -1    0.40    0.37
  14 -13   1    0.14    0.26
  13   1   1   -0.12    0.13
  14  -1  -1    0.23    0.21
  14  -1  -1   -0.39    0.34
  14   0   1    0.00    0.15
  14 -14  -1    0.09    0.29
  14   0   1   -0.07    0.27
   0  14  -1   -0.52    0.30
  14   0  -1    0.08    0.19
  14 -14   1   -0.01    0.25
 -14  14   1   -0.26    0.26
 -14  14  -1   -0.33    0.24
   0  14   1    0.02    0.40
  14   0  -1    0.83    0.42
  -7  15  -1    1.46    0.56
  -8  15   1    1.76    0.62
  15  -8  -1    2.56    0.65
   7 -15  -1    1.72    0.45
   8 -15   1    1.56    0.40
  15  -7   1    1.40    0.49
   8   7  -1    1.84    0.56
  15  -7   1    1.34    0.41
  15  -8  -1    1.47    0.43
   7   8   1    1.45    0.50
   8 -15  -1    1.77    0.44
  -7  15   1    2.07    0.67
   7 -15   1    1.25    0.36
   7   8  -1    2.60    0.62
  15  -8   1    1.71    0.45
   8   7   1    1.26    0.25
   8   7   1    1.38    0.48
  15  -7  -1    1.91    0.46
  -8  15  -1    1.30    0.55
  15  -7  -1    2.18    0.58
   6 -15  -1    8.83    0.90
   6   9   1    7.51    1.09
  -9  15   1    9.49    1.37
   9   6  -1    8.87    1.17
  15  -6   1    7.43    1.03
 -15   9  -1    7.28    0.87
   9 -15   1    9.61    0.92
  15  -9  -1    7.46    0.90
  15  -6   1    8.22    0.87
  -6  15  -1    8.78    1.44
   9   6   1    8.05    1.08
   6   9  -1    7.58    1.08
   9 -15  -1    8.64    0.93
  15  -6  -1    7.14    1.03
  15  -9   1    8.63    0.92
 -15   9   1    8.43    1.01
  15  -6  -1    8.47    0.89
   9   6   1    7.74    0.56
  -6  15   1    8.61    1.38
  -9  15  -1    6.00    1.08
  15 -10  -1    4.64    0.72
  -5  15  -1    4.65    1.05
 -10  15   1    4.27    0.89
  15  -5   1    4.01    0.77
  10 -15   1    4.58    0.66
  10   5  -1    4.57    0.84
  15  -5   1    4.88    0.67
 -15  10  -1    3.10    0.59
   5 -15  -1    4.54    0.65
   5  10   1    4.13    0.79
  15 -10   1    3.74    0.64
  15  -5  -1    3.43    0.58
 -15  10   1    3.50    0.69
  15  -5  -1    4.21    0.81
   5  10  -1    3.87    0.79
 -10  15  -1    2.40    0.70
  -5  15   1    3.77    0.97
  10   5   1    5.71    0.90
  10 -15  -1    3.95    0.67
  10   5   1    4.70    0.45
   4  11   1    4.60    0.90
 -11  15   1    4.49    0.90
  11   4  -1    4.62    0.87
 -15  11  -1    4.14    0.72
  15  -4   1    5.06    0.68
  11 -15   1    6.00    0.77
  -4  15  -1    4.15    1.02
  11   4  -1    4.65    0.47
  15  -4   1    5.69    0.91
  15 -11  -1    4.14    0.72
  11 -15  -1    3.83    0.67
  15  -4  -1    4.28    0.82
  11   4   1    5.72    0.46
  15 -11   1    5.48    0.78
  15  -4  -1    4.70    0.68
  -4  15   1    6.82    1.29
   4  11  -1    4.47    0.86
 -15  11   1    5.42    0.85
 -11  15  -1    5.03    0.95
  11   4   1    5.67    0.92
   3  12   1    1.85    0.63
  12 -15   1    2.83    0.56
 -15  12  -1    1.91    0.51
  15  -3   1    3.15    0.53
  -3  15  -1    1.19    0.69
  15  -3   1    2.18    0.58
  15 -12  -1    1.74    0.52
 -12  15   1    2.19    0.73
  12   3  -1    2.67    0.63
  12   3  -1    2.27    0.37
  15 -12   1    2.40    0.54
  15  -3  -1    1.52    0.40
   3  12  -1    1.31    0.54
  12   3   1    2.37    0.36
 -15  12   1    1.51    0.47
  12 -15  -1    2.67    0.59
  15  -3  -1    1.56    0.55
  -3  15   1    2.05    0.73
  12   3   1    2.69    0.64
 -12  15  -1    2.42    0.59
  15  -2   1    2.22    0.58
  -2  15  -1    3.59    0.95
 -15  13  -1    3.54    0.67
  13 -15   1    2.96    0.59
  13   2  -1    1.92    0.40
  15 -13  -1    2.91    0.63
 -13  15   1    1.94    0.58
  15  -2   1    2.72    0.46
   2  13   1    1.68    0.59
  13   2  -1    3.15    0.76
 -15  13   1    3.61    0.71
  15 -13   1    2.20    0.53
  13   2   1    2.77    0.39
  15  -2  -1    3.30    0.56
 -13  15  -1    1.51    0.55
   2  13  -1    2.99    0.75
  13   2   1    2.76    0.70
  13 -15  -1    3.82    0.70
  15  -2  -1    4.03    0.77
  -2  15   1    3.40    0.92
   1  14   1    2.91    0.81
  15  -1   1    2.33    0.43
  14   1  -1    2.32    0.66
  15 -14  -1    2.05    0.54
 -15  14  -1    2.16    0.58
 -14  15   1    3.00    0.74
  15  -1   1    2.81    0.65
  -1  15  -1    4.39    1.02
  14 -15   1    3.10    0.64
  14   1  -1    2.74    0.48
  14   1   1    2.89    0.69
   1  14  -1    2.67    0.77
  -1  15   1    3.80    0.99
  15  -1  -1    2.52    0.49
  15  -1  -1    2.58    0.69
  15 -14   1    3.22    0.66
  14 -15  -1    3.88    0.73
 -15  14   1    2.94    0.66
 -14  15  -1    2.14    0.60
  14   1   1    3.15    0.45
  15 -15   1    0.06    0.27
  15   0  -1   -0.01    0.23
 -15  15  -1    0.04    0.30
   0  15  -1    0.13    0.36
  15   0   1    0.53    0.39
  15   0   1    0.23    0.20
  15   0  -1   -0.18    0.30
   0  15   1    0.19    0.52
  15 -15  -1    0.19    0.28
 -15  15   1    0.19    0.33
  16  -8  -1    5.71    0.96
  16  -8   1    5.08    0.74
   8 -16  -1    5.47    0.77
  16  -8  -1    5.34    0.77
   8 -16   1    6.38    0.78
   8   8   1    7.52    1.07
  -8  16  -1    5.00    1.09
  16  -8   1    7.24    1.02
   8   8  -1    6.59    1.02
  -8  16   1    6.20    1.16
  16  -9  -1    2.74    0.59
   9   7  -1    2.22    0.60
   7   9   1    2.77    0.65
 -16   9  -1    3.00    0.63
  -9  16   1    2.48    0.79
   7 -16  -1    2.22    0.52
   9 -16   1    3.06    0.54
  16  -7   1    2.66    0.64
  16  -7   1    2.31    0.53
  -7  16  -1    3.14    0.90
   9 -16  -1    3.42    0.62
 -16   9   1    2.68    0.67
   7   9  -1    3.52    0.75
  -7  16   1    1.70    0.67
  16  -7  -1    2.02    0.46
  16  -7  -1    2.39    0.69
  -9  16  -1    3.20    0.84
   9   7   1    2.81    0.68
  16  -9   1    2.56    0.54
 -16  10  -1    0.75    0.38
  16  -6   1    0.70    0.42
  10   6  -1    0.57    0.40
  16 -10  -1    0.43    0.29
  16  -6   1    1.05    0.39
   6  10   1    0.65    0.39
  10 -16   1    0.04    0.30
  -6  16  -1    0.85    0.55
 -10  16   1    0.65    0.46
 -16  10   1    0.38    0.36
  16 -10   1    0.13    0.29
  -6  16   1    0.70    0.48
 -10  16  -1    1.22    0.53
  10 -16  -1    1.02    0.36
  10   6   1    0.88    0.42
   6  10  -1    1.21    0.50
  16  -6  -1    1.11    0.37
  16  -6  -1    0.83    0.43
  16  -5   1    0.42    0.28
  11 -16   1    1.65    0.43
 -16  11  -1    1.48    0.45
  16 -11  -1    1.21    0.43
   5  11   1    2.47    0.65
  16  -5   1    2.13    0.54
  -5  16  -1    1.51    0.62
 -11  16   1    1.12    0.49
  11   5  -1    1.26    0.48
  11 -16  -1    0.81    0.38
  16 -11   1    1.27    0.42
 -11  16  -1    1.53    0.59
  -5  16   1    0.28    0.50
  11   5   1    1.10    0.45
  11   5   1    1.13    0.27
  16  -5  -1    1.61    0.43
 -16  11   1    1.03    0.44
   5  11  -1    1.30    0.51
  16  -5  -1    1.53    0.51
  16 -12  -1    3.87    0.73
  12   4  -1    4.16    0.86
   4  12   1    3.24    0.81
  12 -16   1    3.55    0.65
 -12  16   1    3.04    0.77
 -16  12  -1    2.93    0.63
  16  -4   1    4.08    0.64
  -4  16  -1    3.25    0.93
  16  -4   1    3.64    0.73
  12   4   1    3.29    0.75
  12 -16  -1    4.09    0.73
 -16  12   1    3.67    0.73
  16 -12   1    5.24    0.79
  12   4   1    3.87    0.44
   4  12  -1    3.22    0.76
  16  -4  -1    4.02    0.82
 -12  16  -1    3.86    0.84
  16  -4  -1    3.66    0.62
  -4  16   1    3.62    0.99
  16  -3   1    0.70    0.36
  -3  16  -1    1.05    0.62
 -13  16   1    1.29    0.58
  13 -16   1    0.54    0.34
 -16  13  -1    2.45    0.57
   3  13   1    0.78    0.46
  13   3  -1    1.81    0.61
  16  -3   1    1.62    0.50
  16 -13  -1    1.29    0.45
  13   3   1    1.59    0.31
  13   3   1    2.46    0.63
  16  -3  -1    1.30    0.48
   3  13  -1    0.64    0.46
  16 -13   1    1.44    0.48
 -13  16  -1    2.01    0.58
  16  -3  -1    1.28    0.39
  13 -16  -1    1.90    0.50
  -3  16   1    1.25    0.58
 -16  13   1    1.93    0.55
  -2  16  -1    0.49    0.56
  14 -16   1    0.56    0.35
  16  -2   1    0.71    0.38
  14   2  -1    1.08    0.35
 -16  14  -1    1.59    0.46
   2  14   1    1.34    0.65
  14   2  -1    1.56    0.58
 -14  16   1    0.13    0.35
  16 -14  -1    0.69    0.39
  16  -2   1    1.12    0.46
  14   2   1    0.12    0.38
  16  -2  -1    0.67    0.31
  16 -14   1    0.97    0.43
  -2  16   1    1.74    0.72
 -16  14   1    1.11    0.44
  16  -2  -1    0.56    0.41
 -14  16  -1    0.77    0.42
   2  14  -1    1.91    0.62
  14   2   1    0.86    0.26
  14 -16  -1    1.12    0.40
  15   1  -1    1.42    0.37
  16  -1   1    1.18    0.47
  15   1  -1    2.69    0.71
  15 -16   1    1.12    0.43
  16 -15  -1    1.13    0.49
  -1  16  -1    1.93    0.76
  16  -1   1    1.46    0.37
 -15  16   1    1.64    0.59
 -16  15  -1    1.82    0.57
   1  15   1    0.91    0.58
   1  15  -1    1.84    0.70
  15   1   1    1.58    0.36
  -1  16   1    1.74    0.73
 -16  15   1    0.73    0.43
 -15  16  -1    0.86    0.49
  16  -1  -1    1.57    0.57
  16 -15   1    1.59    0.51
  15 -16  -1    1.89    0.54
  16  -1  -1    1.39    0.39
  15   1   1    1.23    0.52
  16   0   1   -0.15    0.33
   0  16   1    0.23    0.47
 -16  16  -1    0.22    0.30
  16   0   1    0.31    0.21
  16   0  -1    0.00    0.25
  16 -16   1   -0.31    0.26
 -16  16   1    0.02    0.34
  16 -16  -1   -0.29    0.27
   0  16  -1   -0.16    0.36
  16   0  -1   -0.24    0.35
 -17   9  -1    1.57    0.50
  17  -8   1    1.42    0.44
  17  -8   1    2.28    0.60
  -8  17  -1    2.46    0.79
   8 -17  -1    1.32    0.44
  17  -9  -1    1.37    0.46
   8   9   1    2.06    0.59
   9   8  -1    1.12    0.51
  -9  17   1    0.34    0.50
  -9  17  -1    0.98    0.59
  -8  17   1    3.05    0.89
   9   8   1    0.75    0.43
  17  -8  -1    1.54    0.52
   8   9  -1    1.73    0.56
  17  -8  -1    1.32    0.43
  17  -9   1    1.65    0.47
   9 -17  -1    1.87    0.48
 -10  17   1    0.31    0.45
  10   7  -1    0.27    0.39
  17  -7   1    0.37    0.29
 -17  10  -1    0.27    0.31
  -7  17  -1    0.49    0.45
  17 -10  -1    0.06    0.25
  17  -7   1    0.12    0.43
  10 -17   1    0.32    0.28
   7  10   1    0.08    0.33
  10   7   1   -0.08    0.31
  10 -17  -1    0.20    0.30
 -10  17  -1    0.30    0.46
   7  10  -1    0.49    0.39
  -7  17   1    0.83    0.56
  17  -7  -1    0.52    0.38
  17 -10   1   -0.10    0.21
 -17  10   1    0.18    0.32
  17  -7  -1    0.55    0.27
  -6  17  -1    2.58    0.82
  17  -6   1    1.51    0.45
 -11  17   1    1.36    0.57
  11   6  -1    1.97    0.62
  11 -17   1    1.38    0.41
 -17  11  -1    2.17    0.55
   6  11   1    1.64    0.58
  17 -11  -1    2.06    0.52
  17  -6   1    1.33    0.50
  11   6   1    2.00    0.60
   6  11  -1    2.88    0.74
  17  -6  -1    1.84    0.48
 -17  11   1    1.84    0.54
  11 -17  -1    2.71    0.55
  17 -11   1    0.99    0.41
  17  -6  -1    1.72    0.57
 -11  17  -1    1.66    0.56
  -6  17   1    2.18    0.77
  12   5  -1    0.04    0.33
   5  12   1   -0.16    0.33
  -5  17  -1    0.33    0.46
  17  -5   1   -0.50    0.29
  17  -5   1    0.10    0.27
  17 -12  -1    0.19    0.37
  12 -17   1    0.42    0.32
 -12  17   1    0.71    0.44
 -17  12  -1    0.02    0.30
  12 -17  -1    0.29    0.27
  17  -5  -1   -0.13    0.21
  12   5   1   -0.32    0.29
 -17  12   1   -0.21    0.25
   5  12  -1   -0.12    0.33
  17  -5  -1    0.36    0.34
  -5  17   1    0.52    0.56
 -12  17  -1    0.01    0.35
  17 -12   1    0.16    0.29
  -4  17  -1    1.81    0.76
  17  -4   1    3.37    0.60
  17 -13  -1    3.62    0.73
  13   4  -1    1.85    0.61
   4  13   1    2.70    0.72
 -13  17   1    2.22    0.68
  13 -17   1    2.88    0.59
 -17  13  -1    3.14    0.64
  17  -4   1    3.19    0.69
  17  -4  -1    2.74    0.53
  13   4   1    2.81    0.70
   4  13  -1    4.59    0.93
  13 -17  -1    3.08    0.63
  17 -13   1    3.10    0.67
  17  -4  -1    2.23    0.62
  -4  17   1    2.24    0.90
 -13  17  -1    2.31    0.73
 -17  13   1    2.90    0.69
  -3  17  -1    0.62    0.53
   3  14   1    2.71    0.75
 -14  17   1    1.14    0.51
  14 -17   1   -0.03    0.29
  17 -14  -1    1.78    0.55
  14   3  -1    0.62    0.41
 -17  14  -1    1.11    0.40
  17  -3   1    1.46    0.43
  17  -3   1    1.18    0.49
  17  -3  -1    1.38    0.50
  14   3   1    1.04    0.55
   3  14  -1    0.97    0.51
  14   3   1    1.10    0.28
 -17  14   1    1.80    0.59
  17 -14   1    1.39    0.50
  14 -17  -1    0.54    0.38
 -14  17  -1    1.22    0.49
  -3  17   1    0.63    0.59
  17  -3  -1    1.03    0.35
 -15  17   1    2.76    0.78
  15 -17   1    3.18    0.68
  17  -2   1    2.66    0.58
  15   2  -1    3.23    0.82
 -17  15  -1    4.48    0.85
   2  15   1    2.92    0.82
  17  -2   1    4.92    0.86
  17 -15  -1    2.72    0.64
  -2  17  -1    2.17    0.78
 -17  15   1    2.98    0.71
  15   2   1    3.82    0.54
 -15  17  -1    3.88    0.84
  -2  17   1    2.95    0.94
  15   2   1    2.91    0.78
  17  -2  -1    4.51    0.89
  17  -2  -1    3.05    0.58
  17 -15   1    4.83    0.82
   2  15  -1    3.46    0.86
  15 -17  -1    5.54    0.87
  17  -1   1    1.02    0.40
  16   1  -1    1.29    0.58
   1  16   1    1.19    0.64
  -1  17  -1    1.73    0.71
 -17  16  -1    2.26    0.61
  16 -17   1    1.27    0.48
  17  -1   1    1.13    0.52
  17 -16  -1    1.65    0.53
 -16  17   1    1.99    0.63
  17  -1  -1    0.70    0.41
 -17  16   1    2.08    0.64
   1  16  -1    1.49    0.65
  16   1   1    1.01    0.48
  16   1   1    0.94    0.30
 -16  17  -1    0.72    0.70
  16 -17  -1    1.06    0.46
  -1  17   1    1.01    0.62
  17 -16   1    1.61    0.53
  17  -1  -1    0.60    0.33
  17 -17  -1    0.19    0.31
 -17  17  -1   -0.09    0.33
  17   0   1   -0.83    0.37
   0  17  -1    0.14    0.44
 -17  17   1   -0.45    0.35
  17 -17   1    0.07    0.28
  17   0   1   -0.28    0.27
   0  17   1    0.03    0.42
  17   0  -1   -0.28    0.40
  17   0  -1   -0.33    0.22
 -18   9  -1    0.20    0.38
   9   9   1    0.26    0.38
  18  -9  -1    0.21    0.30
  18  -9   1    0.56    0.32
  -9  18  -1    0.90    0.54
  -9  18   1    1.08    0.58
   9   9  -1   -0.04    0.35
   8  10   1    6.47    1.09
 -10  18   1    5.79    1.26
  18  -8   1    8.04    1.16
  -8  18  -1    7.30    1.37
  18 -10  -1    6.32    0.91
  18  -8   1    6.14    0.86
 -18  10  -1    6.97    0.98
  10   8  -1    5.59    1.05
  10 -18  -1    7.57    0.96
 -18  10   1    7.42    1.05
  10   8   1    6.16    1.05
  18 -10   1    4.79    0.80
   8  10  -1    5.62    1.01
 -10  18  -1    6.51    1.29
  -8  18   1    5.56    1.25
  18  -8  -1    8.95    1.26
  18  -8  -1    6.53    0.90
  18 -11  -1    2.60    0.61
  18  -7   1    2.56    0.65
  11   7  -1    3.28    0.80
  18  -7   1    3.10    0.61
 -11  18   1    1.98    0.69
 -18  11  -1    2.13    0.59
  -7  18  -1    1.87    0.76
   7  11   1    3.00    0.73
  -7  18   1    1.16    0.76
  18 -11   1    2.21    0.56
 -18  11   1    1.26    0.52
  11   7   1    3.27    0.77
  18  -7  -1    2.36    0.54
  18  -7  -1    3.11    0.74
 -11  18  -1    1.75    0.72
  11 -18  -1    2.76    0.59
   7  11  -1    1.70    0.63
  18  -6   1    1.45    0.48
  18 -12  -1    1.74    0.57
  18  -6   1    2.09    0.61
   6  12   1    1.57    0.57
 -18  12  -1    1.56    0.52
  12   6  -1    0.19    0.46
 -12  18   1    1.71    0.67
  12 -18   1    1.90    0.49
  -6  18  -1    1.78    0.70
  -6  18   1    0.67    0.64
  18  -6  -1    1.81    0.58
   6  12  -1    0.73    0.51
 -18  12   1    0.89    0.45
  12 -18  -1    2.61    0.57
  12   6   1    1.96    0.61
 -12  18  -1    1.39    0.54
  18  -6  -1    1.83    0.50
  18 -12   1    2.19    0.58
  13   5  -1    1.73    0.63
  18  -5   1    2.58    0.58
  13 -18   1    2.19    0.55
 -13  18   1    3.14    0.81
   5  13   1    3.41    0.80
  -5  18  -1    3.79    1.00
 -18  13  -1    3.43    0.72
  18  -5   1    4.79    0.84
  18 -13  -1    2.84    0.67
  -5  18   1    2.43    0.88
  18  -5  -1    1.84    0.47
  18  -5  -1    3.89    0.83
  13   5   1    3.34    0.75
  13 -18  -1    2.51    0.62
 -18  13   1    1.91    0.60
   5  13  -1    1.76    0.60
 -13  18  -1    2.89    0.78
  18 -13   1    1.95    0.55
  -4  18  -1    0.55    0.53
  14   4  -1    0.13    0.44
  18  -4   1    1.20    0.47
 -18  14  -1    1.11    0.45
 -14  18   1    0.43    0.43
   4  14   1    0.25    0.40
  18  -4   1    0.45    0.32
  18 -14  -1    0.95    0.45
  14 -18   1    0.11    0.31
   4  14  -1    0.70    0.53
  18  -4  -1    0.69    0.32
 -18  14   1    0.95    0.48
  18 -14   1    1.36    0.45
  18  -4  -1    0.43    0.39
 -14  18  -1    0.57    0.45
  14   4   1    0.03    0.37
  -4  18   1    0.48    0.59
  14 -18  -1    0.89    0.38
 -15  18   1    3.09    0.84
  18 -15  -1    2.69    0.65
  15 -18   1    2.90    0.66
   3  15   1    3.51    0.90
  18  -3   1    3.31    0.75
  15   3  -1    5.04    1.00
  -3  18  -1    2.85    0.94
  18  -3   1    2.41    0.53
 -18  15  -1    3.19    0.70
 -18  15   1    2.69    0.68
  15 -18  -1    3.98    0.75
   3  15  -1    4.11    0.91
 -15  18  -1    3.05    0.79
  18 -15   1    3.94    0.78
  18  -3  -1    2.70    0.73
  18  -3  -1    2.69    0.57
  15   3   1    4.28    0.90
  -3  18   1    3.37    1.02
  18  -2   1    0.96    0.36
  16 -18   1    1.03    0.43
  16   2  -1    0.99    0.60
  18 -16  -1    0.53    0.44
 -16  18   1    0.98    0.76
   2  16   1    0.08    0.51
  18  -2   1    1.45    0.53
 -18  16  -1    1.05    0.55
  -2  18  -1    1.30    0.69
  16   2   1    0.73    0.48
  18  -2  -1    0.91    0.50
  -2  18   1    1.41    0.70
 -18  16   1    1.01    0.52
 -16  18  -1    0.72    0.53
  18 -16   1    0.50    0.41
  18  -2  -1    1.43    0.37
  16 -18  -1    1.13    0.42
   2  16  -1    0.63    0.52
  18 -17  -1    0.78    0.45
  17 -18   1   -0.02    0.33
  17   1  -1    1.11    0.54
  -1  18  -1    0.31    0.45
  18  -1   1    0.76    0.37
 -18  17  -1    0.31    0.36
 -17  18   1    0.41    0.42
   1  17   1    0.60    0.52
  18  -1   1    0.92    0.47
   1  17  -1    0.10    0.49
  18  -1  -1    0.36    0.27
 -17  18  -1    0.62    0.39
  17   1   1    0.39    0.32
  17 -18  -1    0.66    0.42
  18  -1  -1    0.85    0.55
  18 -17   1    0.13    0.35
  17   1   1   -0.13    0.41
 -18  17   1   -0.34    0.33
  -1  18   1    0.39    0.50
   0  18   1   -0.20    0.42
  18 -18   1   -0.58    0.27
  18   0   1   -0.32    0.23
 -18  18  -1    0.39    0.39
   0  18  -1    0.32    0.49
  18 -18  -1   -0.48    0.26
  18   0   1   -0.50    0.36
  18   0  -1   -0.23    0.45
 -18  18   1    0.54    0.42
 -10  19   1    4.21    1.08
  10   9  -1    5.57    1.05
   9  10   1    4.24    0.87
  -9  19  -1    4.72    1.21
 -19  10  -1    2.83    0.67
  19  -9   1    3.50    0.69
  19 -10  -1    3.86    0.75
  19 -10   1    4.24    0.76
  -9  19   1    4.02    1.08
 -19   9  -1    2.98    0.75
  10   9   1    3.59    0.86
 -10  19  -1    5.17    1.17
   9  10  -1    3.42    0.83
 -19  10   1    2.92    0.73
  19  -9  -1    3.17    0.67
 -11  19   1    3.97    1.02
  19  -8   1    3.18    0.65
  11   8  -1    2.75    0.75
   8  11   1    3.76    0.85
  -8  19  -1    3.84    1.08
 -19  11  -1    3.37    0.74
  19 -11  -1    3.40    0.70
  19  -8   1    5.00    0.94
 -19  11   1    3.36    0.74
  -8  19   1    3.92    1.11
  19  -8  -1    3.98    0.91
  19  -8  -1    3.97    0.73
  11   8   1    4.74    0.97
   8  11  -1    3.07    0.80
  19 -11   1    4.14    0.76
 -11  19  -1    3.72    0.99
  19  -7   1    0.62    0.45
 -19  12  -1    0.87    0.47
  19 -12  -1    1.47    0.51
 -12  19   1    1.77    0.71
  -7  19  -1    1.49    0.63
  19  -7   1    1.53    0.45
   7  12   1    0.60    0.43
  12   7  -1    1.06    0.48
  12 -19  -1    1.92    0.49
  -7  19   1    2.18    0.77
 -19  12   1    1.15    0.51
  19 -12   1    1.38    0.51
  12   7   1    1.15    0.54
  19  -7  -1    0.89    0.42
   7  12  -1    1.68    0.64
  19  -7  -1    1.55    0.62
 -12  19  -1    3.30    0.88
  13 -19   1    1.95    0.51
  19  -6   1    2.71    0.73
 -19  13  -1    2.59    0.64
  -6  19  -1    1.26    0.66
 -13  19   1    1.62    0.63
  13   6  -1    3.13    0.82
  19 -13  -1    3.11    0.70
  19  -6   1    2.75    0.59
   6  13   1    2.75    0.72
 -13  19  -1    2.58    0.81
  19  -6  -1    3.01    0.59
  -6  19   1    3.96    1.02
  13 -19  -1    1.51    0.50
   6  13  -1    2.69    0.72
  19  -6  -1    1.69    0.64
  13   6   1    2.18    0.70
  19 -13   1    2.61    0.60
 -19  13   1    2.30    0.64
   5  14   1    0.22    0.41
  19  -5   1    0.47    0.35
 -14  19   1    0.91    0.53
 -19  14  -1   -0.06    0.30
  14   5  -1   -0.04    0.41
  19  -5   1    0.86    0.44
  14 -19   1    0.66    0.37
  19 -14  -1    0.05    0.32
  -5  19  -1   -0.44    0.41
  19 -14   1    0.19    0.35
  14 -19  -1   -0.05    0.31
 -14  19  -1    0.18    0.45
 -19  14   1    0.55    0.44
  19  -5  -1    0.96    0.47
  -5  19   1    0.09    0.49
  14   5   1   -0.38    0.41
  19  -5  -1   -0.09    0.28
   5  14  -1    0.18    0.42
  15 -19   1    0.60    0.37
 -19  15  -1    0.57    0.42
  19  -4   1    0.70    0.43
 -15  19   1    0.78    0.46
  19  -4   1    0.25    0.36
  19 -15  -1    0.26    0.40
  -4  19  -1    1.24    0.64
   4  15   1    0.93    0.51
  15   4  -1    1.29    0.55
 -15  19  -1    1.29    0.60
  19 -15   1    0.76    0.42
  15 -19  -1    0.56    0.38
  15   4   1   -0.35    0.40
  19  -4  -1    0.55    0.46
 -19  15   1    1.50    0.50
  19  -4  -1    0.60    0.29
   4  15  -1    0.89    0.45
  -4  19   1    1.42    0.70
  16 -19   1    0.51    0.38
  19  -3   1   -0.64    0.39
  16   3  -1   -0.31    0.37
 -16  19   1   -0.14    0.37
   3  16   1    0.35    0.41
 -19  16  -1   -0.14    0.42
  19  -3   1    0.52    0.36
  -3  19  -1    0.95    0.58
  19 -16  -1    0.57    0.35
  -3  19   1    0.68    0.52
  16   3   1    0.38    0.46
 -16  19  -1    0.53    0.44
  16 -19  -1    0.09    0.39
  19  -3  -1    0.55    0.41
   3  16  -1    0.72    0.46
  19 -16   1   -0.11    0.33
 -19  16   1    0.32    0.39
  19  -3  -1    0.42    0.28
 -17  19   1    0.75    0.46
   2  17   1    1.43    0.59
  17 -19   1   -0.04    0.30
  19 -17  -1    0.41    0.40
  -2  19  -1    0.43    0.49
  19  -2   1    0.52    0.44
  17   2  -1    0.76    0.50
 -19  17  -1   -0.27    0.39
  19  -2   1    0.36    0.31
  19  -2  -1    0.28    0.44
  17 -19  -1   -0.40    0.27
  19  -2  -1    0.39    0.28
  19 -17   1    0.06    0.33
  -2  19   1    0.07    0.47
  17   2   1    0.19    0.48
 -19  17   1    0.28    0.42
 -17  19  -1    0.79    0.54
   2  17  -1    0.28    0.51
  -1  19  -1    2.36    0.78
   1  18   1    1.16    0.67
  19  -1   1    2.25    0.53
 -18  19   1    1.75    0.80
  19  -1   1    2.78    0.69
  19 -18  -1    1.58    0.54
  18 -19   1    1.67    0.53
 -19  18  -1    2.85    0.78
  18   1  -1    2.92    0.84
 -18  19  -1    1.38    0.50
   1  18  -1    2.99    0.91
 -19  18   1    2.05    0.65
  -1  19   1    1.80    0.77
  18 -19  -1    2.37    0.61
  19  -1  -1    3.24    0.82
  18   1   1    2.24    0.72
  19 -18   1    3.07    0.72
 -19  19   1   -0.76    0.43
 -19  19  -1   -0.32    0.47
   0  19   1    0.44    0.55
  19 -19  -1    0.38    0.34
  19 -19   1   -0.20    0.32
   0  19  -1    0.62    0.58
  19   0  -1    0.23    0.50
  19   0   1    0.84    0.49
  10  10   1    3.96    0.89
 -20  10   1    3.30    0.78
  20 -10  -1    3.41    0.75
 -10  20  -1    3.17    0.89
  10  10  -1    3.63    0.85
  20 -10   1    3.93    0.74
 -20  10  -1    3.93    0.80
 -10  20   1    3.14    0.95
  11   9  -1    0.12    0.38
  20 -11  -1   -0.41    0.25
 -20  11  -1    0.24    0.38
 -11  20   1    0.46    0.53
  -9  20  -1   -1.04    0.44
   9  11   1   -0.28    0.39
  20  -9   1    0.30    0.31
  20  -9  -1    0.57    0.35
  20 -11   1    0.63    0.34
 -20  11   1    0.39    0.39
  -9  20   1    0.38    0.56
  11   9   1    0.16    0.42
  20  -9  -1    0.46    0.52
   9  11  -1   -0.01    0.35
 -11  20  -1    0.08    0.50
 -12  20   1   -0.31    0.47
   8  12   1    0.99    0.45
  12   8  -1    0.30    0.43
  20 -12  -1    0.20    0.32
  -8  20  -1    0.08    0.43
  20  -8   1    0.05    0.28
 -20  12  -1    0.32    0.40
 -12  20  -1   -0.20    0.44
  20  -8  -1    0.08    0.32
  20  -8  -1   -0.78    0.39
 -20  12   1   -0.16    0.37
   8  12  -1    0.01    0.40
  -8  20   1   -0.48    0.49
  12   8   1    0.52    0.48
  20 -12   1   -0.09    0.30
  20 -13  -1   -0.51    0.25
  20  -7   1    0.30    0.33
 -13  20   1    0.89    0.50
  13   7  -1    0.31    0.42
   7  13   1   -0.58    0.34
 -20  13  -1   -0.14    0.33
  -7  20  -1    0.14    0.46
 -13  20  -1    0.93    0.51
   7  13  -1    0.18    0.39
  13   7   1   -0.30    0.42
 -20  13   1    0.13    0.39
  20  -7  -1    0.21    0.25
  20 -13   1    0.16    0.37
  20  -7  -1   -0.27    0.40
  13 -20  -1    0.20    0.31
  -7  20   1    0.72    0.59
  20  -6   1   -0.12    0.22
  20 -14  -1    0.23    0.36
  -6  20  -1   -0.04    0.47
 -20  14  -1    0.22    0.37
  14   6  -1   -0.02    0.40
 -14  20   1    0.01    0.42
   6  14   1    0.74    0.45
  14 -20  -1    0.17    0.33
  20 -14   1    0.45    0.37
   6  14  -1   -0.18    0.39
  20  -6  -1    0.11    0.25
 -20  14   1   -0.05    0.34
 -14  20  -1   -0.06    0.49
  14   6   1    0.42    0.42
  -6  20   1   -0.91    0.46
  20  -6  -1    0.19    0.48
  20  -5   1    0.09    0.28
  15 -20   1    0.00    0.34
 -20  15  -1    0.38    0.37
  15   5  -1    0.20    0.51
  20 -15  -1    0.17    0.34
 -15  20   1    0.69    0.50
  -5  20  -1   -0.03    0.50
   5  15   1    0.15    0.39
  -5  20   1    0.10    0.51
 -15  20  -1   -0.64    0.44
  15 -20  -1    0.25    0.35
  20  -5  -1    0.16    0.23
   5  15  -1    1.29    0.49
  20 -15   1    0.55    0.46
  15   5   1   -0.68    0.43
 -20  15   1    0.69    0.40
  20  -5  -1    0.44    0.47
  16   4  -1    0.51    0.51
 -20  16  -1    0.00    0.35
  20 -16  -1    0.85    0.51
  -4  20  -1    0.61    0.64
 -16  20   1    0.34    0.46
  16 -20   1    0.61    0.39
   4  16   1    0.78    0.55
  20  -4   1    0.66    0.41
  20 -16   1    0.54    0.36
  20  -4  -1    0.56    0.30
 -20  16   1    0.97    0.47
  16   4   1    0.24    0.53
  -4  20   1    0.74    0.62
  20  -4  -1    0.96    0.50
 -16  20  -1    0.50    0.54
   4  16  -1    0.19    0.48
  16 -20  -1    0.55    0.37
 -17  20   1   -0.55    0.50
  -3  20  -1   -0.18    0.49
 -20  17  -1   -0.31    0.42
  20 -17  -1   -0.12    0.34
   3  17   1   -0.47    0.37
  20  -3   1    0.54    0.37
  17   3  -1   -0.26    0.46
  17 -20   1   -0.07    0.33
  20  -3  -1    0.44    0.50
  -3  20   1    1.81    0.68
  17   3   1   -0.86    0.46
   3  17  -1   -0.17    0.39
  17 -20  -1    1.11    0.46
 -20  17   1    0.35    0.42
  20 -17   1    0.59    0.41
  20  -3  -1   -0.02    0.27
 -17  20  -1    0.16    0.49
  20 -18  -1    0.26    0.38
 -20  18  -1   -0.35    0.39
   2  18   1    0.17    0.49
  18 -20   1   -0.40    0.35
 -18  20   1    0.25    0.55
  20  -2   1    0.29    0.32
  -2  20  -1    0.23    0.50
  18   2  -1    0.24    0.51
  20  -2  -1    0.68    0.50
   2  18  -1   -0.28    0.41
 -20  18   1    0.22    0.47
  18 -20  -1   -0.16    0.31
  18   2   1   -0.31    0.46
  20  -2  -1    0.07    0.25
 -18  20  -1    0.70    0.50
  20 -18   1    1.31    0.47
  -2  20   1    1.21    0.66
  20 -19  -1    1.17    0.47
  19   1  -1   -0.67    0.46
 -19  20   1    0.31    0.55
  -1  20  -1    1.30    0.75
  20  -1   1    0.68    0.41
   1  19   1    0.93    0.60
  19 -20   1    1.02    0.48
  -1  20   1    0.37    0.50
   1  19  -1   -0.37    0.47
  20 -19   1    1.17    0.48
  19 -20  -1    0.58    0.43
  20  -1  -1    0.73    0.51
 -20  19   1    0.67    0.49
 -19  20  -1    1.61    0.62
  20 -20  -1    0.26    0.35
 -20  20   1   -0.15    0.49
  20   0  -1   -0.88    0.45
   0  20   1   -0.37    0.48
   0  20  -1    0.11    0.51
  20 -20   1   -0.22    0.32
 -21  10   1    2.04    0.68
  10  11   1    1.03    0.51
  11  10  -1    3.32    0.79
  21 -11  -1    2.06    0.58
 -10  21  -1    2.31    0.88
  21 -10   1    2.55    0.61
 -11  21   1    3.23    0.94
 -11  21  -1    2.63    0.89
  11  10   1    2.85    0.80
  21 -11   1    1.91    0.52
  10  11  -1    2.90    0.78
  21 -10  -1    1.26    0.51
 -21  11   1    1.97    0.64
 -10  21   1    2.88    1.00
  21  -9   1   -0.20    0.26
  12   9  -1    0.61    0.40
 -12  21   1   -0.01    0.52
  21 -12  -1   -0.36    0.24
   9  12   1   -0.04    0.47
  -9  21  -1    0.10    0.52
  21  -9  -1   -0.02    0.28
 -12  21  -1    0.40    0.51
 -21  12   1   -0.36    0.36
  21 -12   1   -0.48    0.23
   9  12  -1   -0.43    0.36
  21  -9  -1    0.21    0.41
  -9  21   1   -1.11    0.46
   8  13   1    1.01    0.50
  21  -8   1    0.48    0.31
  -8  21  -1   -1.03    0.56
  21 -13  -1   -0.02    0.29
 -13  21   1    1.77    0.71
  13   8  -1    0.19    0.46
  21 -13   1    0.91    0.46
 -13  21  -1    0.99    0.58
  21  -8  -1    0.14    0.27
  -8  21   1    0.97    0.58
 -21  13   1    0.04    0.41
  13   8   1    0.80    0.45
   8  13  -1    0.02    0.43
  21  -8  -1   -0.37    0.42
  14   7  -1    0.14    0.47
  21  -7   1   -0.11    0.26
   7  14   1    0.15    0.45
 -14  21   1   -0.46    0.44
  21 -14  -1   -0.40    0.32
  -7  21  -1    0.80    0.64
 -21  14   1    0.43    0.40
  -7  21   1   -1.01    0.47
  21 -14   1    0.61    0.39
   7  14  -1    0.83    0.50
  21  -7  -1   -0.05    0.26
  14   7   1    1.15    0.52
 -14  21  -1    0.36    0.53
  21  -7  -1    0.91    0.52
  -6  21  -1   -0.20    0.52
  15   6  -1   -0.56    0.40
  21 -15  -1   -0.25    0.32
 -15  21   1    0.43    0.56
  21  -6   1    0.26    0.34
   6  15   1    0.44    0.41
  15   6   1    0.38    0.43
  -6  21   1    0.23    0.53
 -21  15   1   -0.29    0.33
  21  -6  -1    0.00    0.25
  21  -6  -1    0.55    0.49
  15 -21  -1    0.11    0.32
   6  15  -1    0.55    0.48
  21 -15   1   -0.03    0.35
 -15  21  -1   -0.50    0.49
   5  16   1   -0.18    0.45
  21  -5   1    0.64    0.30
  21 -16  -1    0.40    0.39
  16   5  -1    0.30    0.53
  -5  21  -1   -0.81    0.49
 -16  21   1    0.59    0.52
 -21  16   1    1.27    0.48
  21  -5  -1    0.06    0.30
   5  16  -1    0.64    0.48
 -16  21  -1    1.00    0.62
  -5  21   1   -0.32    0.55
  21 -16   1    1.27    0.50
  16   5   1    1.00    0.60
  16 -21  -1    1.21    0.48
  21  -5  -1    1.35    0.57
 -17  21   1    0.25    0.51
  21  -4   1    0.73    0.36
  -4  21  -1    0.59    0.56
   4  17   1    0.28    0.48
  17   4  -1   -0.08    0.41
  21 -17  -1    0.79    0.46
  17 -21   1    0.56    0.46
  17   4   1    0.61    0.50
  21  -4  -1    0.70    0.53
  21 -17   1    0.86    0.46
  17 -21  -1    0.20    0.36
 -17  21  -1    0.10    0.48
  21  -4  -1   -0.31    0.27
 -21  17   1    1.06    0.51
   4  17  -1    0.70    0.52
  -4  21   1    0.29    0.57
  21  -3   1    0.31    0.28
 -18  21   1    0.53    0.56
  18 -21   1   -0.02    0.32
  18   3  -1    0.68    0.55
  21 -18  -1   -0.49    0.35
   3  18   1   -0.18    0.44
  -3  21  -1    0.12    0.53
   3  18  -1   -0.05    0.44
  18   3   1    0.49    0.54
  21 -18   1    0.02    0.35
  21  -3  -1   -0.09    0.26
  -3  21   1   -0.06    0.55
  21  -3  -1    0.95    0.56
 -18  21  -1    0.53    0.49
  18 -21  -1   -0.21    0.34
 -21  18   1    0.11    0.42
  19   2  -1    0.88    0.60
   2  19   1    1.63    0.69
  21  -2   1    0.75    0.40
  -2  21  -1    2.20    0.74
  21 -19  -1    0.67    0.42
 -19  21   1    1.25    0.54
  19 -21   1    1.36    0.50
 -21  19   1    1.92    0.67
   2  19  -1    0.90    0.51
  -2  21   1    0.85    0.64
  19 -21  -1    1.58    0.56
 -19  21  -1   -0.54    0.53
  21 -19   1    0.03    0.45
  21  -2  -1    1.66    0.69
  21 -20  -1    0.14    0.35
  20   1  -1    1.37    0.63
 -20  21   1    0.49    0.51
  20 -21   1   -0.28    0.38
   1  20   1    1.38    0.68
  -1  21  -1   -0.43    0.50
 -21  20   1   -0.25    0.51
  21 -20   1    1.66    0.52
  21  -1  -1    0.52    0.53
  -1  21   1   -0.47    0.56
  20 -21  -1    0.74    0.45
   1  20  -1    0.67    0.59
  21 -21   1   -0.59    0.35
   0  21   1    0.51    0.55
  21   0  -1   -0.51    0.54
   0  21  -1   -0.55    0.45
  21 -21  -1   -0.24    0.39
 -21  21   1   -0.19    0.60
  11  11  -1    2.04    0.62
 -22  11   1    0.75    0.52
 -11  22  -1    1.20    0.65
  11  11   1    1.22    0.57
  22 -11  -1    0.23    0.32
 -11  22   1    1.55    0.69
  22 -11   1    0.91    0.40
  22 -10   1    0.69    0.33
  12  10  -1    0.23    0.44
 -12  22   1    0.36    0.54
  10  12   1    0.26    0.46
 -22  10   1    0.79    0.55
 -10  22  -1    2.05    0.78
  22 -12  -1    0.22    0.33
  10  12  -1    1.53    0.56
  22 -12   1    0.54    0.38
 -10  22   1    0.50    0.66
  22 -10  -1    0.27    0.36
 -22  12   1    0.25    0.44
 -12  22  -1   -0.44    0.50
  12  10   1    0.72    0.44
  13   9  -1    0.02    0.42
 -13  22   1    2.68    0.76
  -9  22  -1    0.08    0.63
   9  13   1    0.58    0.47
  22 -13  -1    0.70    0.42
  22  -9   1    0.49    0.33
  13   9   1    0.59    0.47
  22 -13   1    0.74    0.40
 -22  13   1    0.44    0.44
  -9  22   1    1.74    0.68
   9  13  -1    0.15    0.40
  22  -9  -1    2.13    0.70
 -13  22  -1    0.86    0.67
  22  -9  -1    1.11    0.47
   8  14   1    0.35    0.40
  -8  22  -1    0.59    0.54
 -14  22   1   -0.35    0.51
  22  -8   1   -0.10    0.28
  22 -14  -1    0.31    0.33
  14   8  -1   -0.16    0.40
  -8  22   1    0.61    0.59
  14   8   1    0.87    0.56
  22 -14   1   -0.11    0.34
  22  -8  -1    0.61    0.31
  22  -8  -1   -0.23    0.49
 -14  22  -1    1.48    0.70
   8  14  -1   -0.59    0.38
 -22  14   1    0.15    0.37
 -15  22   1   -0.64    0.51
  22  -7   1   -0.12    0.28
  22 -15  -1   -0.38    0.35
   7  15   1    0.83    0.80
  15   7  -1    0.19    0.51
  -7  22  -1   -0.38    0.51
   7  15  -1    0.47    0.42
 -15  22  -1    0.39    0.54
  22 -15   1    0.65    0.45
  22  -7  -1   -0.20    0.54
  22  -7  -1   -0.38    0.24
  15   7   1    0.36    0.44
  -7  22   1   -1.07    0.51
 -22  15   1    0.69    0.49
   6  16   1    0.23    0.46
  22 -16  -1   -0.22    0.35
  22  -6   1    0.63    0.35
  -6  22  -1    0.94    0.61
 -16  22   1    0.04    0.53
  16   6  -1    1.47    0.58
  -6  22   1    1.60    0.75
  22  -6  -1   -0.14    0.29
  16   6   1   -0.92    0.47
  22  -6  -1    0.46    0.49
   6  16  -1    1.42    0.93
 -16  22  -1    0.13    0.54
 -22  16   1   -0.61    0.39
  22 -16   1    0.15    0.40
   5  17   1    0.32    0.47
 -17  22   1    0.28    0.52
  22 -17  -1    0.79    0.43
  22  -5   1   -0.28    0.25
  -5  22  -1    0.16    0.55
  17   5  -1   -0.26    0.47
 -22  17   1    0.62    0.47
  17   5   1    0.29    0.59
 -17  22  -1   -0.61    0.49
  22  -5  -1    0.51    0.53
   5  17  -1    0.03    0.55
  22 -17   1    0.16    0.41
  -5  22   1    1.22    0.75
  17 -22  -1   -0.44    0.32
  22  -5  -1   -0.59    0.24
  -4  22  -1    1.54    0.70
  22 -18  -1    1.25    0.50
  22  -4   1    1.48    0.50
  18   4  -1    3.46    0.91
 -18  22   1    2.60    0.83
   4  18   1    1.23    0.64
   4  18  -1    1.93    0.74
  22  -4  -1    1.25    0.43
  22 -18   1    1.59    0.59
  18   4   1    0.66    0.64
 -22  18   1    0.88    0.54
  -4  22   1    1.10    0.73
 -18  22  -1    1.44    0.79
  18 -22  -1    1.15    0.44
 -19  22   1   -0.45    0.58
  22  -3   1   -0.12    0.33
  -3  22  -1   -0.23    0.55
  19 -22   1    0.58    0.43
   3  19   1    0.98    0.51
  19   3  -1    0.77    0.58
  22 -19  -1    0.62    0.43
 -22  19   1    0.00    0.47
  22 -19   1    0.75    0.43
  -3  22   1   -1.06    0.55
   3  19  -1    0.00    0.50
  19 -22  -1    0.36    0.43
 -19  22  -1   -0.13    0.62
 -20  22   1   -0.45    0.53
   2  20   1   -0.41    0.50
  22 -20  -1    0.65    0.43
  -2  22  -1    0.16    0.60
  20   2  -1    0.66    0.58
  20 -22   1    0.20    0.37
 -22  20   1    0.68    0.55
  22 -20   1    0.82    0.51
  -2  22   1    0.65    0.62
  20 -22  -1    0.28    0.44
   2  20  -1   -1.05    0.41
 -12  23   1   -0.01    0.61
  23 -12  -1    0.05    0.34
  11  12   1    0.46    0.45
  12  11  -1    0.56    0.53
 -11  23  -1    0.68    0.61
  23 -11   1   -0.74    0.28
  23 -12   1   -0.35    0.26
 -12  23  -1   -0.74    0.53
 -11  23   1    1.05    0.70
  11  12  -1   -0.24    0.44
  12  11   1    0.48    0.43
  23 -11  -1    0.41    0.32
  23 -10   1    0.36    0.34
  10  13   1    0.04    0.50
 -10  23  -1   -0.42    0.54
  23 -13  -1   -0.69    0.28
  13  10  -1   -0.24    0.44
 -13  23   1   -0.57    0.60
 -10  23   1    0.20    0.66
  23 -13   1   -0.14    0.30
  10  13  -1    0.56    0.48
  23 -10  -1    0.01    0.31
 -13  23  -1   -0.09    0.57
  13  10   1   -0.15    0.42
   9  14   1    0.61    0.49
  23  -9   1    0.26    0.32
  -9  23  -1   -0.14    0.58
  23 -14  -1    0.42    0.32
 -14  23   1    0.64    0.61
  14   9  -1    1.55    0.57
  23 -14   1   -0.33    0.37
  23  -9  -1   -0.67    0.33
   9  14  -1   -0.70    0.39
 -14  23  -1    0.53    0.68
  -9  23   1    0.66    0.57
  14   9   1    0.29    0.42
   8  15   1    0.43    0.51
 -15  23   1    1.04    0.62
  23  -8   1    0.56    0.40
  15   8  -1    1.06    0.56
  23 -15  -1    0.24    0.41
  -8  23  -1    1.22    0.69
  23 -15   1    0.01    0.40
  -8  23   1    0.44    0.61
   8  15  -1   -0.21    0.46
  23  -8  -1    0.11    0.34
 -15  23  -1    0.89    0.64
  15   8   1    0.23    0.49
  23 -16  -1   -0.20    0.44
  23  -7   1    0.04    0.30
  -7  23  -1    1.19    0.71
   7  16   1    0.92    0.72
  16   7  -1   -0.71    0.46
 -16  23   1   -0.23    0.58
  23 -16   1   -0.26    0.33
   7  16  -1    0.16    0.46
  -7  23   1   -0.65    0.60
 -16  23  -1   -0.26    0.62
  23  -7  -1   -0.56    0.29
  16   7   1   -1.01    0.46
  23 -17  -1    0.23    0.41
 -17  23   1    1.26    0.69
   6  17   1    0.22    0.50
  17   6  -1    1.64    0.66
  23  -6   1    1.12    0.44
  -6  23  -1    0.33    0.69
  17   6   1    0.92    0.59
 -17  23  -1    0.70    0.75
  23 -17   1    0.04    0.43
  -6  23   1    1.19    0.75
  23  -6  -1    0.40    0.37
   6  17  -1    0.54    0.51
  23 -18  -1    0.36    0.43
  18   5  -1   -0.32    0.57
 -18  23   1    0.31    0.66
  23  -5   1    0.76    0.34
   5  18   1    0.67    0.54
  -5  23  -1   -0.95    0.55
   5  18  -1   -0.47    0.46
  18   5   1    0.32    0.57
  23 -18   1    0.47    0.49
 -18  23  -1   -0.48    0.56
  23  -5  -1   -0.76    0.29
  -5  23   1    0.87    0.72
 -12  24  -1    1.01    0.63
  24 -12  -1   -0.32    0.36
 -12  24   1   -0.02    0.60
  12  12   1    0.43    0.52
  12  12  -1    0.19    0.46
  24 -12   1   -0.08    0.33
  11  13   1    0.95    0.56
 -13  24   1    0.79    0.78
 -11  24  -1    0.50    0.64
  24 -11   1   -0.04    0.33
  24 -13  -1    0.11    0.39
  13  11  -1   -0.37    0.46
  13  11   1   -0.36    0.43
 -11  24   1    0.53    0.65
  24 -11  -1   -0.43    0.36
  24 -13   1   -0.13    0.31
 -13  24  -1   -0.79    0.56
  11  13  -1    0.77    0.57
  10  14   1    1.17    0.61
 -10  24  -1    0.66    0.65
  24 -10   1   -0.18    0.34
  24 -14  -1    0.35    0.39
 -14  24   1    0.57    0.67
  14  10  -1    1.55    0.63
  24 -14   1    0.41    0.46
  10  14  -1    0.50    0.49
 -14  24  -1    0.45    0.70
  24 -10  -1    0.69    0.41
 -10  24   1    1.20    0.75
  14  10   1    0.69    0.56
  24  -9   1   -0.90    0.32
  15   9  -1   -0.22    0.51
 -15  24   1    0.60    0.72
  -9  24  -1   -0.38    0.57
   9  15   1    0.08    0.43
  15   9   1   -0.17    0.50
   9  15  -1   -0.57    0.44
 -15  24  -1    1.53    0.79
  24  -9  -1    0.27    0.36
  -9  24   1    0.59    0.72
 -16  24   1    1.47    0.72
  -8  24  -1    0.47    0.73
   8  16   1   -0.99    0.47
  16   8  -1    0.37    0.53
 -16  24  -1    0.24    0.72
  16   8   1    0.10    0.64
   8  16  -1   -0.63    0.46
  -8  24   1   -1.02    0.59
   0   1   2    0.78    0.13
   1  -1   2    0.67    0.11
   1  -1  -2    0.93    0.15
   1   0  -2    0.87    0.15
   0  -1  -2    0.74    0.15
   1   0   2    0.68    0.13
   1   0  -2    0.82    0.13
   0   1  -2    0.74    0.12
   0  -1   2    0.80    0.10
   1  -1  -2    0.59    0.13
   1   1   2   36.32    1.48
  -1   2  -2   34.65    1.45
  -1   2   2   37.66    1.48
   1  -2  -2   31.51    1.42
   1  -2   2   37.99    1.30
   1   1   2   40.42    1.43
   2  -1  -2   32.24    1.37
   2  -1  -2   33.10    1.49
   1   1  -2   32.56    1.46
   1   1  -2   32.95    1.30
   2  -1   2   37.45    1.36
  -2   2  -2   81.31    3.02
   2   0   2   80.93    2.99
   0  -2  -2   75.25    2.97
  -2   2   2   79.26    3.08
   2  -2   2   74.99    2.83
   2   0  -2   84.03    2.87
   2  -2  -2   78.35    2.94
   0   2   2   75.84    3.11
   0   2  -2   82.91    3.09
   2   0  -2   81.67    3.12
   2   0   2   79.33    2.91
   2   1  -2   30.39    1.13
   2   1  -2   29.89    1.34
  -2   3   2   28.47    1.34
  -1   3  -2   30.71    1.38
   1   2   2   28.40    1.24
   1  -3  -2   29.66    1.30
   3  -1   2   27.63    1.18
   1   2   2   28.91    1.39
   3  -1   2   31.32    1.22
   2  -3   2   29.63    1.11
   3  -2  -2   30.57    1.38
  -3   2  -2   30.83    1.19
   2   1   2   29.71    1.23
  -1   3   2   29.56    1.38
   2   1   2   30.29    1.30
   1  -3   2   29.75    1.08
  -2   3  -2   30.60    1.34
   3  -1  -2   29.32    1.20
   3  -1  -2   30.17    1.38
   2  -3  -2   30.56    1.29
   1   2  -2   31.73    1.36
   3  -2   2   28.30    1.16
   0   3   2    9.34    0.69
   3  -3   2    9.51    0.48
   0  -3  -2   12.26    0.66
   3   0  -2   12.56    0.70
  -3   3   2    8.27    0.60
   3   0   2    9.97    0.54
   3  -3  -2   12.29    0.62
  -3   3  -2   12.24    0.59
   3   0   2    9.67    0.54
   3   0  -2   12.32    0.53
   0   3  -2   12.86    0.70
  -2   4   2   55.89    2.36
   2   2   2   55.01    2.12
   2   2   2   55.08    2.31
   2  -4   2   53.81    1.98
   4  -2  -2   53.70    2.10
  -2   4  -2   49.13    2.32
   4  -2   2   52.99    2.04
   4  -2   2   57.48    2.17
   2   2  -2   55.64    2.31
   4  -2  -2   53.89    2.33
   2  -4  -2   54.61    2.19
   1   3   2    2.29    0.39
   3  -4   2    2.11    0.17
  -4   3  -2    1.66    0.20
   4  -1   2    2.16    0.23
   4  -1   2    2.21    0.24
   3   1  -2    1.55    0.16
   4  -3  -2    1.53    0.30
   3   1  -2    1.14    0.26
   1   3   2    2.43    0.28
  -3   4   2    2.53    0.34
   4  -3  -2    1.30    0.22
  -1   4  -2    1.40    0.31
   1  -4  -2    1.30    0.24
  -1   4   2    2.21    0.38
   3  -4  -2    1.11    0.22
  -3   4  -2    1.29    0.25
   4  -1  -2    1.37    0.20
   1  -4   2    2.09    0.14
   3   1   2    2.13    0.27
   4  -3   2    2.47    0.20
   3   1   2    2.26    0.26
   4  -1  -2    1.31    0.28
   1   3  -2    1.27    0.27
   0  -4  -2   54.84    2.24
   4  -4   2   55.17    2.04
   0   4  -2   56.47    2.43
   4   0   2   56.32    2.24
   4   0  -2   54.38    2.08
   0   4   2   52.03    2.49
  -4   4   2   56.48    2.34
  -4   4  -2   55.13    2.25
   4   0   2   56.12    2.12
   4   0  -2   52.81    2.37
   2   3   2   29.91    1.59
  -2   5  -2   34.27    1.70
   5  -2   2   32.39    1.44
   5  -2   2   31.12    1.31
   5  -3  -2   33.60    1.61
   5  -3  -2   34.60    1.42
   2   3   2   32.38    1.39
   2  -5  -2   33.90    1.48
   3  -5   2   32.76    1.29
  -3   5   2   30.43    1.58
   3   2  -2   33.15    1.57
   5  -3   2   30.83    1.30
   2  -5   2   31.70    1.26
   5  -3   2   30.75    1.41
   3  -5  -2   34.18    1.47
   3   2   2   31.99    1.53
  -3   5  -2   34.84    1.64
   5  -2  -2   33.56    1.38
   3   2   2   32.22    1.37
   2   3  -2   34.33    1.60
  -2   5   2   32.17    1.66
   5  -2  -2   31.69    1.59
   1   4   2    4.91    0.39
   4   1  -2    5.99    0.33
  -5   4  -2    5.31    0.38
   1  -5  -2    6.20    0.48
   1   4   2    4.26    0.59
   5  -1   2    5.20    0.36
   4  -5   2    4.85    0.33
   4   1  -2    5.57    0.55
  -4   5   2    4.92    0.52
   5  -4  -2    5.06    0.41
   5  -1   2    5.00    0.41
  -1   5  -2    6.49    0.65
   1  -5   2    5.02    0.28
   1   4  -2    6.36    0.55
   5  -1  -2    5.11    0.55
  -1   5   2    5.09    0.64
  -5   4   2    4.75    0.49
   4   1   2    4.98    0.43
   4   1   2    5.26    0.38
  -4   5  -2    5.46    0.47
   4  -5  -2    5.01    0.42
   5  -1  -2    5.75    0.38
   5  -4   2    4.43    0.31
  -5   5   2   29.12    1.38
   0   5  -2   25.62    1.45
  -5   5  -2   26.12    1.28
   5   0  -2   24.19    1.37
   5  -5  -2   23.84    1.22
   0  -5  -2   25.07    1.26
   5   0  -2   26.45    1.13
   5  -5   2   27.19    1.13
   0   5   2   27.97    1.59
   5   0   2   29.73    1.18
   5   0   2   27.74    1.28
   3   3  -2   90.14    3.03
   3   3   2   86.58    3.23
   6  -3   2   80.83    3.14
   6  -3  -2   85.22    3.26
   6  -3   2   84.45    3.41
   3   3   2   84.58    3.56
  -3   6   2   83.01    3.66
   3   3  -2   86.05    3.57
   3  -6   2   84.47    3.13
   6  -3  -2   86.22    3.61
   3  -6  -2   88.56    3.37
  -3   6  -2   84.42    3.68
   2  -6  -2    4.89    0.49
   4   2  -2    4.35    0.54
  -6   4  -2    4.56    0.37
   6  -4  -2    4.99    0.42
   4   2  -2    4.61    0.28
   6  -2   2    4.45    0.34
   6  -4  -2    4.72    0.56
   2   4   2    4.18    0.37
  -2   6  -2    4.31    0.62
  -4   6   2    5.78    0.61
   4  -6   2    4.46    0.33
   6  -2   2    5.27    0.44
   2   4   2    4.58    0.61
   2  -6   2    5.02    0.31
  -4   6  -2    4.46    0.56
   4   2   2    4.88    0.49
   6  -4   2    4.80    0.34
   2   4  -2    4.77    0.21
   6  -2  -2    4.55    0.37
   4  -6  -2    4.22    0.46
   4   2   2    4.69    0.37
   2   4  -2    5.30    0.57
  -2   6   2    4.70    0.67
   6  -2  -2    4.63    0.57
  -6   5  -2    3.17    0.36
  -1   6  -2    2.30    0.48
   6  -5  -2    3.22    0.40
   5   1  -2    3.51    0.27
   5  -6   2    4.16    0.34
   6  -1   2    4.62    0.34
   1   5   2    3.43    0.59
  -5   6   2    3.98    0.51
   1   5   2    4.38    0.41
   6  -1   2    4.26    0.45
   5   1  -2    3.04    0.48
   1  -6  -2    3.18    0.42
   6  -5   2    3.67    0.31
   6  -1  -2    3.00    0.32
   5   1   2    4.12    0.33
   6  -1  -2    2.96    0.49
   1   5  -2    3.43    0.52
   5  -6  -2    2.88    0.40
   1  -6   2    4.35    0.27
  -5   6  -2    4.32    0.49
  -1   6   2    5.33    0.72
  -6   5   2    4.68    0.51
   5   1   2    3.96    0.44
   6   0   2   53.61    2.31
   0   6   2   51.36    2.66
   6  -6   2   49.74    2.07
   0  -6   2   50.79    1.93
  -6   6  -2   54.79    2.32
   0   6  -2   52.50    2.53
   6   0   2   55.06    2.09
   6   0  -2   54.56    2.07
   6   0  -2   50.61    2.42
   6  -6  -2   49.65    2.19
  -6   6   2   54.20    2.39
   0  -6  -2   50.19    2.21
   3   4   2   10.89    0.84
   7  -3   2   10.66    0.72
  -3   7  -2    9.63    0.88
   7  -4  -2   10.47    0.83
  -4   7   2   11.62    0.90
   4   3  -2   10.40    0.80
   7  -3   2   10.65    0.59
   4  -7   2   11.47    0.61
   3   4   2   12.02    0.67
   4   3  -2   10.73    0.49
   3  -7  -2   10.79    0.73
   7  -4  -2   12.13    0.71
   3  -7   2   11.07    0.59
   4   3   2   11.21    0.80
   7  -3  -2   10.81    0.67
   7  -4   2   10.72    0.59
   7  -3  -2   10.80    0.85
   7  -4   2   11.96    0.74
  -4   7  -2   11.75    0.91
   4   3   2   11.25    0.65
   4  -7  -2   11.14    0.74
   3   4  -2   10.37    0.82
   3   4  -2   10.99    0.46
  -3   7   2   12.34    0.97
   2   5   2   55.37    2.70
   2   5   2   53.85    2.25
   7  -2   2   58.50    2.20
  -2   7  -2   55.45    2.74
   5   2  -2   56.37    2.09
   7  -2   2   54.53    2.43
   5  -7   2   58.21    2.23
  -5   7   2   60.21    2.64
   7  -5  -2   57.06    2.60
  -7   5  -2   53.42    2.35
   2  -7  -2   53.48    2.37
   5   2  -2   55.31    2.57
   7  -5  -2   56.35    2.33
   5   2   2   57.45    2.23
  -2   7   2   55.75    2.81
   2   5  -2   57.56    1.99
  -5   7  -2   52.72    2.55
   5   2   2   56.49    2.49
   5  -7  -2   52.32    2.35
   7  -5   2   55.48    2.19
   7  -2  -2   53.65    2.59
   2   5  -2   53.84    2.57
   2  -7   2   57.83    2.15
   7  -2  -2   58.29    2.28
   1   6   2   12.62    1.05
   7  -1   2   12.61    0.67
  -6   7   2   11.63    0.87
   7  -1   2   12.52    0.83
   1  -7  -2   11.40    0.78
  -1   7  -2   11.72    0.99
   6   1  -2   10.85    0.87
  -7   6  -2   11.37    0.76
   6   1  -2   11.54    0.63
   7  -6  -2   10.82    0.75
   1   6   2   12.45    0.73
   6  -7   2   12.76    0.71
   6   1   2   12.51    0.68
   6   1   2   13.94    0.86
   1  -7   2   12.90    0.60
  -6   7  -2   12.49    0.86
  -7   6   2   13.87    0.90
   1   6  -2   12.54    0.50
   6  -7  -2   11.01    0.76
   7  -1  -2   11.83    0.68
   7  -6   2   12.56    0.70
  -1   7   2   11.58    1.05
   7  -1  -2   10.99    0.90
   1   6  -2   11.31    0.92
   7   0  -2   11.27    0.90
   7   0   2   10.64    0.79
   7  -7   2   11.44    0.69
   0  -7  -2   12.11    0.79
   0   7   2   12.91    1.11
  -7   7   2   11.68    0.86
   0   7  -2   11.16    0.96
   7   0  -2   10.46    0.63
   7   0   2   10.94    0.64
   7  -7  -2   11.27    0.77
  -7   7  -2   10.72    0.77
   8  -4  -2   34.86    1.57
  -4   8   2   32.98    1.90
   4  -8   2   32.94    1.43
   4  -8  -2   33.45    1.62
  -4   8  -2   34.28    1.94
   8  -4  -2   32.26    1.79
   4   4   2   33.91    1.77
   4   4  -2   31.62    1.76
   8  -4   2   32.90    1.43
   8  -4   2   34.43    1.66
   4   4  -2   33.98    1.26
   4   4   2   35.13    1.49
   8  -5  -2    0.42    0.27
   8  -3   2    1.21    0.30
  -3   8  -2    1.38    0.41
   3  -8  -2    0.84    0.26
   3   5   2    1.98    0.30
  -5   8   2    1.84    0.43
   8  -3   2    1.82    0.26
   3   5   2    1.56    0.40
  -8   5  -2    1.37    0.28
   5   3  -2    0.90    0.14
   5   3  -2    1.13    0.34
   5  -8   2    1.55    0.26
   8  -5  -2    1.04    0.26
   3  -8   2    1.10    0.20
  -5   8  -2    2.02    0.45
   8  -5   2    1.12    0.22
   5  -8  -2    0.60    0.24
  -3   8   2    1.83    0.50
   8  -3  -2    1.13    0.26
   3   5  -2    1.01    0.33
   5   3   2    1.69    0.27
   8  -3  -2    1.66    0.40
   3   5  -2    1.05    0.11
   5   3   2    1.18    0.33
   2  -8  -2    0.74    0.23
   2   6   2    0.91    0.38
   2   6   2    0.62    0.18
   6  -8   2    0.70    0.19
   6   2  -2    1.01    0.17
   8  -6  -2    0.85    0.27
  -6   8   2    0.28    0.23
   6   2  -2    0.86    0.31
   8  -2   2    0.55    0.16
   8  -2   2    0.67    0.25
  -8   6  -2    0.67    0.20
  -2   8  -2    0.89    0.37
   6  -8  -2    0.75    0.25
  -6   8  -2    0.71    0.28
   2   6  -2    1.44    0.37
   8  -2  -2    0.61    0.21
  -8   6   2    0.21    0.22
   6   2   2    0.64    0.26
   6   2   2    0.65    0.18
   8  -2  -2    0.60    0.29
  -2   8   2    0.55    0.35
   2  -8   2    0.85    0.17
   8  -6   2    0.60    0.18
   2   6  -2    0.96    0.10
   8  -7  -2    3.97    0.51
   7   1  -2    3.70    0.60
   7   1  -2    3.62    0.35
  -1   8  -2    4.15    0.71
   1  -8  -2    4.01    0.51
  -7   8   2    4.38    0.62
   1   7   2    4.27    0.44
  -8   7  -2    3.82    0.48
   1   7   2    4.13    0.72
   8  -1   2    3.56    0.37
   8  -1   2    3.34    0.50
   7  -8   2    3.71    0.43
   8  -1  -2    3.21    0.56
   8  -7   2    3.44    0.43
  -1   8   2    3.52    0.73
   7   1   2    4.01    0.40
   1   7  -2    4.03    0.64
   1   7  -2    4.87    0.25
   8  -1  -2    4.00    0.42
  -7   8  -2    4.57    0.58
   7  -8  -2    4.26    0.53
  -8   7   2    3.91    0.56
   1  -8   2    3.27    0.28
   7   1   2    3.00    0.48
   8  -8   2   13.72    0.83
  -8   8  -2   12.49    0.90
   8  -8  -2   12.40    0.87
   0   8  -2   11.93    1.09
   8   0   2   13.41    0.94
   8   0  -2   13.25    1.05
  -8   8   2   14.26    1.02
   0   8   2   12.83    1.31
   8   0  -2   13.43    0.76
   8   0   2   13.86    0.75
   0  -8  -2   14.57    0.91
  -4   9  -2    3.15    0.60
   9  -5  -2    2.91    0.43
   5   4  -2    2.60    0.20
  -5   9   2    2.58    0.55
   4  -9  -2    2.46    0.42
   9  -4   2    2.85    0.47
   9  -5  -2    2.97    0.55
   5  -9   2    2.48    0.35
   9  -4   2    2.74    0.34
   4   5   2    2.94    0.36
   4   5   2    3.62    0.59
   5   4  -2    2.82    0.52
   9  -5   2    2.58    0.44
   4  -9   2    2.87    0.34
   9  -4  -2    3.13    0.43
   4   5  -2    2.19    0.17
   5  -9  -2    2.64    0.44
   9  -5   2    2.68    0.35
   9  -4  -2    2.33    0.49
  -5   9  -2    3.43    0.62
  -4   9   2    2.24    0.55
   4   5  -2    3.00    0.54
   5   4   2    2.52    0.47
   5   4   2    2.83    0.35
   9  -3   2   38.50    1.92
   6  -9   2   36.79    1.67
   6   3  -2   39.22    1.52
  -3   9  -2   36.62    2.22
   6   3  -2   37.44    2.04
   3   6   2   39.25    2.13
   3   6   2   41.65    1.72
  -6   9   2   37.44    2.12
   9  -6  -2   37.56    2.05
   3  -9  -2   37.11    1.83
  -9   6  -2   38.23    1.82
   9  -6  -2   37.95    1.79
   9  -3   2   40.13    1.64
  -3   9   2   37.15    2.29
   3   6  -2   38.19    2.06
   6   3   2   39.03    1.66
   9  -3  -2   36.15    2.04
   6   3   2   38.34    1.98
   3  -9   2   38.03    1.62
  -6   9  -2   37.12    2.10
   6  -9  -2   37.98    1.84
   3   6  -2   40.20    1.43
   9  -3  -2   40.62    1.77
   9  -6   2   38.71    1.69
  -7   9   2   18.93    1.29
   7   2  -2   16.96    0.84
   2   7   2   16.72    1.33
   9  -7  -2   16.81    1.06
   7  -9   2   19.21    1.00
  -9   7  -2   17.73    1.06
   2   7   2   19.91    1.01
   9  -2   2   19.54    0.94
   9  -2   2   19.65    1.18
  -2   9  -2   20.70    1.49
   7   2  -2   17.52    1.24
   2  -9  -2   17.10    1.07
  -9   7   2   18.61    1.20
  -7   9  -2   17.14    1.21
   7  -9  -2   17.05    1.07
   9  -7   2   18.46    1.01
   9  -2  -2   18.20    1.00
   2   7  -2   16.71    1.25
   2  -9   2   18.61    0.90
   7   2   2   17.17    1.15
  -2   9   2   19.27    1.53
   2   7  -2   18.21    0.73
   7   2   2   18.31    0.93
   9  -2  -2   18.21    1.27
  -1   9  -2    3.19    0.67
   1   8   2    1.99    0.33
   1   8   2    3.50    0.72
   8  -9   2    3.22    0.43
   1  -9  -2    3.29    0.49
  -8   9   2    2.77    0.51
   9  -8  -2    2.52    0.45
   8   1  -2    3.64    0.62
   8   1  -2    2.81    0.35
   9  -1   2    2.88    0.36
  -9   8  -2    2.99    0.45
   9  -1   2    3.31    0.53
   9  -1  -2    2.67    0.56
  -8   9  -2    2.75    0.50
   9  -8   2    2.92    0.44
   1   8  -2    3.20    0.61
   8   1   2    3.03    0.52
   8  -9  -2    2.97    0.48
  -9   8   2    2.36    0.48
   1   8  -2    2.86    0.21
   9  -1  -2    3.39    0.41
   8   1   2    2.75    0.35
   1  -9   2    3.56    0.29
  -1   9   2    3.42    0.74
   0   9   2   26.84    1.92
   9   0   2   27.43    1.27
   0   9  -2   29.59    1.87
   9  -9   2   27.73    1.40
   0   9  -2   29.65    1.17
   9   0   2   26.52    1.57
   9  -9  -2   27.56    1.49
  -9   9   2   27.14    1.66
   9   0  -2   26.43    1.31
  -9   9  -2   26.52    1.56
   9   0  -2   29.00    1.76
  10  -5  -2   11.97    1.03
  10  -5   2   13.51    0.78
  -5  10   2   15.07    1.24
  -5  10  -2   11.45    1.23
   5   5   2   14.78    0.79
   5   5  -2   12.97    1.05
   5 -10   2   13.29    0.77
   5   5  -2   11.30    0.56
  10  -5   2   15.38    1.00
  10  -5  -2   12.58    0.85
   5   5   2   12.66    1.01
   5 -10  -2   10.49    0.85
  10  -4   2    6.93    0.51
  -6  10   2    7.30    0.95
 -10   6  -2    6.78    0.62
  10  -6  -2    6.64    0.85
  -4  10  -2    6.95    1.02
   6   4  -2    6.48    0.38
   6   4  -2    6.77    0.84
   6 -10   2    7.08    0.54
   4   6   2    7.11    0.87
  10  -4   2    7.41    0.75
   4 -10  -2    7.11    0.73
   4   6   2    7.00    0.52
  10  -6  -2    7.04    0.68
   6 -10  -2    7.17    0.72
  10  -4  -2    7.78    0.90
   4   6  -2    6.72    0.85
  -6  10  -2    6.93    0.93
   4 -10   2    6.86    0.51
   4   6  -2    6.91    0.35
  10  -6   2    7.79    0.57
  10  -4  -2    6.36    0.64
   6   4   2    8.67    0.77
   6   4   2    7.08    0.51
  -4  10   2    7.36    1.06
  10  -3   2    4.91    0.41
  -3  10  -2    4.43    0.82
  10  -3   2    4.76    0.63
   7 -10   2    4.86    0.51
   7   3  -2    5.23    0.35
   3 -10  -2    5.07    0.62
   3   7   2    5.51    0.82
 -10   7  -2    4.37    0.54
   7   3  -2    5.04    0.74
   3   7   2    4.28    0.46
  10  -7  -2    5.19    0.61
  -7  10   2    3.95    0.69
   7   3   2    4.25    0.43
  -3  10   2    4.44    0.86
   3 -10   2    4.78    0.40
 -10   7   2    3.74    0.61
  10  -7   2    4.21    0.52
  -7  10  -2    4.26    0.69
   3   7  -2    4.74    0.26
   7   3   2    5.30    0.69
   7 -10  -2    4.66    0.62
   3   7  -2    4.36    0.71
  10  -3  -2    5.30    0.76
  10  -3  -2    4.86    0.54
  10  -2   2    3.42    0.39
   2 -10  -2    3.58    0.53
   8   2  -2    3.81    0.36
  -8  10   2    2.95    0.57
 -10   8  -2    3.91    0.53
  -2  10  -2    2.81    0.69
  10  -8  -2    2.96    0.50
   2   8   2    2.82    0.40
   2   8   2    2.74    0.66
   8 -10   2    4.37    0.50
  10  -2   2    3.72    0.57
   8   2  -2    3.87    0.68
 -10   8   2    3.09    0.54
   8 -10  -2    2.76    0.49
  -2  10   2    2.68    0.71
   8   2   2    3.50    0.58
   8   2   2    3.59    0.40
   2 -10   2    3.58    0.38
  10  -2  -2    3.60    0.46
  -8  10  -2    3.28    0.61
  10  -2  -2    2.83    0.59
  10  -8   2    3.28    0.47
   2   8  -2    3.15    0.64
   2   8  -2    3.62    0.22
   1 -10  -2    2.80    0.47
  -9  10   2    2.62    0.54
  -1  10  -2    2.79    0.66
  10  -9  -2    2.70    0.49
   9 -10   2    2.96    0.45
   1   9   2    2.72    0.68
   9   1  -2    2.62    0.36
 -10   9  -2    3.08    0.50
  10  -1   2    2.86    0.37
   9   1  -2    2.94    0.61
  10  -1   2    2.03    0.47
   1   9   2    2.56    0.38
 -10   9   2    2.24    0.49
   1   9  -2    3.36    0.68
  10  -1  -2    2.88    0.42
  -1  10   2    3.20    0.77
   9   1   2    2.74    0.36
   1   9  -2    3.12    0.21
  -9  10  -2    2.20    0.47
  10  -1  -2    2.73    0.59
   9 -10  -2    2.75    0.50
   1 -10   2    3.13    0.33
  10  -9   2    2.58    0.42
   9   1   2    2.85    0.55
 -10  10  -2    5.32    0.71
  10 -10  -2    5.23    0.69
  10   0  -2    5.65    0.84
   0  10  -2    5.26    0.35
  10   0   2    5.06    0.44
  10 -10   2    5.13    0.61
  10   0   2    6.26    0.79
  10   0  -2    4.00    0.49
 -10  10   2    5.45    0.78
   0  10   2    5.64    0.56
   0  10   2    5.07    0.96
   0  10  -2    5.07    0.87
  11  -6  -2    8.49    0.70
  11  -5   2    8.38    0.83
   5   6   2    7.86    0.57
   6 -11   2    7.82    0.60
  11  -6  -2    8.43    0.99
   6   5  -2    8.00    0.43
  11  -5   2    8.13    0.61
   6   5  -2    8.95    0.98
  -5  11  -2    8.77    1.17
  -6  11   2    8.17    1.07
   5 -11  -2    8.98    0.75
   5   6   2    8.13    0.94
  11  -5  -2    8.35    0.97
  11  -6   2    8.44    0.84
   5 -11   2    7.78    0.58
   6   5   2    8.79    0.94
   5   6  -2    6.77    0.90
  -6  11  -2    8.98    1.13
  11  -5  -2    7.76    0.67
   6 -11  -2    7.79    0.79
  -5  11   2    6.94    1.06
  11  -6   2    6.93    0.59
   6   5   2    8.12    0.57
   5   6  -2    8.39    0.41
   7   4  -2    1.12    0.18
   7   4  -2    1.06    0.39
  11  -4   2    1.16    0.26
  11  -4   2    1.40    0.36
 -11   7  -2    1.81    0.37
  -7  11   2    0.75    0.48
   7 -11   2    1.32    0.29
  11  -7  -2    1.22    0.32
   4 -11  -2    1.31    0.35
   4   7   2    1.26    0.44
   4   7   2    1.31    0.25
  -4  11  -2    0.87    0.46
   4   7  -2    1.33    0.43
   7   4   2    1.20    0.25
  11  -4  -2    1.01    0.29
  11  -4  -2    1.55    0.47
   7   4   2    1.45    0.42
  -7  11  -2    1.49    0.49
  11  -7   2    0.92    0.30
   4 -11   2    1.63    0.28
   4   7  -2    1.14    0.13
  -4  11   2    1.54    0.55
   7 -11  -2    1.18    0.35
  11  -3   2    7.30    0.54
   8   3  -2    6.91    0.47
  11  -8  -2    6.56    0.74
   3 -11  -2    7.57    0.76
  11  -3   2    8.62    0.87
  -8  11   2    7.84    1.01
   3   8   2    7.87    0.58
 -11   8  -2    7.49    0.67
  -3  11  -2    8.17    1.15
   8   3  -2    7.44    0.93
   3   8   2    7.44    1.00
   8 -11   2    6.56    0.65
  -3  11   2    6.46    1.11
   3   8  -2    7.98    0.98
   3   8  -2    7.50    0.37
  11  -3  -2    7.97    0.97
 -11   8   2    7.00    0.82
  11  -3  -2    8.15    0.64
   8 -11  -2    6.76    0.77
   8   3   2    7.66    0.87
   8   3   2    7.22    0.54
   3 -11   2    7.91    0.56
  -8  11  -2    7.72    0.97
  11  -8   2    7.55    0.65
   9   2  -2    2.99    0.38
 -11   9  -2    3.02    0.50
  -2  11  -2    2.86    0.72
   9 -11   2    3.03    0.47
   9   2  -2    2.68    0.60
   2 -11  -2    3.45    0.54
  11  -9  -2    2.93    0.53
  11  -2   2    2.92    0.39
  -9  11   2    3.03    0.62
   2   9   2    3.10    0.74
   2   9   2    3.81    0.46
  11  -2   2    2.62    0.54
  11  -2  -2    2.91    0.45
 -11   9   2    2.34    0.50
  11  -9   2    2.70    0.46
   2 -11   2    3.39    0.39
   9   2   2    3.59    0.41
  -9  11  -2    3.24    0.61
  -2  11   2    2.68    0.75
   9 -11  -2    3.18    0.56
   9   2   2    2.36    0.52
   2   9  -2    3.37    0.67
  11  -2  -2    3.04    0.63
 -10  11   2    4.34    0.72
   1 -11  -2    4.71    0.63
 -11  10  -2    4.81    0.66
  11 -10  -2    3.86    0.62
  11  -1   2    4.84    0.73
  10   1  -2    4.13    0.77
  10 -11   2    5.04    0.61
  11  -1   2    3.96    0.44
   1  10   2    5.06    0.53
  10   1  -2    4.13    0.47
   1  10   2    4.12    0.90
  -1  11  -2    4.87    0.90
  -1  11   2    5.36    1.01
   1  10  -2    4.84    0.84
  11 -10   2    4.04    0.58
  11  -1  -2    3.13    0.66
 -10  11  -2    3.80    0.65
 -11  10   2    3.70    0.64
  10 -11  -2    3.30    0.57
  11  -1  -2    4.05    0.51
  10   1   2    3.92    0.44
  10   1   2    4.29    0.69
 -11  11   2    6.19    0.86
  11   0  -2    5.47    0.57
   0  11   2    5.38    1.06
   0  11   2    5.69    0.59
  11 -11  -2    5.13    0.71
  11 -11   2    6.86    0.73
 -11  11  -2    4.82    0.73
  11   0   2    5.47    0.81
  11   0  -2    5.14    0.83
  11   0   2    5.43    0.47
   0  11  -2    4.82    0.92
   6   6   2    3.04    0.39
  -6  12  -2    1.78    0.58
  12  -6  -2    2.58    0.60
  12  -6  -2    2.20    0.45
   6   6  -2    2.18    0.19
   6   6  -2    2.18    0.53
   6 -12  -2    2.22    0.45
  -6  12   2    2.43    0.65
  12  -6   2    3.36    0.58
   6   6   2    2.68    0.57
   6 -12   2    2.80    0.40
  12  -6   2    2.19    0.38
  12  -5   2    7.47    0.83
   7 -12   2    6.09    0.61
   5   7   2    6.75    0.51
  12  -5   2    6.39    0.61
 -12   7  -2    4.18    0.60
   5 -12  -2    5.94    0.73
  12  -7  -2    4.84    0.64
   7   5  -2    4.99    0.34
   7   5  -2    5.92    0.86
  -7  12   2    5.65    0.92
  12  -7  -2    5.10    0.83
  -5  12  -2    4.47    0.92
   5   7   2    6.06    0.85
   5 -12   2    5.35    0.56
  12  -5  -2    6.48    0.90
  -7  12  -2    4.95    0.89
   7   5   2    6.37    0.84
   5   7  -2    3.87    0.70
  12  -5  -2    5.76    0.67
  -5  12   2    4.94    0.96
   7 -12  -2    4.43    0.66
   7   5   2    6.05    0.48
  12  -7   2    4.64    0.60
   5   7  -2    4.69    0.30
  12  -4   2    0.61    0.32
 -12   8  -2    0.53    0.26
   8   4  -2    1.27    0.43
  12  -8  -2    0.47    0.26
  12  -4   2    0.76    0.25
   8   4  -2    0.94    0.19
   4 -12  -2    0.36    0.24
   4   8   2    0.36    0.34
   4   8   2    0.93    0.24
  -8  12   2   -0.25    0.40
   8 -12   2    0.86    0.29
  -4  12  -2    2.06    0.61
   8   4   2    0.84    0.23
  -4  12   2    0.75    0.49
  12  -4  -2    0.66    0.22
   4   8  -2    0.33    0.35
  12  -8   2    0.45    0.26
 -12   8   2    0.31    0.28
   8 -12  -2    0.78    0.29
  -8  12  -2    0.58    0.37
   4 -12   2    0.67    0.21
   8   4   2    0.74    0.33
  12  -4  -2    0.57    0.36
   3   9   2    8.76    1.14
  12  -3   2    8.64    0.62
   9   3  -2    8.35    1.06
  -3  12  -2    9.85    1.33
  12  -9  -2    7.83    0.85
   3   9   2    8.87    0.65
   9   3  -2    8.24    0.54
   3 -12  -2    8.67    0.85
  -9  12   2    6.73    0.99
 -12   9  -2    8.88    0.77
  12  -3   2    8.18    0.91
   9 -12   2    8.34    0.70
   9   3   2    8.39    0.96
   9 -12  -2    9.45    0.92
  12  -3  -2    7.86    1.01
  -9  12  -2    7.76    1.02
 -12   9   2    8.52    0.93
  12  -3  -2    7.41    0.66
  -3  12   2    7.43    1.24
   3   9  -2    8.55    1.06
  12  -9   2    8.18    0.72
   9   3   2    7.42    0.56
   2  10   2    0.10    0.15
 -10  12   2    0.54    0.31
  10 -12   2    0.36    0.23
  12  -2   2    0.03    0.28
  12  -2   2    0.57    0.20
  -2  12  -2    0.52    0.38
   2 -12  -2    0.30    0.23
  10   2  -2    0.28    0.31
 -12  10  -2    0.45    0.26
  12 -10  -2   -0.02    0.22
  10   2  -2    0.33    0.19
   2  10   2    0.38    0.43
   2  10  -2    0.13    0.32
  10 -12  -2    0.34    0.28
 -10  12  -2    0.23    0.25
 -12  10   2    0.57    0.30
  12 -10   2    0.45    0.23
  10   2   2    0.09    0.14
  12  -2  -2    0.13    0.14
  10   2   2    0.61    0.34
  12  -2  -2    0.06    0.29
  -2  12   2    0.66    0.52
  12 -11  -2    3.04    0.57
  11   1  -2    2.24    0.39
   1  11   2    2.54    0.40
  12  -1   2    1.96    0.34
   1  11   2    3.43    0.83
  11 -12   2    2.64    0.50
  -1  12  -2    3.08    0.76
  12  -1   2    2.07    0.52
  11   1  -2    2.94    0.68
 -12  11  -2    3.08    0.56
 -11  12   2    2.57    0.60
  11   1   2    2.82    0.61
  11   1   2    2.74    0.39
  11 -12  -2    2.29    0.51
  12  -1  -2    2.59    0.43
 -12  11   2    2.29    0.55
   1  11  -2    1.54    0.53
  12  -1  -2    1.68    0.55
  12 -11   2    3.24    0.55
  -1  12   2    2.27    0.69
 -11  12  -2    1.70    0.48
  12   0   2    9.92    1.14
   0  12   2   12.62    1.58
  12 -12   2   11.49    0.91
  12 -12  -2   12.81    1.02
  12   0  -2   14.40    1.25
  12   0  -2   11.56    0.81
 -12  12  -2   10.72    1.12
  12   0   2   10.82    0.72
 -12  12   2   12.39    1.26
   0  12   2   10.38    0.78
   0  12  -2   12.02    1.42
  13  -6   2    7.76    0.93
  -7  13   2    9.12    1.31
   6   7   2    8.65    0.64
   6 -13  -2   10.01    0.87
  13  -7  -2    9.33    0.82
   7 -13   2   10.08    0.75
   6   7   2    9.12    1.08
  13  -7  -2   11.00    1.18
  13  -6   2   10.43    0.77
  -6  13  -2   11.20    1.42
   7   6  -2   10.10    1.14
   6   7  -2    7.93    1.05
   7   6   2    9.11    0.64
  -6  13   2    7.86    1.26
  13  -6  -2   10.29    0.83
  -7  13  -2   10.89    1.37
  13  -6  -2   11.38    1.21
   6 -13   2    9.10    0.70
   7   6   2    9.53    1.07
   7 -13  -2   10.82    0.99
  13  -8  -2    9.07    0.90
   5   8   2    9.12    0.65
 -13   8  -2    9.48    0.82
  13  -5   2   10.18    1.02
  -5  13  -2    9.56    1.37
   5 -13  -2    9.65    0.94
  13  -5   2    9.20    0.72
   8 -13   2    9.09    0.74
   5   8   2    8.27    1.06
  -8  13   2    8.65    1.21
   8   5  -2    9.54    0.55
   8   5  -2    9.78    1.14
  -5  13   2   11.23    1.49
   5   8  -2   11.00    1.18
   5 -13   2    8.70    0.68
  13  -5  -2    9.09    0.77
   8   5   2    8.26    1.01
  13  -5  -2    9.68    1.14
  -8  13  -2    9.41    1.26
   8 -13  -2    8.84    0.92
  13  -8   2    8.49    0.84
   8   5   2    9.74    0.65
  -4  13  -2    3.95    0.89
   4 -13  -2    3.17    0.57
  -9  13   2    3.05    0.78
  13  -4   2    3.26    0.48
  13  -4   2    3.53    0.66
   9 -13   2    3.74    0.54
   9   4  -2    2.21    0.61
 -13   9  -2    2.83    0.52
   9   4  -2    4.00    0.38
  13  -9  -2    4.98    0.71
   4   9   2    4.59    0.50
   4   9   2    3.96    0.78
 -13   9   2    3.36    0.65
   9 -13  -2    3.72    0.62
   9   4   2    2.90    0.40
  -4  13   2    4.20    0.97
  13  -9   2    4.04    0.60
  -9  13  -2    3.30    0.73
   9   4   2    3.83    0.71
  13  -4  -2    3.74    0.75
  13  -4  -2    3.23    0.52
   4   9  -2    3.26    0.68
  -3  13  -2    3.59    0.87
   3  10   2    5.76    0.96
   3  10   2    5.86    0.58
  13  -3   2    4.85    0.55
  13  -3   2    4.76    0.76
   3 -13  -2    5.49    0.71
 -13  10  -2    5.39    0.73
 -10  13   2    5.28    0.87
  13 -10  -2    6.13    0.79
  10   3  -2    6.49    0.94
  10 -13   2    5.24    0.66
  10   3   2    4.65    0.48
   3  10  -2    5.35    0.89
  10   3   2    4.70    0.78
 -10  13  -2    5.36    0.88
  13  -3  -2    3.94    0.78
 -13  10   2    4.79    0.76
  10 -13  -2    5.02    0.73
  13 -10   2    5.85    0.72
  13  -3  -2    4.36    0.59
  -3  13   2    4.04    0.94
  -2  13  -2    0.99    0.49
  13  -2   2    0.98    0.27
  13 -11  -2    0.77    0.34
 -11  13   2    1.09    0.41
   2  11   2    0.68    0.41
   2 -13  -2    0.46    0.27
 -13  11  -2    0.62    0.27
  11   2  -2    0.39    0.29
  11 -13   2    0.44    0.30
   2  11   2    1.09    0.27
  11   2  -2    0.76    0.25
  13  -2   2    1.04    0.44
  13 -11   2    0.51    0.26
  11   2   2    0.77    0.23
 -13  11   2    0.88    0.37
  11 -13  -2    0.94    0.37
  11   2   2    1.23    0.44
  -2  13   2    1.48    0.58
  13  -2  -2    0.60    0.23
   2  11  -2    0.69    0.44
 -11  13  -2    0.56    0.28
  13  -2  -2    1.02    0.41
  12   1  -2    1.00    0.27
 -13  12  -2    0.55    0.34
  13  -1   2    0.89    0.25
   1  12   2    0.72    0.47
 -12  13   2    0.89    0.42
  12   1  -2    0.36    0.32
  12 -13   2    1.19    0.37
  13  -1   2    0.65    0.41
  13 -12  -2    0.58    0.34
   1  12   2    0.75    0.26
  -1  13  -2    1.02    0.49
  12   1   2    0.89    0.23
 -12  13  -2    1.08    0.39
 -13  12   2    0.86    0.39
  12 -13  -2    0.52    0.32
  13  -1  -2    0.71    0.41
  13 -12   2    0.75    0.33
  -1  13   2    0.39    0.44
  13  -1  -2    0.72    0.27
  -1  13   2    0.66    0.25
   1  12  -2    0.48    0.38
  12   1   2    0.76    0.43
  13   0   2    5.43    0.87
 -13  13   2    6.72    1.00
   0  13  -2    6.51    1.10
  13   0  -2    7.42    1.09
 -13  13  -2    5.98    0.89
  13   0  -2    5.98    0.66
  13   0   2    6.49    0.54
   0  13   2    6.99    1.23
  13 -13  -2    6.33    0.88
  13 -13   2    7.07    0.83
  -7  14   2   24.05    2.04
   7 -14   2   25.95    1.43
   7   7   2   28.21    1.33
  -7  14  -2   26.67    2.09
  14  -7  -2   27.19    1.86
   7   7  -2   26.49    1.83
   7 -14  -2   23.47    1.54
  14  -7   2   26.59    1.49
  14  -7  -2   26.15    1.55
  14  -7   2   26.32    1.70
  -8  14   2    4.91    0.97
   6   8   2    5.03    0.51
 -14   8  -2    5.08    0.70
  -6  14  -2    4.45    0.99
   6 -14  -2    5.39    0.74
   8 -14   2    5.39    0.64
  14  -6   2    4.74    0.76
  14  -6   2    3.98    0.60
   8   6  -2    5.63    0.90
   6   8   2    4.88    0.84
  14  -8  -2    4.62    0.70
  14  -8  -2    4.72    0.88
  -6  14   2    5.12    1.02
  -8  14  -2    3.91    0.90
   6 -14   2    4.61    0.58
   8 -14  -2    5.26    0.76
   8   6   2    5.23    0.51
  14  -8   2    5.51    0.72
  14  -6  -2    4.48    0.84
   6   8  -2    4.52    0.82
  14  -6  -2    5.39    0.71
   8   6   2    4.30    0.77
  14  -5   2    6.65    0.90
  -9  14   2    7.34    1.16
  -5  14  -2    6.60    1.18
   5   9   2    6.93    0.56
   5 -14  -2    8.79    0.92
   9 -14   2    7.42    0.77
  14  -5   2    7.70    0.67
   9   5  -2    6.78    1.00
   5   9   2    6.73    1.01
  14  -9  -2    7.18    0.86
 -14   9  -2    7.70    0.84
  14  -5  -2    9.32    0.88
  -5  14   2    6.47    1.20
 -14   9   2    6.21    0.89
  -9  14  -2    6.47    1.07
  14  -5  -2    8.61    1.12
   5   9  -2    6.40    1.00
  14  -9   2    7.79    0.84
   9   5   2    7.36    0.99
   9 -14  -2    7.68    0.90
   9   5   2    6.71    0.55
   4 -14  -2    2.68    0.55
 -10  14   2    2.80    0.70
 -14  10  -2    2.78    0.51
  -4  14  -2    1.92    0.72
   4  10   2    2.37    0.39
  10   4  -2    2.93    0.38
  10   4  -2    3.71    0.75
  14  -4   2    2.16    0.54
  14 -10  -2    2.19    0.52
   4  10   2    2.59    0.67
  14  -4   2    2.27    0.43
  10 -14   2    2.02    0.45
 -14  10   2    2.62    0.60
  10   4   2    2.25    0.35
 -10  14  -2    2.22    0.61
  14  -4  -2    2.61    0.51
  10   4   2    2.76    0.64
  10 -14  -2    1.72    0.48
  -4  14   2    2.95    0.86
  14  -4  -2    2.84    0.65
   4  10  -2    3.22    0.69
  14 -10   2    2.87    0.54
  14 -11  -2    5.83    0.83
 -11  14   2    6.27    1.02
  11   3  -2    5.32    0.93
  11 -14   2    5.59    0.73
  14  -3   2    5.42    0.86
   3  11   2    6.01    0.99
  -3  14  -2    5.91    1.10
 -14  11  -2    4.99    0.75
  14  -3   2    6.62    0.65
   3 -14  -2    5.61    0.75
  14  -3  -2    5.73    0.92
   3  11  -2    6.30    0.99
  14 -11   2    6.14    0.79
  11   3   2    5.08    0.87
  11   3   2    5.64    0.49
 -14  11   2    5.80    0.87
  -3  14   2    5.73    1.14
  14  -3  -2    6.01    0.72
  11 -14  -2    5.67    0.81
 -11  14  -2    6.32    1.01
  14 -12  -2    4.50    0.75
  14  -2   2    5.20    0.58
   2  12   2    5.19    1.01
  12   2  -2    5.93    0.98
 -14  12  -2    4.49    0.73
 -12  14   2    5.49    0.95
  -2  14  -2    4.96    1.01
  12 -14   2    5.10    0.72
  14  -2   2    5.74    0.90
  12   2   2    5.20    0.52
  14  -2  -2    4.45    0.85
 -12  14  -2    5.17    0.89
  -2  14   2    5.39    1.11
 -14  12   2    5.27    0.87
  14  -2  -2    4.68    0.62
  12   2   2    5.75    0.90
  14 -12   2    4.70    0.71
  12 -14  -2    4.73    0.76
   2  12  -2    3.56    0.82
  14  -1   2    1.22    0.29
  14  -1   2    1.55    0.54
  13   1  -2    0.63    0.24
 -13  14   2    0.36    0.34
  13   1  -2    0.84    0.44
   1  13   2    2.20    0.70
  14 -13  -2    0.45    0.34
 -14  13  -2    1.48    0.46
  13 -14   2    1.13    0.40
  -1  14  -2    0.81    0.45
 -14  13   2    0.38    0.37
  14 -13   2    1.09    0.38
  13 -14  -2    1.22    0.43
  -1  14   2    1.99    0.69
 -13  14  -2    1.12    0.42
  13   1   2    1.39    0.47
   1  13  -2    0.77    0.48
  13   1   2    1.21    0.29
  14  -1  -2    0.94    0.29
  14  -1  -2    0.68    0.41
 -14  14  -2    5.98    0.96
  14 -14  -2    5.82    0.88
  14   0  -2    5.28    0.97
  14   0   2    6.17    0.61
  14   0   2    7.09    1.05
 -14  14   2    6.47    1.05
  14   0  -2    5.36    0.66
   0  14   2    7.25    1.30
  14 -14   2    5.68    0.80
   0  14  -2    4.81    0.99
   7   8   2   -0.24    0.13
   7   8   2    0.34    0.34
  15  -7   2   -0.09    0.29
  -8  15   2   -0.57    0.31
 -15   8  -2    0.01    0.24
  15  -8  -2   -0.19    0.20
   8 -15   2    0.01    0.18
   7 -15  -2    0.25    0.27
  -7  15  -2    0.09    0.32
  15  -8  -2    0.47    0.43
   8   7  -2    0.24    0.35
  15  -7   2   -0.20    0.18
  15  -8   2    0.20    0.27
   8 -15  -2   -0.26    0.21
  -8  15  -2    0.45    0.41
   7   8  -2    0.60    0.38
  15  -7  -2    0.28    0.24
   8   7   2    0.88    0.37
   8   7   2    0.00    0.16
  15  -7  -2   -0.67    0.29
  -7  15   2   -0.15    0.31
   9 -15   2    5.91    0.72
   6   9   2    5.40    0.91
  15  -6   2    5.90    0.87
   6 -15  -2    5.72    0.81
  -9  15   2    6.70    1.16
  15  -9  -2    6.99    0.87
  -6  15  -2    4.59    1.01
 -15   9  -2    5.82    0.78
  15  -6   2    5.68    0.74
   9   6  -2    6.66    1.01
  15  -9   2    6.79    0.82
   9   6   2    6.55    0.96
  -9  15  -2    6.31    1.09
  -6  15   2    4.76    1.07
  15  -6  -2    8.17    1.12
 -15   9   2    6.02    0.90
   9 -15  -2    5.47    0.82
   9   6   2    5.73    0.51
   6   9  -2    7.03    1.04
  15  -6  -2    6.08    0.79
  10   5  -2    0.23    0.33
   5 -15  -2    0.07    0.26
  15 -10  -2   -0.05    0.22
 -10  15   2    0.12    0.33
   5  10   2    0.43    0.38
  15  -5   2    0.25    0.33
  10 -15   2    0.04    0.22
  -5  15  -2    0.50    0.41
  15  -5   2    0.23    0.21
 -15  10  -2    0.28    0.25
  15 -10   2    0.21    0.24
  -5  15   2    0.28    0.41
  15  -5  -2    0.40    0.26
   5  10  -2   -0.17    0.29
  15  -5  -2    0.35    0.36
  10 -15  -2    0.30    0.33
  10   5   2   -0.18    0.29
  10   5   2    0.26    0.18
 -10  15  -2    0.18    0.36
 -15  10   2    0.15    0.29
   4  11   2    1.73    0.55
  15  -4   2    1.29    0.45
  15  -4   2    0.70    0.29
  11   4  -2    1.23    0.49
  11 -15   2    0.75    0.36
  -4  15  -2    0.54    0.47
  15 -11  -2    0.98    0.41
 -15  11  -2    1.07    0.35
 -11  15   2   -0.02    0.35
   4  11  -2    0.73    0.42
  11   4   2    1.44    0.50
  15  -4  -2    0.61    0.32
  11 -15  -2    1.41    0.46
  15  -4  -2    0.81    0.42
  -4  15   2    1.17    0.62
  11   4   2    0.78    0.23
 -15  11   2    0.59    0.35
  15 -11   2    1.21    0.42
 -11  15  -2    0.23    0.35
  15  -3   2    0.49    0.26
  12   3  -2    0.64    0.25
 -15  12  -2    0.46    0.26
  12   3  -2    0.14    0.38
  -3  15  -2    0.79    0.49
   3  12   2    0.12    0.39
  15  -3   2    0.28    0.41
 -12  15   2    0.34    0.32
  12 -15   2    0.39    0.27
  15 -12  -2    0.61    0.34
  -3  15   2    0.94    0.51
  15  -3  -2    0.49    0.43
  12 -15  -2    0.73    0.34
  12   3   2    0.40    0.20
  12   3   2    0.33    0.34
 -12  15  -2    0.01    0.32
  15 -12   2   -0.01    0.25
  15  -3  -2    0.76    0.31
 -15  12   2    0.64    0.38
   3  12  -2    0.68    0.40
  13 -15   2    6.28    0.84
  15  -2   2    8.77    1.11
  13   2  -2    5.66    0.63
 -15  13  -2    5.40    0.87
  13   2  -2    8.53    1.23
  15 -13  -2    5.38    0.85
   2  13   2    8.07    1.29
 -13  15   2    5.80    1.04
  -2  15  -2    5.37    1.10
  15  -2   2    5.98    0.66
 -15  13   2    6.01    0.97
  15  -2  -2    6.00    0.73
  15 -13   2    7.40    0.91
  13 -15  -2    6.66    0.90
 -13  15  -2    6.26    1.02
  13   2   2    7.71    1.08
   2  13  -2    5.58    1.04
  15  -2  -2    6.11    1.03
  -2  15   2    6.93    1.32
  13   2   2    6.34    0.54
  15  -1   2    3.21    0.68
 -14  15   2    1.50    0.56
  15  -1   2    2.10    0.39
  14   1  -2    1.01    0.50
   1  14   2    2.49    0.78
  15 -14  -2    2.92    0.66
 -15  14  -2    2.07    0.53
  14   1  -2    2.14    0.43
  -1  15  -2    3.16    0.87
  14 -15   2    2.83    0.59
 -15  14   2    2.67    0.70
  -1  15   2    2.43    0.77
   1  14  -2    1.38    0.60
  15  -1  -2    1.95    0.41
  14   1   2    2.00    0.57
  14   1   2    2.21    0.38
  15  -1  -2    2.02    0.64
 -14  15  -2    2.36    0.79
  15 -14   2    2.26    0.56
  14 -15  -2    1.44    0.51
  15   0   2    1.34    0.32
 -15  15   2    0.71    0.47
  15   0   2    2.18    0.60
  15 -15   2    1.22    0.49
  15   0  -2    1.59    0.37
   0  15  -2    0.98    0.52
 -15  15  -2    0.60    0.39
  15 -15  -2    0.90    0.41
   0  15   2    1.43    0.63
  15   0  -2    0.53    0.45
  16  -8   2    2.31    0.52
  16  -8  -2    1.92    0.51
  -8  16   2    3.41    0.95
   8 -16  -2    3.22    0.63
   8   8   2    3.93    0.80
   8   8  -2    3.32    0.75
  16  -8  -2    3.10    0.74
  -8  16  -2    2.98    0.85
  -9  16   2    2.88    0.79
 -16   9  -2    1.63    0.46
   7   9   2    2.05    0.57
   7 -16  -2    1.33    0.40
   9   7  -2    1.63    0.53
   9 -16   2    1.60    0.41
  -7  16  -2    2.25    0.76
  16  -7   2    2.32    0.56
  16  -7   2    1.23    0.41
  16  -9  -2    1.14    0.41
   9 -16  -2    1.74    0.47
  16  -7  -2    1.17    0.41
  -9  16  -2    2.34    0.72
  -7  16   2    1.25    0.63
   7   9  -2    1.19    0.48
  16  -9   2    1.35    0.43
  16  -7  -2    0.87    0.47
   9   7   2    1.66    0.51
 -16   9   2    2.43    0.66
  -6  16  -2    4.51    0.99
  16  -6   2    2.85    0.65
  10   6  -2    3.32    0.77
 -10  16   2    4.09    0.94
 -16  10  -2    2.56    0.56
   6  10   2    2.64    0.67
  16  -6   2    2.42    0.55
   6 -16  -2    2.84    0.57
  16 -10  -2    2.85    0.60
  10 -16   2    2.52    0.51
  -6  16   2    3.78    0.99
  16 -10   2    3.49    0.61
  10 -16  -2    2.79    0.60
   6  10  -2    1.74    0.72
  10   6   2    3.12    0.42
 -16  10   2    3.51    0.72
 -10  16  -2    3.38    0.83
  10   6   2    3.33    0.72
  16  -6  -2    3.26    0.59
  16  -6  -2    3.58    0.78
  16 -11  -2    0.78    0.39
  16  -5   2    1.03    0.41
  11   5  -2    0.59    0.44
  -5  16  -2    0.75    0.49
  11 -16   2    0.97    0.36
 -11  16   2    0.57    0.38
   5  11   2    0.74    0.44
 -16  11  -2    0.71    0.32
  16  -5   2    0.86    0.39
  -5  16   2    0.22    0.48
  16 -11   2    0.83    0.33
  16  -5  -2    0.41    0.27
 -11  16  -2    0.52    0.43
  11 -16  -2    0.50    0.34
  11   5   2    0.74    0.22
  11   5   2    0.84    0.41
 -16  11   2    0.41    0.35
   5  11  -2    1.30    0.51
  16  -5  -2    0.40    0.37
  -4  16  -2    1.74    0.72
  16  -4   2    2.13    0.42
  16  -4   2    2.74    0.64
  12 -16   2    2.21    0.49
   4  12   2    2.23    0.66
 -16  12  -2    1.95    0.50
  12   4  -2    1.94    0.66
 -12  16   2    2.44    0.68
  16 -12  -2    2.39    0.61
  16  -4  -2    2.68    0.67
  16  -4  -2    2.67    0.54
  16 -12   2    2.34    0.55
  -4  16   2    4.36    1.06
  12   4   2    2.12    0.61
  12   4   2    2.11    0.37
 -16  12   2    2.34    0.62
 -12  16  -2    2.80    0.66
   4  12  -2    1.98    0.63
  12 -16  -2    2.64    0.60
  -3  16  -2    1.07    0.53
  13   3  -2    1.28    0.53
  16  -3   2    0.94    0.37
 -16  13  -2    1.01    0.36
  16 -13  -2    0.85    0.41
  13 -16   2    0.64    0.36
   3  13   2   -0.41    0.35
 -13  16   2    0.52    0.33
  16  -3   2    0.14    0.23
 -13  16  -2    0.44    0.36
  13   3   2    0.47    0.20
  13   3   2    0.67    0.41
  -3  16   2    0.42    0.50
  13 -16  -2    0.67    0.38
   3  13  -2    0.69    0.44
 -16  13   2    0.57    0.38
  16 -13   2    1.06    0.40
  16  -3  -2    1.35    0.51
  16  -3  -2    0.76    0.32
  14   2  -2    8.75    1.29
  16 -14  -2    7.87    1.06
   2  14   2    7.77    1.30
  -2  16  -2    7.52    1.32
  14 -16   2    6.87    0.89
 -14  16   2    5.50    1.05
  16  -2   2    8.15    0.79
  16  -2   2    6.51    0.98
 -16  14  -2    5.81    0.94
  16  -2  -2    7.48    1.15
 -16  14   2    6.96    1.08
  16  -2  -2    6.20    0.78
 -14  16  -2    8.32    1.20
   2  14  -2    6.08    1.12
  14   2   2    5.93    0.98
  -2  16   2    7.42    1.41
  14 -16  -2    7.58    1.02
  14   2   2    7.23    0.59
  16 -14   2    8.09    0.99
  -1  16  -2    0.96    0.48
  16  -1   2    0.04    0.37
  15   1  -2    0.18    0.20
  15 -16   2   -0.16    0.26
   1  15   2    0.21    0.43
  15   1  -2    0.52    0.41
  16  -1   2    0.19    0.23
 -16  15  -2    0.23    0.37
 -15  16   2   -0.13    0.32
  16 -15  -2    0.69    0.41
  16  -1  -2    0.04    0.22
  16 -15   2    0.13    0.34
  -1  16   2   -0.19    0.53
  15 -16  -2    0.61    0.39
  16  -1  -2   -0.30    0.40
  15   1   2    0.08    0.42
 -16  15   2    0.40    0.35
 -15  16  -2    0.17    0.35
   1  15  -2   -0.01    0.37
  15   1   2    0.19    0.18
  16   0  -2    2.70    0.73
   0  16   2    3.68    0.97
  16   0  -2    2.34    0.49
  16   0   2    2.68    0.47
  16   0   2    3.26    0.74
   0  16  -2    4.38    1.01
  16 -16  -2    2.86    0.67
 -16  16  -2    2.29    0.63
 -16  16   2    1.55    0.58
  16 -16   2    2.32    0.59
   8 -17  -2    0.75    0.34
   8   9   2    0.13    0.37
  17  -9  -2    0.91    0.38
  -9  17   2   -0.11    0.42
  17  -8   2    0.43    0.33
   9   8  -2    0.84    0.46
 -17   9  -2    1.14    0.42
  -8  17  -2    0.82    0.63
  17  -8   2    0.40    0.34
  17  -8  -2    0.84    0.36
  17  -9   2    0.39    0.29
   8   9  -2    1.16    0.52
  17  -8  -2    0.89    0.54
   9 -17  -2    1.46    0.40
  -8  17   2    0.97    0.57
  -9  17  -2    1.39    0.59
   9   8   2    0.32    0.38
  17  -7   2    0.65    0.40
  10   7  -2    0.42    0.41
 -10  17   2    0.51    0.47
  -7  17  -2    0.68    0.56
  17 -10  -2    0.33    0.35
 -17  10  -2    0.48    0.34
  17  -7   2    0.20    0.29
   7  10   2    0.93    0.45
  17  -7  -2    0.60    0.43
   7  10  -2   -0.17    0.35
 -10  17  -2    0.83    0.51
  10 -17  -2    0.76    0.33
  17 -10   2    0.43    0.30
 -17  10   2    1.06    0.47
  -7  17   2    0.45    0.48
  17  -7  -2    0.05    0.26
  10   7   2    0.07    0.34
 -11  17   2    1.45    0.57
  11   6  -2    2.80    0.71
  -6  17  -2    2.92    0.82
  11 -17   2    2.55    0.51
  17 -11  -2    2.10    0.57
   6  11   2    2.27    0.67
  17  -6   2    2.77    0.57
 -17  11  -2    2.49    0.56
  17  -6   2    2.18    0.54
  17  -6  -2    3.41    0.63
  17 -11   2    3.15    0.61
  -6  17   2    1.97    0.82
  11 -17  -2    2.57    0.60
   6  11  -2    2.87    0.86
 -17  11   2    1.46    0.50
  17  -6  -2    2.82    0.73
 -11  17  -2    3.09    0.82
  11   6   2    2.50    0.66
  -5  17  -2    2.91    0.86
  12   5  -2    2.17    0.63
  17 -12  -2    0.92    0.43
   5  12   2    0.83    0.44
 -17  12  -2    1.91    0.49
  17  -5   2    1.23    0.44
 -12  17   2    1.50    0.62
  12 -17   2    1.43    0.39
  17  -5   2    1.13    0.44
  12   5   2    1.97    0.35
  17  -5  -2    1.53    0.43
  12 -17  -2    1.01    0.39
   5  12  -2    1.46    0.53
 -12  17  -2    0.95    0.55
  -5  17   2    2.40    0.86
  12   5   2    1.52    0.54
 -17  12   2    1.50    0.52
  17  -5  -2    2.13    0.64
  17 -12   2    1.20    0.42
  13   4  -2    1.35    0.59
  17  -4   2    2.64    0.58
   4  13   2    1.76    0.62
  13 -17   2    1.40    0.46
  -4  17  -2    2.10    0.73
  17 -13  -2    1.67    0.56
  17  -4   2    2.03    0.51
 -13  17   2    2.15    0.68
 -17  13  -2    0.56    0.35
  17  -4  -2    2.52    0.67
  17 -13   2    1.56    0.51
  -4  17   2    2.29    0.87
  13   4   2    1.69    0.30
 -17  13   2    2.04    0.61
  13 -17  -2    2.11    0.55
   4  13  -2    1.70    0.64
  13   4   2    1.29    0.50
 -13  17  -2    1.98    0.60
  17  -4  -2    1.42    0.39
  17  -3   2    3.78    0.76
 -14  17   2    4.76    1.18
   3  14   2    4.28    0.99
  17  -3   2    3.80    0.60
  -3  17  -2    5.15    1.13
  14 -17   2    4.70    0.78
 -17  14  -2    4.92    0.87
  17 -14  -2    3.73    0.78
  14   3  -2    3.86    0.90
   3  14  -2    4.58    0.95
  -3  17   2    5.14    1.18
  17  -3  -2    3.61    0.83
 -14  17  -2    3.87    0.85
  14 -17  -2    4.45    0.80
  14   3   2    5.39    0.96
  17  -3  -2    2.21    0.52
  14   3   2    3.79    0.48
  17 -14   2    5.35    0.81
 -17  14   2    4.73    0.89
  17  -2   2    1.23    0.33
  17 -15  -2    1.18    0.49
  15   2  -2    1.04    0.55
  17  -2   2    1.36    0.49
  15 -17   2    0.72    0.38
  -2  17  -2    0.90    0.59
 -17  15  -2    0.48    0.42
 -15  17   2    1.46    0.59
   2  15   2    0.88    0.56
   2  15  -2    0.20    0.47
  15   2   2    0.79    0.27
  17  -2  -2    1.11    0.52
 -17  15   2    1.10    0.53
  15 -17  -2    1.82    0.56
  15   2   2    1.33    0.54
  17  -2  -2    0.63    0.29
 -15  17  -2    0.51    0.41
  -2  17   2    0.57    0.56
  17 -15   2    0.53    0.38
 -16  17   2    0.54    0.44
  17 -16  -2    0.32    0.34
  16   1  -2   -0.03    0.42
  17  -1   2    0.31    0.41
  17  -1   2    0.30    0.25
   1  16   2    0.56    0.53
  16 -17   2    0.19    0.34
  -1  17  -2    0.36    0.48
 -17  16  -2    0.18    0.35
  16   1   2    0.22    0.18
 -17  16   2    0.13    0.37
  17  -1  -2    0.51    0.27
  16 -17  -2    0.20    0.34
  16   1   2    1.19    0.47
 -16  17  -2   -0.26    0.35
  17  -1  -2    1.27    0.55
  17 -16   2    0.17    0.36
  -1  17   2    0.65    0.51
   1  16  -2    0.19    0.49
  17 -17  -2    1.00    0.46
  17   0   2    1.48    0.54
  17   0  -2    1.04    0.50
   0  17  -2    1.03    0.60
  17 -17   2    0.99    0.44
 -17  17  -2    1.45    0.78
  17   0   2    1.22    0.33
   0  17   2    3.15    0.92
 -17  17   2    1.42    0.52
  18  -9  -2    0.40    0.40
   9   9  -2    0.63    0.42
 -18   9  -2    0.99    0.44
   9 -18  -2   -0.31    0.26
  18  -9   2    0.58    0.32
  -9  18   2    0.88    0.56
  18  -9  -2   -0.22    0.21
   9   9   2    0.74    0.43
  -9  18  -2    0.27    0.46
   8  10   2    0.59    0.44
  10   8  -2    1.21    0.53
 -10  18   2   -0.29    0.43
 -18  10  -2    0.60    0.34
  -8  18  -2    0.55    0.50
  18 -10  -2    0.82    0.36
  18  -8   2    1.18    0.45
  18  -8   2    1.15    0.43
  18  -8  -2    1.29    0.55
  10   8   2    0.36    0.42
 -10  18  -2    0.52    0.59
  18  -8  -2    0.54    0.29
   8  10  -2   -0.08    0.37
 -18  10   2    0.63    0.46
  -8  18   2    0.22    0.52
  18 -10   2    0.45    0.32
  10 -18  -2    0.57    0.36
 -11  18   2    0.90    0.50
  18 -11  -2    0.45    0.39
  11   7  -2   -0.32    0.36
 -18  11  -2    0.40    0.33
  18  -7   2    0.39    0.30
   7  11   2    1.87    0.57
  -7  18  -2    0.75    0.49
  18  -7   2    0.90    0.42
 -11  18  -2    0.24    0.44
  11   7   2    0.32    0.43
  18  -7  -2    0.23    0.29
  18  -7  -2    1.75    0.55
  18 -11   2    0.21    0.30
 -18  11   2    0.24    0.39
  11 -18  -2    0.91    0.45
   7  11  -2   -0.24    0.36
  -7  18   2    0.48    0.59
  12   6  -2    0.23    0.42
  18  -6   2    0.40    0.31
  12 -18   2    0.51    0.29
  18  -6   2    0.05    0.36
  18 -12  -2    0.83    0.38
 -18  12  -2    0.67    0.39
   6  12   2    0.15    0.39
  -6  18  -2    0.03    0.48
 -12  18   2    0.95    0.54
  12 -18  -2    0.50    0.37
 -18  12   2    0.37    0.38
  18  -6  -2    1.38    0.54
  18  -6  -2    0.65    0.35
  12   6   2    0.24    0.41
  -6  18   2    0.30    0.65
   6  12  -2    0.31    0.58
 -12  18  -2    0.55    0.52
  18 -12   2    0.44    0.31
  18  -5   2    3.44    0.64
  13   5  -2    4.35    0.97
   5  13   2    4.71    0.94
 -18  13  -2    4.48    0.78
  18 -13  -2    5.31    0.89
  13 -18   2    4.07    0.69
  18  -5   2    6.22    0.94
  -5  18  -2    3.35    0.92
 -13  18   2    4.64    1.04
  18  -5  -2    3.86    0.68
   5  13  -2    3.65    0.86
  18 -13   2    3.80    0.75
 -18  13   2    5.14    0.92
  13   5   2    3.70    0.83
 -13  18  -2    6.05    1.15
  -5  18   2    6.12    1.35
  18  -5  -2    6.61    1.14
  13 -18  -2    5.67    0.88
 -18  14  -2    0.35    0.29
  18  -4   2    0.29    0.34
  18  -4   2   -0.05    0.33
  14   4  -2    0.02    0.46
   4  14   2    0.19    0.38
 -14  18   2    1.11    0.52
  14 -18   2    0.32    0.29
  -4  18  -2    0.27    0.51
  18 -14  -2   -0.13    0.31
  14 -18  -2    0.53    0.38
   4  14  -2   -0.27    0.26
  18  -4  -2    0.26    0.46
 -18  14   2   -0.22    0.34
  18  -4  -2    0.00    0.22
  -4  18   2    0.28    0.53
 -14  18  -2    0.29    0.41
  14   4   2    0.16    0.35
  18 -14   2    0.08    0.27
  18  -3   2    0.13    0.36
   3  15   2    0.95    0.51
 -18  15  -2    0.85    0.46
  18  -3   2    0.23    0.41
  -3  18  -2    1.37    0.70
  18 -15  -2    0.77    0.46
 -15  18   2    0.18    0.47
  15   3  -2    1.13    0.56
  15 -18   2    0.35    0.38
  18  -3  -2    1.10    0.34
 -15  18  -2   -0.47    0.42
  15   3   2    0.84    0.26
  18  -3  -2    2.44    0.70
 -18  15   2    1.62    0.56
   3  15  -2    0.87    0.44
  -3  18   2    0.78    0.59
  15 -18  -2    1.29    0.49
  18 -15   2    0.51    0.39
  15   3   2    0.56    0.45
  18 -16  -2    0.19    0.36
  -2  18  -2    0.68    0.56
  16 -18   2   -0.09    0.30
 -16  18   2    0.39    0.45
  16   2  -2   -0.07    0.44
  18  -2   2    0.28    0.31
  18  -2   2    0.24    0.38
 -18  16  -2    0.02    0.40
   2  16   2    0.54    0.49
  16   2   2    0.22    0.20
  18  -2  -2   -0.18    0.23
  18  -2  -2    0.40    0.49
  -2  18   2   -0.29    0.50
   2  16  -2    0.69    0.42
  18 -16   2    0.38    0.39
 -16  18  -2    0.46    0.42
 -18  16   2    0.41    0.39
  16   2   2    0.42    0.41
  16 -18  -2    0.48    0.41
 -18  17  -2    0.10    0.40
 -17  18   2   -0.11    0.34
   1  17   2    0.22    0.43
  -1  18  -2    0.56    0.48
  18  -1   2    0.49    0.34
  17 -18   2    0.83    0.41
  18 -17  -2    0.30    0.40
  17   1  -2    1.28    0.61
 -17  18  -2    0.36    0.42
  18  -1  -2    0.42    0.54
  17   1   2    0.78    0.53
  -1  18   2    1.88    0.73
 -18  17   2    0.63    0.38
  17   1   2    0.49    0.25
  18 -17   2    0.80    0.46
  17 -18  -2    0.34    0.30
   1  17  -2    0.14    0.40
  18  -1  -2    0.38    0.27
  18   0  -2   -0.29    0.39
   0  18  -2   -0.71    0.36
 -18  18  -2    0.21    0.39
  18 -18   2    0.04    0.33
  18   0   2    0.16    0.25
   0  18   2    0.27    0.45
 -18  18   2   -0.46    0.39
  18 -18  -2   -0.11    0.29
  10   9  -2    0.53    0.52
  19 -10  -2    1.44    0.49
  19  -9   2    0.87    0.39
 -10  19   2    2.25    0.78
  -9  19  -2    0.76    0.60
   9  10   2    1.74    0.60
  19 -10   2    1.06    0.42
  10   9   2    1.57    0.56
   9  10  -2    1.31    0.52
  -9  19   2    0.87    0.55
  19  -9  -2    1.46    0.50
  19  -9  -2    2.45    0.70
 -10  19  -2    1.38    0.66
 -19  10   2    0.83    0.48
  11   8  -2    0.28    0.44
 -11  19   2    0.04    0.51
   8  11   2   -0.19    0.38
  19 -11  -2   -0.04    0.29
  19  -8   2   -0.19    0.23
  -8  19  -2    0.56    0.51
  19  -8  -2    0.00    0.26
  19  -8  -2    0.15    0.40
   8  11  -2    0.07    0.35
  11   8   2    0.38    0.39
  11 -19  -2    0.40    0.34
  -8  19   2    0.35    0.50
 -11  19  -2   -0.08    0.46
 -19  11   2   -0.27    0.32
  19 -11   2   -0.27    0.27
  -7  19  -2    0.68    0.58
 -12  19   2    0.30    0.49
   7  12   2    1.17    0.46
  19 -12  -2    0.92    0.42
  12   7  -2   -0.53    0.41
  19  -7   2    1.37    0.49
  19  -7  -2    0.94    0.50
  12 -19  -2    0.03    0.35
  -7  19   2   -0.24    0.56
   7  12  -2    0.38    0.43
  12   7   2    0.79    0.56
  19  -7  -2    0.31    0.30
 -19  12   2    0.96    0.50
 -12  19  -2    0.61    0.53
  19 -12   2    0.85    0.42
 -13  19   2    1.00    0.51
  19 -13  -2    1.15    0.46
  19  -6   2    0.41    0.34
   6  13   2    0.61    0.47
  -6  19  -2    2.26    0.78
  13   6  -2    1.53    0.62
  19  -6  -2    1.76    0.61
  13   6   2    0.22    0.44
  19 -13   2    0.45    0.36
 -19  13   2    0.66    0.39
   6  13  -2    1.58    0.79
 -13  19  -2   -0.08    0.45
  -6  19   2    1.59    0.68
  13 -19  -2    1.11    0.45
  19  -6  -2    0.84    0.37
   5  14   2    2.09    0.69
  -5  19  -2    1.92    0.77
  14 -19   2    1.09    0.40
  14   5  -2    1.85    0.70
  19 -14  -2    1.97    0.60
  19  -5   2    0.87    0.39
 -14  19   2    1.04    0.55
   5  14  -2    1.61    0.60
  19  -5  -2    2.19    0.52
  -5  19   2    0.77    0.60
  14 -19  -2    1.84    0.51
 -19  14   2    0.85    0.47
  14   5   2    1.50    0.61
 -14  19  -2    2.14    0.67
  19  -5  -2    2.09    0.67
  19 -14   2    2.00    0.59
  19 -15  -2   -0.07    0.31
 -15  19   2    0.00    0.40
  15   4  -2    0.12    0.50
  -4  19  -2    0.09    0.49
  19  -4   2    0.42    0.32
   4  15   2   -0.45    0.34
  15 -19   2    0.97    0.40
 -15  19  -2    0.15    0.46
  19  -4  -2   -0.48    0.41
  19 -15   2    0.12    0.33
  19  -4  -2    0.36    0.24
 -19  15   2    0.23    0.41
  15   4   2   -0.21    0.39
  15 -19  -2    0.24    0.33
  -4  19   2    0.81    0.63
   4  15  -2   -0.09    0.36
  16   3  -2   -0.70    0.39
 -16  19   2    0.56    0.48
  19  -3   2    0.43    0.31
  -3  19  -2    0.15    0.55
  19 -16  -2    0.18    0.36
  16 -19   2    0.36    0.36
   3  16   2    0.47    0.50
   3  16  -2    0.39    0.45
 -16  19  -2    0.40    0.50
  -3  19   2    0.72    0.62
 -19  16   2    0.64    0.39
  16 -19  -2    0.03    0.31
  19  -3  -2    0.23    0.26
  19 -16   2    0.61    0.42
  19  -3  -2    0.16    0.42
  16   3   2    0.42    0.44
   2  17   2    0.32    0.50
  17   2  -2    0.49    0.51
 -17  19   2    0.00    0.84
  19  -2   2    0.39    0.35
  -2  19  -2    0.33    0.49
  17 -19   2    0.58    0.41
  19 -17  -2    0.36    0.41
  19  -2  -2    0.81    0.49
  19  -2  -2    0.05    0.27
   2  17  -2   -0.09    0.38
  17 -19  -2    0.04    0.37
  19 -17   2    0.69    0.43
 -19  17   2    0.42    0.40
  17   2   2    0.67    0.44
  -2  19   2    0.98    0.60
 -17  19  -2    0.67    0.46
  18 -19   2    0.04    0.31
  19 -18  -2    0.22    0.34
  18   1  -2    0.08    0.53
  19  -1   2   -0.23    0.31
   1  18   2    0.24    0.47
  -1  19  -2    0.09    0.40
 -18  19   2    0.63    0.47
  19  -1  -2    0.45    0.48
  18 -19  -2   -0.10    0.28
  19 -18   2    0.06    0.32
  -1  19   2    1.40    0.66
 -18  19  -2   -0.27    0.39
 -19  18   2    0.80    0.47
   1  18  -2    0.35    0.45
 -19  19   2    0.75    0.47
  19 -19  -2    0.06    0.34
  19   0   2    0.58    0.41
   0  19   2   -0.02    0.45
  19   0  -2    0.03    0.48
  19 -19   2    0.46    0.41
   0  19  -2    0.95    0.56
  10  10   2    0.63    0.42
 -10  20  -2    1.37    0.65
 -10  20   2    1.06    0.66
 -20  10   2    1.98    0.68
  20 -10   2    2.65    0.58
  20 -10  -2    2.08    0.58
  10  10  -2    1.16    0.60
   9  11   2    1.00    0.53
  -9  20  -2    1.28    0.61
  11   9  -2    1.43    0.59
  20  -9   2    1.36    0.46
  20 -11  -2    0.77    0.46
 -11  20   2    2.20    0.76
 -20  11   2    0.84    0.55
  20  -9  -2    1.81    0.52
  20  -9  -2    1.79    0.68
  20 -11   2    1.52    0.51
 -11  20  -2    1.62    0.74
   9  11  -2    1.23    0.55
  11   9   2    2.18    0.62
  -9  20   2    2.27    0.88
  12   8  -2    0.63    0.51
  20  -8   2    2.10    0.56
   8  12   2    1.32    0.52
  -8  20  -2   -0.07    0.55
  20 -12  -2    2.88    0.67
 -12  20   2    1.45    0.71
  -8  20   2    1.73    0.75
  20  -8  -2    1.83    0.66
  12   8   2    1.82    0.62
 -20  12   2    1.80    0.63
 -12  20  -2    1.40    0.68
   8  12  -2    1.56    0.58
  20  -8  -2    2.31    0.60
  20 -12   2    0.96    0.44
   7  13   2   -0.01    0.39
  13   7  -2    1.71    0.52
 -13  20   2   -0.65    0.41
  20 -13  -2    0.21    0.29
  -7  20  -2    0.12    0.50
  20  -7   2    0.40    0.36
  13   7   2    0.87    0.49
  13 -20  -2    0.33    0.39
  -7  20   2    1.27    0.65
   7  13  -2    1.59    0.61
 -13  20  -2    0.01    0.49
 -20  13   2    0.98    0.47
  20 -13   2    0.79    0.41
  20  -7  -2    0.86    0.54
  20  -7  -2    0.67    0.34
   6  14   2    2.05    0.66
  14   6  -2    1.87    0.68
  20  -6   2    1.88    0.54
  -6  20  -2    1.86    0.83
 -14  20   2    1.86    0.78
  20 -14  -2    3.05    0.76
  14 -20  -2    1.43    0.54
  20  -6  -2    2.21    0.68
   6  14  -2    2.59    0.88
  20 -14   2    2.35    0.60
  14   6   2    2.02    0.62
 -20  14   2    2.77    0.72
  -6  20   2    3.50    1.00
 -14  20  -2    2.45    0.85
  20  -6  -2    3.21    0.67
  20  -5   2    0.26    0.33
  -5  20  -2   -0.10    0.59
  20 -15  -2    0.33    0.39
  15   5  -2    0.30    0.49
 -15  20   2    0.62    0.57
   5  15   2   -0.26    0.45
  15   5   2    0.44    0.44
  20  -5  -2    0.61    0.33
 -15  20  -2    0.30    0.44
 -20  15   2    0.21    0.36
  20  -5  -2    0.36    0.40
  -5  20   2   -0.01    0.54
   5  15  -2    1.32    0.62
  20 -15   2    0.47    0.39
  15 -20  -2    1.37    0.51
  -4  20  -2    0.59    0.50
  16   4  -2   -0.51    0.38
  20 -16  -2   -0.04    0.30
 -16  20   2    0.88    0.52
   4  16   2    0.18    0.42
  20  -4   2    0.13    0.31
  16 -20   2   -0.08    0.29
 -16  20  -2   -0.46    0.46
  16 -20  -2   -0.44    0.30
 -20  16   2   -0.64    0.35
  -4  20   2   -0.55    0.49
   4  16  -2   -0.62    0.34
  20  -4  -2    0.34    0.46
  16   4   2   -0.36    0.40
  20 -16   2   -0.24    0.30
  17   3  -2    1.02    0.58
  -3  20  -2    0.22    0.51
  20 -17  -2    0.04    0.38
   3  17   2    0.06    0.46
  20  -3   2    0.51    0.39
  17 -20   2    1.21    0.50
 -17  20   2    0.81    0.48
  17   3   2    0.57    0.50
  20  -3  -2    0.12    0.27
  -3  20   2   -0.19    0.54
 -20  17   2    0.55    0.47
  17 -20  -2   -0.22    0.39
  20  -3  -2    0.90    0.54
   3  17  -2    0.18    0.40
  20 -17   2    0.22    0.35
 -17  20  -2    0.21    0.48
  20 -18  -2    0.26    0.35
 -18  20   2    0.39    0.49
  18 -20   2    0.37    0.40
  -2  20  -2    1.01    0.57
  18   2  -2    1.14    0.58
  20  -2   2    0.18    0.31
   2  18   2    1.00    0.53
 -20  18   2    0.04    0.44
 -18  20  -2    0.41    0.48
  18 -20  -2    0.67    0.39
  20  -2  -2    0.78    0.54
   2  18  -2   -0.01    0.40
  20 -18   2    0.89    0.48
  -2  20   2    0.00    0.59
  -1  20  -2    0.79    0.56
  19   1  -2   -1.10    0.44
   1  19   2    0.08    0.53
  19 -20   2    0.75    0.40
  20 -19  -2    0.77    0.46
 -19  20   2    1.92    0.94
  20  -1   2    0.53    0.35
  20 -19   2    0.10    0.39
  20  -1  -2    0.67    0.52
  -1  20   2    0.27    0.55
 -20  19   2    0.15    0.53
   1  19  -2    0.94    0.58
  19 -20  -2    0.24    0.39
  20 -20   2    1.67    0.52
  20   0  -2    1.41    0.63
  20 -20  -2    2.64    0.72
 -20  20   2    0.87    0.59
   0  20  -2    1.68    0.77
   0  20   2    1.16    0.62
 -21  10   2    0.25    0.48
 -11  21   2    0.26    0.55
  10  11   2    0.04    0.39
  21 -11  -2   -0.03    0.30
 -10  21  -2    0.72    0.56
  21 -10   2    0.26    0.32
  11  10  -2   -0.50    0.41
 -11  21  -2   -0.44    0.49
 -21  11   2    0.00    0.39
 -10  21   2    0.36    0.53
  21 -11   2    0.40    0.27
  11  10   2    0.81    0.47
  21 -10  -2   -0.16    0.29
  10  11  -2    0.27    0.43
  -9  21  -2    2.03    0.75
  21  -9   2    1.30    0.47
  12   9  -2    1.99    0.64
   9  12   2    1.57    0.69
 -12  21   2    3.03    0.93
  21 -12  -2    3.40    0.75
   9  12  -2    2.53    0.78
  21  -9  -2    3.01    0.80
 -12  21  -2    1.94    0.83
  -9  21   2    0.83    0.67
  21  -9  -2    1.87    0.56
 -21  12   2    2.10    0.68
  21 -12   2    1.46    0.48
  12   9   2    3.70    0.82
 -13  21   2    0.14    0.49
  21 -13  -2    0.33    0.37
   8  13   2    0.72    0.50
  -8  21  -2    0.20    0.52
  21  -8   2    0.51    0.33
  13   8  -2    0.76    0.46
 -13  21  -2   -0.05    0.49
  21  -8  -2   -0.08    0.27
 -21  13   2   -0.39    0.38
  -8  21   2    1.46    0.68
   8  13  -2    0.66    0.39
  21  -8  -2   -0.27    0.45
  21 -13   2    0.39    0.40
  13   8   2   -0.04    0.39
 -14  21   2   -0.32    0.49
   7  14   2    0.40    0.49
  21  -7   2    0.13    0.29
  14   7  -2    0.84    0.56
  21 -14  -2   -0.10    0.35
  -7  21  -2    0.42    0.54
   7  14  -2   -0.11    0.41
  21  -7  -2    0.34    0.32
 -14  21  -2    1.31    0.65
  -7  21   2    0.17    0.50
 -21  14   2    0.23    0.43
  21 -14   2    0.55    0.43
  14   7   2    1.04    0.48
  14 -21  -2    0.38    0.41
  21  -7  -2    1.15    0.57
  15   6  -2    0.92    0.62
  21 -15  -2    0.23    0.40
  21  -6   2    0.01    0.31
 -15  21   2   -0.52    0.50
   6  15   2    0.25    0.40
  -6  21  -2    1.11    0.64
  15   6   2    0.46    0.47
  15 -21  -2    0.08    0.36
  21 -15   2    0.01    0.32
  21  -6  -2    0.36    0.32
  21  -6  -2   -0.03    0.51
  -6  21   2    0.79    0.57
   6  15  -2    0.92    0.49
 -21  15   2    0.20    0.36
 -15  21  -2    0.66    0.53
  21  -5   2    0.08    0.36
  16   5  -2    0.16    0.48
  -5  21  -2    0.96    0.58
   5  16   2    0.49    0.45
  21 -16  -2    0.41    0.41
 -16  21   2    0.63    0.49
  -5  21   2   -0.73    0.48
  21  -5  -2    0.12    0.27
 -16  21  -2   -0.80    0.51
   5  16  -2    0.13    0.44
  16   5   2    0.83    0.51
  21  -5  -2   -0.53    0.41
  21 -16   2    0.21    0.42
 -21  16   2    0.04    0.36
  16 -21  -2    0.02    0.32
  17   4  -2   -0.05    0.46
  -4  21  -2   -0.04    0.46
  21 -17  -2   -0.05    0.32
  21  -4   2    0.14    0.34
 -17  21   2    0.86    0.50
   4  17   2    0.11    0.46
  21  -4  -2   -0.06    0.26
   4  17  -2   -0.12    0.42
 -21  17   2   -0.17    0.42
  -4  21   2   -0.20    0.54
  17 -21  -2   -0.37    0.34
 -17  21  -2   -0.56    0.54
  17   4   2    0.36    0.46
  21 -17   2    0.30    0.34
  21  -4  -2   -0.30    0.44
  18   3  -2    0.73    0.52
  21  -3   2   -0.06    0.30
  18 -21   2    0.08    0.33
 -18  21   2   -0.21    0.52
   3  18   2   -0.74    0.40
  -3  21  -2   -1.00    0.44
  21 -18  -2   -0.28    0.32
  18 -21  -2    0.22    0.32
  21 -18   2    0.67    0.42
  -3  21   2    0.59    0.58
 -21  18   2   -0.07    0.41
   3  18  -2    0.17    0.48
  21  -3  -2    0.54    0.52
 -18  21  -2   -0.10    0.52
  -2  21  -2    0.12    0.48
  19 -21   2    0.33    0.39
  21 -19  -2    1.27    0.50
  21  -2   2   -0.23    0.36
   2  19   2    0.41    0.51
  19   2  -2    1.73    0.70
 -19  21   2    0.56    0.53
  21 -19   2    0.83    0.46
 -21  19   2    0.56    0.49
  19 -21  -2    0.07    0.45
  21  -2  -2   -0.03    0.51
   2  19  -2    0.12    0.46
  -2  21   2    1.52    0.69
  20   1  -2    0.94    0.58
 -20  21   2   -1.15    0.54
  21 -20  -2    0.17    0.42
  -1  21  -2    1.28    0.69
  20 -21   2    0.67    0.43
   1  20   2    1.34    0.55
 -21  20   2    0.26    0.55
  20 -21  -2    0.32    0.36
   1  20  -2    0.04    0.55
  21  -1  -2    2.01    0.67
  21 -20   2   -0.39    0.35
  -1  21   2   -0.62    0.49
 -21  21   2    2.99    1.23
   0  21  -2    0.90    0.51
   0  21   2    0.61    0.67
  21 -21  -2    1.39    0.59
  21   0  -2    1.08    0.55
  21 -21   2   -0.01    0.39
  22 -11  -2    0.08    0.34
 -22  11   2    0.53    0.48
 -11  22   2    0.67    0.60
  11  11   2    2.04    0.64
  22 -11   2    2.22    0.60
  11  11  -2    1.47    0.56
 -11  22  -2    1.65    0.72
  12  10  -2    0.50    0.49
  22 -12  -2    0.20    0.28
  22 -10   2    0.07    0.28
 -12  22   2   -0.31    0.53
  10  12   2    0.09    0.46
 -10  22  -2    1.17    0.66
 -22  10   2    0.43    0.54
 -22  12   2   -0.11    0.40
  12  10   2    0.84    0.47
  22 -10  -2   -0.24    0.29
  10  12  -2    0.15    0.47
  22 -12   2    0.19    0.27
 -12  22  -2    0.68    0.55
 -10  22   2   -0.14    0.58
   9  13   2    0.30    0.45
  13   9  -2    0.41    0.46
  -9  22  -2    0.45    0.59
  22 -13  -2    0.34    0.37
  22  -9   2    0.22    0.30
 -13  22   2    0.14    0.58
 -22  13   2    0.12    0.40
  22  -9  -2    0.58    0.50
  22  -9  -2    0.14    0.30
  -9  22   2   -0.63    0.53
   9  13  -2    0.23    0.52
  13   9   2    0.53    0.42
  22 -13   2    0.41    0.40
 -13  22  -2    0.49    0.55
 -14  22   2    0.73    0.69
  14   8  -2    1.00    0.55
   8  14   2    0.34    0.46
  22  -8   2    0.17    0.31
  22 -14  -2   -0.11    0.33
  -8  22  -2    0.87    0.64
 -22  14   2    0.49    0.41
  -8  22   2    1.06    0.67
  22 -14   2    1.03    0.43
  14   8   2    0.33    0.49
   8  14  -2    0.94    0.52
 -14  22  -2    0.45    0.60
  22  -8  -2    0.41    0.51
  22  -8  -2    0.48    0.37
  22 -15  -2    0.74    0.45
  22  -7   2    0.47    0.38
 -15  22   2    1.12    0.63
  15   7  -2    1.21    0.61
   7  15   2    0.49    0.55
  -7  22  -2    0.78    0.64
 -15  22  -2    0.66    0.64
 -22  15   2    1.78    0.60
  22  -7  -2    0.13    0.29
  15   7   2    2.51    0.65
   7  15  -2    0.30    0.41
  22 -15   2    1.42    0.57
  -7  22   2    1.10    0.69
  22  -7  -2    2.05    0.71
  22  -6   2    0.67    0.34
  -6  22  -2    0.89    0.69
 -16  22   2    0.97    0.55
  16   6  -2    0.23    0.54
  22 -16  -2    0.33    0.43
   6  16   2    1.11    0.56
  16   6   2    0.78    0.57
  16 -22  -2    0.75    0.42
 -22  16   2    0.42    0.45
  22  -6  -2    0.71    0.54
  -6  22   2    0.13    0.59
   6  16  -2    0.45    0.53
  22 -16   2   -0.33    0.35
  22  -6  -2    0.09    0.28
 -16  22  -2    1.27    0.62
   5  17   2    0.55    0.56
  -5  22  -2   -0.07    0.54
 -17  22   2    0.88    0.65
  17   5  -2    0.13    0.46
  22 -17  -2   -0.17    0.35
  22  -5   2    0.01    0.26
 -17  22  -2   -0.85    0.53
  22  -5  -2    0.21    0.50
  17 -22  -2    0.50    0.39
  22 -17   2   -0.42    0.35
  -5  22   2    0.37    0.52
  22  -5  -2   -0.25    0.29
 -22  17   2    0.28    0.44
   5  17  -2    0.34    0.46
  17   5   2    0.07    0.49
  22  -4   2    0.32    0.33
  -4  22  -2    0.92    0.53
  22 -18  -2    0.00    0.36
 -18  22   2    0.15    0.52
   4  18   2   -0.11    0.49
  18   4  -2    0.15    0.54
  22 -18   2    0.21    0.45
 -22  18   2    0.54    0.50
  18 -22  -2    0.42    0.41
  22  -4  -2   -0.37    0.29
  -4  22   2    0.14    0.67
   4  18  -2    0.97    0.57
  22  -4  -2    0.23    0.54
 -19  22   2   -0.06    0.57
  -3  22  -2    0.22    0.57
  22 -19  -2    0.39    0.42
  22  -3   2   -0.08    0.34
  19   3  -2   -0.18    0.50
   3  19   2    0.09    0.53
  -3  22   2   -0.33    0.60
  22  -3  -2   -0.68    0.55
   3  19  -2    0.05    0.48
  22 -19   2    0.30    0.45
  19 -22  -2    0.28    0.44
 -22  19   2   -0.66    0.50
 -20  22   2    0.82    0.57
   2  20   2   -0.93    0.48
  22 -20  -2    0.33    0.49
  20   2  -2   -0.31    0.54
  20 -22   2    1.40    0.49
  -2  22  -2    0.00    0.61
  22 -20   2    0.61    0.48
  22  -2  -2    0.18    0.56
 -22  20   2    0.61    0.74
  20 -22  -2    0.88    0.44
  23 -12  -2    0.66    0.34
  12  11  -2   -0.20    0.44
 -23  11   2    0.57    0.52
  23 -11   2    0.77    0.34
 -12  23   2    0.62    0.67
  11  12   2    1.12    0.54
 -11  23  -2    0.04    0.55
  23 -12   2    0.03    0.35
  23 -11  -2   -0.25    0.33
  12  11   2    0.99    0.49
 -23  12   2   -0.15    0.38
 -12  23  -2    0.28    0.55
  11  12  -2   -0.22    0.44
 -11  23   2    0.13    0.67
 -10  23  -2    0.34    0.54
 -23  10   2    0.18    0.53
  23 -13  -2   -0.35    0.31
  23 -10   2   -0.03    0.29
 -13  23   2    0.72    0.62
  10  13   2    0.05    0.51
  13  10  -2   -0.09    0.40
  10  13  -2    0.59    0.46
 -13  23  -2    0.10    0.56
 -10  23   2   -0.03    0.69
  23 -10  -2    0.46    0.39
  13  10   2    0.22    0.46
  23 -13   2   -0.78    0.28
 -23  13   2   -0.18    0.40
  23  -9   2    0.45    0.38
  14   9  -2   -0.05    0.53
   9  14   2   -0.07    0.46
  -9  23  -2    1.92    0.82
  23 -14  -2    0.57    0.39
 -14  23   2    0.92    0.79
 -23  14   2    1.40    0.57
  -9  23   2    1.31    0.70
  23 -14   2    1.56    0.56
 -14  23  -2    0.64    0.64
  14   9   2   -0.65    0.40
   9  14  -2    0.67    0.56
  23  -9  -2    0.62    0.54
  23  -9  -2    0.52    0.40
 -15  23   2    0.58    0.73
  -8  23  -2    1.88    0.74
  15   8  -2   -0.03    0.49
  23  -8   2    0.35    0.38
  23 -15  -2    0.98    0.48
   8  15   2    1.52    0.63
  -8  23   2    0.00    0.69
   8  15  -2   -0.09    0.46
 -15  23  -2    0.03    0.61
  23  -8  -2    1.28    0.64
 -23  15   2    0.09    0.41
  23  -8  -2    0.23    0.39
  23 -15   2    0.73    0.46
  15   8   2   -0.74    0.40
  23  -7   2    0.30    0.34
 -16  23   2    0.25    0.64
  -7  23  -2   -1.48    0.52
  16   7  -2    0.80    0.51
  23 -16  -2    1.15    0.57
   7  16   2    0.30    0.47
  23 -16   2    0.76    0.51
   7  16  -2   -0.16    0.46
  16   7   2   -0.37    0.51
 -16  23  -2    1.00    0.67
  23  -7  -2   -0.16    0.31
  23  -7  -2   -0.09    0.50
  -7  23   2    0.28    0.64
 -23  16   2    0.18    0.45
   6  17   2    0.57    0.50
  -6  23  -2    0.73    0.59
 -17  23   2    0.11    0.68
  17   6  -2    0.66    0.53
  23  -6   2   -0.09    0.34
  23 -17  -2    0.46    0.42
  23  -6  -2   -0.31    0.32
  23  -6  -2    1.48    0.60
 -17  23  -2   -0.42    0.66
  -6  23   2   -0.50    0.62
 -23  17   2    0.02    0.43
   6  17  -2    1.11    0.56
  23 -17   2   -0.12    0.39
 -18  23   2   -0.88    0.58
  18   5  -2    0.15    0.56
   5  18   2    0.57    0.53
  23  -5   2    0.49    0.33
  -5  23  -2    0.63    0.62
  23 -18  -2   -0.17    0.37
  23  -5  -2    0.36    0.50
  23  -5  -2   -0.59    0.27
   5  18  -2    0.96    0.99
 -23  18   2   -0.01    0.48
  23 -18   2   -0.23    0.37
  18 -23  -2    0.29    0.43
  -5  23   2    0.90    0.77
  24 -12   2   -0.51    0.33
  12  12  -2   -0.36    0.45
 -24  12   2    0.05    0.46
  12  12   2    0.55    0.47
 -12  24   2   -0.12    0.62
  24 -12  -2   -0.18    0.36
 -12  24  -2    1.16    0.62
  24 -11   2    0.19    0.33
 -24  11   2   -0.06    0.50
 -13  24   2    0.73    0.67
  11  13   2    0.85    0.52
  13  11  -2   -0.87    0.49
  24 -13  -2    0.17    0.39
 -11  24  -2    0.67    0.63
  13  11   2   -0.35    0.49
  11  13  -2    1.15    0.52
 -13  24  -2    0.25    0.65
 -11  24   2   -1.47    0.67
  24 -11  -2    0.23    0.34
  24 -13   2    0.37    0.40
 -24  13   2   -0.09    0.42
  24 -10   2    0.11    0.32
  14  10  -2    1.34    0.58
 -10  24  -2   -0.96    0.53
 -24  10   2    0.94    0.66
  24 -14  -2    0.32    0.37
  10  14   2   -0.88    0.42
 -14  24   2    0.73    0.74
  10  14  -2    0.99    0.54
 -24  14   2    0.26    0.47
 -10  24   2    0.87    0.70
  24 -10  -2    0.21    0.37
 -14  24  -2    0.98    0.67
  14  10   2    0.56    0.58
  24 -14   2   -0.42    0.35
  -9  24  -2    0.58    0.63
 -15  24   2    0.84    0.77
   9  15   2   -0.06    0.48
  15   9  -2   -0.20    0.49
  24  -9   2    0.11    0.34
  -9  24   2   -0.48    0.73
  15   9   2    1.74    0.53
 -24  15   2   -0.16    0.41
   9  15  -2   -0.36    0.45
  24  -9  -2   -0.25    0.36
 -15  24  -2   -0.15    0.62
   8  16   2    0.51    0.54
  16   8  -2   -0.09    0.55
  -8  24  -2   -0.85    0.62
  16   8   2    0.57    0.54
 -16  24  -2    1.73    0.73
   0   0  -3   -0.70    0.09
   1   0  -3   -0.02    0.07
   1   0  -3   -0.02    0.07
   0   1   3   -0.02    0.07
   1  -1  -3    0.06    0.10
   1   0   3   -0.04    0.08
   1  -1  -3   -0.03    0.08
   0  -1  -3    0.03    0.10
   0   1  -3    0.10    0.07
   1  -1   3    0.00    0.07
   0  -1   3    0.12    0.07
  -1   2   3   17.44    0.86
   1  -2   3   17.66    0.75
  -1   2  -3   19.56    0.82
   1   1  -3   18.78    0.79
   1  -2  -3   18.64    0.91
   2  -1  -3   18.92    0.93
   1   1  -3   18.46    0.88
   1   1   3   18.31    0.86
   2  -1   3   17.19    0.81
   1   1   3   17.65    0.85
   2  -1  -3   17.50    0.85
   0   2   3    0.09    0.10
   2   0  -3   -0.03    0.10
   0  -2  -3    0.05    0.12
   2   0  -3    0.02    0.08
   0   2  -3   -0.08    0.10
   0  -2   3    0.09    0.06
   2  -2   3    0.02    0.07
   2  -2  -3    0.13    0.10
   2   0   3   -0.03    0.08
   1   2   3    2.88    0.31
   2   1  -3    2.40    0.32
   2  -3   3    2.59    0.19
  -2   3   3    2.69    0.32
  -1   3  -3    2.31    0.29
   3  -1   3    2.94    0.28
   1   2   3    3.07    0.36
   3  -2  -3    2.80    0.30
   1  -3  -3    1.96    0.31
   2   1  -3    2.05    0.20
   3  -2  -3    1.68    0.30
  -2   3  -3    2.48    0.28
   2  -3  -3    2.10    0.31
   2   1   3    2.97    0.30
   1   2  -3    2.11    0.29
   1   2  -3    2.11    0.17
   1  -3   3    2.78    0.17
   3  -2   3    2.55    0.24
   3  -1  -3    2.26    0.34
   2   1   3    2.73    0.30
   3  -1  -3    2.02    0.25
  -1   3   3    2.70    0.34
   3   0   3   -0.07    0.07
   3   0  -3    0.01    0.06
   0   3   3   -0.08    0.12
   3   0   3    0.06    0.09
   0   3  -3    0.03    0.11
   0  -3  -3    0.07    0.13
   3   0  -3    0.06    0.13
   3  -3   3    0.02    0.07
  -3   3  -3    0.21    0.09
  -3   3   3   -0.17    0.09
   3  -3  -3   -0.06    0.09
   2   2   3   35.63    1.66
   2   2   3   35.45    1.53
   2   2  -3   38.85    1.36
  -2   4  -3   34.17    1.64
   4  -2   3   33.92    1.44
   2  -4   3   34.78    1.33
   4  -2   3   35.19    1.44
   4  -2  -3   37.55    1.71
   2  -4  -3   36.57    1.61
  -2   4   3   34.75    1.67
   4  -2  -3   35.78    1.50
   2   2  -3   37.07    1.65
   4  -1   3   48.65    1.92
   1   3   3   47.36    2.20
  -1   4  -3   50.62    2.14
  -4   3  -3   49.94    1.91
   3   1  -3   50.67    1.83
   1   3   3   45.15    1.96
   3   1  -3   50.09    2.15
   4  -3  -3   51.19    1.99
   3  -4   3   47.96    1.79
   1  -4  -3   46.91    2.04
  -3   4   3   44.73    2.08
   4  -3  -3   48.91    2.15
   4  -1   3   44.57    1.89
   1  -4   3   48.07    1.72
   4  -1  -3   49.43    2.17
   1   3  -3   50.32    2.12
  -1   4   3   47.67    2.19
   3  -4  -3   48.97    2.03
   3   1   3   45.52    1.93
   4  -1  -3   52.50    1.92
   3   1   3   47.86    2.00
   4  -3   3   44.34    1.83
  -3   4  -3   49.77    2.08
   4   0  -3    0.07    0.15
   4  -4   3    0.03    0.07
   4   0   3   -0.04    0.09
  -4   4  -3    0.23    0.11
   4   0   3    0.02    0.09
  -4   4   3   -0.11    0.13
   4   0  -3   -0.05    0.06
   4  -4  -3   -0.02    0.11
   0   4  -3   -0.15    0.11
   0   4   3   -0.09    0.16
   0  -4  -3    0.09    0.14
   3  -5   3    9.20    0.45
   5  -3  -3    9.35    0.60
   5  -3  -3   10.12    0.74
   5  -2   3    9.79    0.55
   3   2  -3    9.47    0.45
   2   3   3   10.41    0.62
   2  -5  -3    8.57    0.65
   3   2  -3    9.27    0.68
  -5   3  -3    9.85    0.51
  -2   5  -3    9.08    0.71
   5  -2   3    8.88    0.53
   2   3   3   10.00    0.74
  -3   5   3   10.63    0.74
   2   3  -3    9.43    0.69
  -2   5   3   10.06    0.75
   5  -2  -3    8.73    0.70
   5  -3   3    9.11    0.52
   5  -2  -3    9.66    0.58
   3   2   3    8.86    0.64
   2  -5   3    9.63    0.43
   3   2   3   10.79    0.62
   3  -5  -3    8.65    0.65
  -3   5  -3   10.52    0.73
   5  -4  -3   27.67    1.24
   1   4   3   20.79    1.37
   5  -1   3   25.62    1.13
   4   1  -3   26.10    1.05
  -1   5  -3   27.41    1.40
  -4   5   3   23.03    1.29
  -5   4  -3   24.86    1.13
   1  -5  -3   27.03    1.30
   4  -5   3   24.26    1.01
   4   1  -3   26.94    1.36
   1   4   3   23.92    1.19
   5  -1   3   23.28    1.13
   4   1   3   22.52    1.13
   5  -1  -3   28.42    1.15
  -4   5  -3   29.24    1.33
   5  -4   3   22.41    1.04
   1  -5   3   23.81    0.95
   1   4  -3   28.20    1.36
   5  -1  -3   25.99    1.38
   4  -5  -3   26.52    1.26
   4   1   3   25.93    1.21
  -1   5   3   21.92    1.40
   0   5  -3    0.15    0.17
   5   0   3   -0.01    0.09
   5   0  -3    0.19    0.18
  -5   5  -3   -0.13    0.08
   5  -5   3    0.03    0.08
   5   0  -3    0.29    0.10
   0  -5  -3    0.12    0.16
  -5   5   3    0.13    0.15
   5   0   3    0.10    0.11
   0   5   3   -0.12    0.19
   5  -5  -3   -0.10    0.09
   3   3  -3   61.25    2.59
   3   3  -3   55.44    2.08
   3   3   3   60.28    2.57
   6  -3  -3   51.71    2.57
   3  -6  -3   54.87    2.43
   6  -3   3   56.37    2.34
   3   3   3   56.93    2.31
   6  -3   3   55.37    2.21
  -3   6   3   59.10    2.68
  -3   6  -3   56.07    2.64
   6  -3  -3   57.31    2.32
   3  -6   3   62.22    2.16
  -4   6   3    5.80    0.64
   4   2  -3    7.11    0.62
  -2   6  -3    7.79    0.69
   6  -4  -3    7.65    0.67
   6  -4  -3    7.26    0.53
   6  -2   3    6.18    0.44
   2   4   3    6.30    0.71
   2   4   3    5.70    0.48
   6  -2   3    6.24    0.47
   4  -6   3    5.53    0.37
  -6   4  -3    7.75    0.45
   4   2  -3    7.02    0.37
   2  -6  -3    6.67    0.57
   4  -6  -3    7.54    0.58
   6  -2  -3    7.25    0.49
   6  -2  -3    7.41    0.65
   2  -6   3    6.19    0.35
   4   2   3    5.56    0.46
   2   4  -3    7.60    0.64
   4   2   3    6.32    0.53
  -2   6   3    5.24    0.69
   6  -4   3    6.62    0.43
  -4   6  -3    7.83    0.65
  -5   6   3    1.82    0.36
  -6   5  -3    1.19    0.22
   6  -5  -3    1.52    0.31
   5   1  -3    1.39    0.34
   1   5   3    1.26    0.39
  -1   6  -3    1.02    0.33
   6  -1   3    1.93    0.29
   5  -6   3    1.97    0.23
   1  -6  -3    1.21    0.29
   5   1  -3    1.58    0.21
   6  -1   3    1.49    0.25
   1   5   3    1.44    0.28
  -5   6  -3    1.56    0.30
   6  -1  -3    1.28    0.23
   5   1   3    1.95    0.29
   6  -1  -3    1.61    0.38
   5   1   3    1.89    0.31
   6  -5   3    1.69    0.23
  -1   6   3    1.54    0.44
   1   5  -3    1.06    0.31
   1  -6   3    1.87    0.15
  -6   5   3    1.78    0.36
   5  -6  -3    1.15    0.28
   6  -6   3   -0.07    0.08
   6   0  -3   -0.04    0.06
  -6   6  -3   -0.02    0.10
   0  -6  -3    0.10    0.14
   6   0  -3    0.04    0.21
   6   0   3    0.05    0.12
   0   6   3    0.01    0.25
   6   0   3    0.06    0.11
   0   6  -3    0.20    0.18
   6  -6  -3   -0.03    0.13
  -6   6   3    0.02    0.15
   7  -4  -3    6.42    0.72
  -3   7  -3    6.35    0.76
  -4   7   3    6.18    0.75
   4   3  -3    6.09    0.34
   7  -4  -3    6.71    0.53
   4  -7   3    6.35    0.41
   3   4   3    5.75    0.48
   3   4   3    5.97    0.68
   7  -3   3    6.17    0.50
   4   3  -3    5.86    0.66
   3  -7  -3    7.09    0.66
   7  -3   3    6.14    0.44
   7  -3  -3    6.43    0.72
   4   3   3    6.55    0.65
   3  -7   3    6.35    0.39
   7  -3  -3    5.64    0.48
   4   3   3    5.67    0.47
   3   4  -3    6.80    0.31
   4  -7  -3    6.86    0.60
  -3   7   3    6.44    0.79
   7  -4   3    6.11    0.43
  -4   7  -3    6.12    0.73
   3   4  -3    7.32    0.65
   2  -7  -3    5.05    0.56
  -2   7  -3    4.77    0.68
  -5   7   3    3.22    0.53
   7  -2   3    2.98    0.40
   5   2  -3    4.45    0.30
   2   5   3    3.00    0.56
   7  -5  -3    4.69    0.50
   5   2  -3    4.32    0.58
   7  -5  -3    5.50    0.66
   2   5   3    2.96    0.40
   7  -2   3    2.99    0.35
  -7   5  -3    4.56    0.36
   5  -7   3    3.58    0.34
   5   2   3    3.59    0.47
   7  -2  -3    5.01    0.41
   5  -7  -3    4.81    0.55
   7  -5   3    2.67    0.31
  -2   7   3    2.77    0.58
  -5   7  -3    5.26    0.63
   7  -2  -3    5.19    0.66
   5   2   3    3.55    0.40
   2   5  -3    5.43    0.63
   2  -7   3    3.19    0.25
   7  -1   3    2.15    0.35
   1   6   3    2.58    0.56
  -6   7   3    2.07    0.42
   6  -7   3    2.23    0.31
  -1   7  -3    2.22    0.48
   7  -6  -3    1.67    0.34
   6   1  -3    1.79    0.42
  -7   6  -3    1.95    0.31
   1  -7  -3    2.01    0.38
   1   6   3    2.17    0.35
   6   1  -3    1.69    0.24
   7  -1   3    2.26    0.31
   1   6  -3    1.72    0.40
  -6   7  -3    1.77    0.35
   6  -7  -3    1.77    0.36
   7  -1  -3    1.90    0.30
   6   1   3    2.89    0.35
  -1   7   3    2.05    0.54
   7  -1  -3    2.08    0.44
   1  -7   3    2.11    0.17
   7  -6   3    2.27    0.29
  -7   6   3    1.57    0.36
   6   1   3    2.30    0.37
   0   7  -3   -0.13    0.16
   7   0  -3    0.03    0.07
   7  -7  -3   -0.08    0.12
  -7   7   3    0.22    0.17
   7  -7   3   -0.03    0.12
   0  -7  -3    0.10    0.19
   7   0  -3    0.28    0.23
   0   7   3   -0.28    0.24
   7   0   3    0.05    0.12
   7   0   3   -0.14    0.13
  -7   7  -3    0.03    0.11
  -4   8  -3  110.09    4.56
   8  -4   3   98.16    4.10
   4   4  -3  105.12    3.67
   4   4   3  101.00    4.32
   4   4  -3  109.10    4.39
   4   4   3   97.67    3.91
   4  -8  -3  109.38    4.15
   4  -8   3  102.19    3.79
   8  -4  -3  108.65    4.02
  -4   8   3   91.34    4.46
   8  -4  -3  107.91    4.45
   8  -4   3   94.06    3.80
  -3   8  -3    2.99    0.59
   3  -8  -3    3.69    0.52
   8  -5  -3    3.50    0.58
   8  -5  -3    3.69    0.47
   3   5   3    2.89    0.40
  -8   5  -3    3.95    0.39
   5  -8   3    3.00    0.34
   5   3  -3    3.77    0.59
   8  -3   3    2.79    0.41
   5   3  -3    3.45    0.26
   8  -3   3    2.71    0.34
   3   5   3    3.69    0.61
  -5   8   3    3.41    0.60
   5   3   3    2.57    0.37
  -5   8  -3    3.38    0.58
   8  -3  -3    3.80    0.61
   5   3   3    3.18    0.49
   8  -5   3    2.71    0.32
   3   5  -3    3.58    0.56
   3  -8   3    2.91    0.29
   8  -3  -3    3.90    0.44
   5  -8  -3    3.85    0.53
  -3   8   3    2.76    0.58
   6   2  -3    4.40    0.32
   8  -2   3    3.53    0.48
   2   6   3    2.56    0.57
   8  -6  -3    4.39    0.53
   6  -8   3    4.03    0.40
   2  -8  -3    4.06    0.55
  -2   8  -3    4.75    0.73
   2   6   3    3.32    0.43
   6   2  -3    4.08    0.62
  -6   8   3    3.60    0.58
  -8   6  -3    3.37    0.40
   8  -2   3    2.73    0.35
   8  -2  -3    4.01    0.44
   6  -8  -3    4.24    0.55
  -6   8  -3    4.22    0.61
   2   6  -3    4.44    0.63
   6   2   3    3.18    0.40
  -8   6   3    3.10    0.53
   8  -6   3    3.18    0.36
   8  -2  -3    3.60    0.62
  -2   8   3    3.14    0.67
   2  -8   3    2.98    0.26
   6   2   3    4.39    0.53
   7   1  -3   10.03    0.89
  -1   8  -3    9.89    1.01
   1   7   3   10.39    1.11
   8  -7  -3   10.50    0.76
  -8   7  -3   10.28    0.72
   7   1  -3   10.53    0.61
  -7   8   3    9.94    0.85
   8  -1   3    8.33    0.70
   1  -8  -3   10.12    0.78
   1   7   3   10.03    0.70
   8  -1   3    9.80    0.63
   7  -8   3   10.77    0.66
   7   1   3    9.39    0.63
   7   1   3   10.25    0.77
   8  -1  -3    8.57    0.92
  -1   8   3   10.25    1.17
  -7   8  -3   10.52    0.81
   1  -8   3   10.21    0.50
  -8   7   3   10.53    0.85
   1   7  -3   11.14    0.92
   7  -8  -3   10.26    0.77
   8  -7   3    9.14    0.61
   8  -1  -3   10.52    0.66
   0   8  -3    0.04    0.23
   8   0  -3   -0.02    0.21
   8  -8  -3   -0.09    0.13
   0   8   3    0.06    0.27
   8  -8   3   -0.10    0.13
   8   0   3    0.01    0.12
   0  -8  -3    0.06    0.16
  -8   8  -3    0.02    0.14
  -8   8   3    0.01    0.18
   8   0   3    0.17    0.18
   8   0  -3   -0.02    0.09
   9  -5  -3   17.01    1.02
   5  -9   3   17.62    0.88
  -4   9  -3   16.46    1.30
   9  -5  -3   16.46    1.21
   9  -4   3   16.75    0.87
   4   5   3   18.18    0.96
   5   4  -3   15.32    1.15
  -5   9   3   18.27    1.34
   4  -9  -3   16.55    1.08
   4   5   3   19.96    1.26
   5   4  -3   16.74    0.75
   9  -4   3   16.25    1.01
   5  -9  -3   15.77    1.06
   4   5  -3   15.48    0.69
   4  -9   3   17.14    0.85
   5   4   3   16.81    0.93
   5   4   3   17.15    1.13
   9  -4  -3   15.79    1.20
   9  -5   3   16.23    1.00
  -5   9  -3   15.98    1.26
   9  -5   3   16.67    0.87
  -4   9   3   17.85    1.35
   4   5  -3   15.88    1.17
   9  -4  -3   18.32    1.01
  -9   6  -3   20.12    1.10
   6   3  -3   20.09    1.34
   3   6   3   19.52    1.40
   9  -6  -3   22.66    1.21
   9  -3   3   20.55    1.02
   3   6   3   20.45    1.09
   6  -9   3   21.72    1.04
   9  -6  -3   20.69    1.38
   9  -3   3   20.29    1.18
   3  -9  -3   20.93    1.24
  -3   9  -3   21.25    1.49
  -6   9   3   20.12    1.40
   6   3  -3   20.30    0.93
  -3   9   3   18.26    1.50
   9  -6   3   19.26    1.01
   9  -3  -3   20.36    1.11
   6  -9  -3   20.47    1.22
   6   3   3   20.11    1.05
   3  -9   3   19.00    0.94
  -6   9  -3   21.97    1.43
   9  -3  -3   21.22    1.40
   3   6  -3   21.80    1.38
   6   3   3   19.49    1.26
   7  -9   3    1.21    0.26
   2   7   3    1.47    0.29
  -9   7  -3    1.15    0.26
  -2   9  -3    1.01    0.39
   9  -2   3    1.21    0.25
   2   7   3    1.52    0.49
   7   2  -3    1.04    0.21
   9  -7  -3    0.86    0.28
   2  -9  -3    1.38    0.35
   9  -2   3    1.92    0.39
   7   2  -3    1.30    0.41
  -7   9   3    1.74    0.43
   2   7  -3    1.20    0.36
  -2   9   3    0.84    0.45
   7  -9  -3    1.19    0.32
   9  -2  -3    1.15    0.39
  -9   7   3    0.94    0.31
   2  -9   3    1.06    0.18
   7   2   3    1.06    0.33
   9  -2  -3    1.16    0.26
  -7   9  -3    1.21    0.34
   9  -7   3    1.36    0.28
   7   2   3    1.09    0.25
   1   8   3    2.37    0.38
   9  -1   3    2.79    0.37
   9  -8  -3    2.28    0.45
   1  -9  -3    2.92    0.49
   8  -9   3    2.75    0.40
   8   1  -3    3.05    0.36
  -9   8  -3    3.17    0.47
   8   1  -3    2.85    0.55
  -1   9  -3    3.27    0.67
   1   8   3    2.35    0.61
  -8   9   3    2.95    0.56
   9  -1   3    2.63    0.46
   1  -9   3    2.74    0.24
   8  -9  -3    2.47    0.45
   8   1   3    2.36    0.36
   9  -1  -3    2.51    0.55
  -8   9  -3    3.50    0.58
   8   1   3    2.83    0.47
  -1   9   3    2.25    0.65
   9  -1  -3    3.37    0.42
   9  -8   3    2.54    0.40
   1   8  -3    3.42    0.63
  -9   8   3    3.37    0.56
   9   0  -3    0.00    0.10
   9   0   3    0.11    0.21
   9   0   3   -0.04    0.10
   0   9   3    0.07    0.33
   0   9  -3    0.15    0.26
  -9   9  -3    0.14    0.14
  -9   9   3    0.05    0.20
   9  -9  -3   -0.03    0.17
   9   0  -3   -0.10    0.23
   9  -9   3   -0.06    0.13
   5   5  -3   15.69    1.19
  -5  10   3   15.85    1.33
  10  -5  -3   15.75    1.22
   5 -10  -3   17.00    1.11
  10  -5  -3   16.70    1.02
  10  -5   3   15.95    1.02
   5   5   3   16.28    0.92
   5 -10   3   16.20    0.86
  10  -5   3   15.00    0.85
  -5  10  -3   16.05    1.31
   5   5   3   15.45    1.14
   4 -10  -3    0.04    0.20
  10  -6  -3   -0.24    0.21
  10  -6  -3    0.25    0.18
   6 -10   3    0.05    0.13
  -6  10   3   -0.14    0.19
  -4  10  -3   -0.03    0.28
   6   4  -3   -0.03    0.08
  10  -4   3   -0.07    0.16
   4   6   3    0.35    0.26
 -10   6  -3    0.08    0.14
  10  -4   3    0.03    0.12
   6   4  -3    0.12    0.23
   4   6   3   -0.01    0.12
   4   6  -3    0.19    0.24
   4   6  -3    0.05    0.07
  10  -6   3    0.04    0.12
   6   4   3    0.16    0.14
  -6  10  -3    0.74    0.35
   6   4   3   -0.07    0.20
   6 -10  -3    0.08    0.17
  10  -4  -3   -0.14    0.12
   4 -10   3   -0.02    0.11
  10  -4  -3    0.04    0.25
  -4  10   3   -0.19    0.25
  -7  10   3    5.52    0.81
  10  -3   3    5.81    0.65
 -10   7  -3    4.54    0.52
  -3  10  -3    5.16    0.85
   7   3  -3    3.21    0.61
   3 -10  -3    5.01    0.65
  10  -7  -3    4.32    0.59
   7 -10   3    5.23    0.52
   7   3  -3    4.64    0.37
  10  -3   3    5.86    0.46
   3   7   3    5.74    0.56
   3   7   3    4.50    0.76
   3   7  -3    4.00    0.68
  -3  10   3    6.75    1.04
  -7  10  -3    4.68    0.73
  10  -3  -3    5.01    0.77
   7   3   3    5.90    0.71
 -10   7   3    5.31    0.72
   7   3   3    5.32    0.51
   7 -10  -3    4.54    0.64
   3 -10   3    5.45    0.40
  10  -7   3    4.70    0.50
  10  -3  -3    4.31    0.53
  10  -2   3    1.16    0.26
   2 -10  -3    0.64    0.28
   2   8   3    0.96    0.25
  10  -8  -3    0.77    0.29
   8   2  -3    1.06    0.22
   8 -10   3    1.28    0.27
   8   2  -3    0.81    0.37
   2   8   3    1.68    0.55
  -2  10  -3    1.49    0.49
 -10   8  -3    1.16    0.29
  -8  10   3    1.00    0.37
  10  -2   3    0.92    0.31
 -10   8   3    0.57    0.29
   8   2   3    1.14    0.26
   2   8  -3    0.81    0.33
  -8  10  -3    1.29    0.35
  10  -8   3    1.18    0.31
  10  -2  -3    0.92    0.26
   8   2   3    1.53    0.38
  10  -2  -3    0.70    0.37
   2 -10   3    1.26    0.21
   8 -10  -3    0.86    0.32
  -2  10   3    0.69    0.44
 -10   9  -3    6.55    0.71
   9   1  -3    5.56    0.84
  10  -9  -3    6.07    0.73
   9   1  -3    5.02    0.45
  -1  10  -3    5.85    0.91
   9 -10   3    6.60    0.56
  10  -1   3    6.41    0.51
   1   9   3    6.59    0.57
  10  -1   3    6.01    0.72
   1   9   3    6.08    1.01
  -9  10   3    6.72    0.86
   1 -10  -3    6.52    0.76
 -10   9   3    6.51    0.81
   9   1   3    7.17    0.53
   9   1   3    6.92    0.78
  -9  10  -3    6.41    0.83
   9 -10  -3    5.59    0.72
  -1  10   3    6.56    1.09
  10  -1  -3    5.63    0.83
   1   9  -3    5.70    0.85
  10  -1  -3    6.20    0.60
  10  -9   3    6.54    0.64
  10   0  -3   -0.06    0.10
   0  10  -3   -0.22    0.21
  10 -10  -3    0.03    0.19
  10 -10   3    0.02    0.16
  10   0   3   -0.01    0.13
   0  10   3   -0.08    0.32
  10   0   3    0.01    0.25
   0  10   3   -0.02    0.11
 -10  10  -3    0.00    0.16
 -10  10   3    0.17    0.24
  10   0  -3    0.05    0.24
   6   5  -3   17.59    1.33
  -6  11   3   18.39    1.46
  11  -5   3   17.78    0.96
  11  -6  -3   17.43    1.12
   5 -11  -3   16.11    1.14
   5   6   3   18.56    1.31
   6 -11   3   17.94    0.98
  11  -5   3   17.91    1.16
  -5  11  -3   17.92    1.50
   5   6   3   19.16    1.03
  11  -6  -3   17.93    1.38
   5   6  -3   16.07    1.28
  -6  11  -3   18.06    1.47
  11  -5  -3   15.96    1.31
   6   5   3   18.24    1.01
   6   5   3   18.05    1.27
  -5  11   3   16.99    1.51
  11  -6   3   18.08    0.99
   5 -11   3   17.89    0.95
  11  -5  -3   19.34    1.13
   6 -11  -3   17.61    1.19
   7 -11   3    3.55    0.45
  -7  11   3    3.04    0.65
   4   7   3    3.39    0.45
   7   4  -3    2.38    0.29
   4 -11  -3    3.44    0.57
   4   7   3    3.17    0.62
  11  -7  -3    3.27    0.54
  -4  11  -3    1.82    0.59
  11  -7  -3    2.78    0.64
  11  -4   3    2.90    0.51
  11  -4   3    3.99    0.44
   7   4  -3    3.33    0.66
 -11   7  -3    2.53    0.42
  -7  11  -3    2.97    0.63
   7 -11  -3    2.58    0.51
  11  -4  -3    2.19    0.56
   7   4   3    3.60    0.61
   7   4   3    3.68    0.44
  11  -7   3    3.47    0.46
   4 -11   3    3.65    0.40
  11  -4  -3    3.50    0.51
   4   7  -3    3.04    0.60
  -4  11   3    3.26    0.82
   8   3  -3    6.14    0.46
 -11   8  -3    6.50    0.60
  11  -8  -3    5.91    0.73
   3   8   3    6.41    0.93
  11  -3   3    7.24    0.77
   3 -11  -3    6.28    0.76
   3   8   3    6.03    0.61
   8   3  -3    5.87    0.87
  -8  11   3    7.37    0.98
  -3  11  -3    5.68    0.96
  11  -3   3    6.15    0.51
   8 -11   3    6.72    0.57
 -11   8   3    7.70    0.86
   8 -11  -3    6.33    0.77
   8   3   3    6.81    0.81
  -3  11   3    7.05    1.13
   8   3   3    6.22    0.52
  11  -3  -3    5.13    0.61
  11  -3  -3    7.06    0.95
   3   8  -3    6.02    0.85
   3 -11   3    7.56    0.50
  11  -8   3    6.63    0.66
  -8  11  -3    6.68    0.92
   9   2  -3    2.63    0.36
   2   9   3    2.93    0.72
   2   9   3    2.44    0.40
  11  -9  -3    2.41    0.49
   9   2  -3    2.04    0.55
  11  -2   3    2.74    0.38
  -9  11   3    3.23    0.62
  11  -2   3    1.73    0.42
   9 -11   3    2.27    0.41
 -11   9  -3    2.72    0.46
   2 -11  -3    1.69    0.40
  -2  11  -3    2.46    0.65
   9 -11  -3    2.14    0.48
 -11   9   3    2.56    0.54
   9   2   3    2.02    0.47
  11  -2  -3    2.32    0.40
   9   2   3    2.88    0.41
  -9  11  -3    2.28    0.52
  -2  11   3    2.15    0.72
  11  -9   3    2.25    0.42
   2   9  -3    2.76    0.60
  11  -2  -3    2.53    0.59
 -11  10  -3   12.83    0.99
  10 -11   3   13.23    0.90
   1  10   3   15.20    0.93
   1  10   3   14.33    1.54
  -1  11  -3   11.97    1.34
 -10  11   3   12.10    1.12
  10   1  -3   11.92    1.27
  11  -1   3   14.79    0.84
  10   1  -3   11.94    0.79
  11  -1   3   13.63    1.06
  11 -10  -3   12.20    0.99
   1 -11  -3   13.36    1.00
  10   1   3   12.21    0.79
  10   1   3   14.09    1.08
  11  -1  -3   14.15    1.22
  10 -11  -3   11.71    0.98
   1  10  -3   13.00    1.31
  11  -1  -3   12.23    0.84
  11 -10   3   13.60    0.93
 -10  11  -3   12.89    1.13
  -1  11   3   12.88    1.58
 -11  10   3   13.69    1.14
 -11  11  -3   -0.04    0.19
  11   0   3    0.23    0.28
  11 -11  -3    0.13    0.22
   0  11   3   -0.27    0.14
  11   0  -3    0.09    0.28
   0  11   3    0.00    0.41
  11   0   3    0.11    0.15
   0  11  -3   -0.20    0.26
  11   0  -3    0.03    0.12
 -11  11   3   -0.09    0.21
  11 -11   3   -0.10    0.17
   6   6  -3   13.11    1.17
  12  -6   3   12.77    0.85
   6 -12   3   14.27    0.85
  12  -6   3   14.34    1.05
  12  -6  -3   12.91    1.19
  12  -6  -3   14.69    1.01
  -6  12   3   16.06    1.43
   6   6   3   12.76    1.11
   6   6   3   12.94    0.84
   6 -12  -3   15.41    1.10
  -6  12  -3   12.35    1.43
  -5  12  -3    2.21    0.66
  12  -5   3    2.67    0.52
   7   5  -3    3.27    0.69
   7   5  -3    2.79    0.31
   5   7   3    3.29    0.45
  12  -5   3    2.79    0.41
  12  -7  -3    2.72    0.52
   7 -12   3    3.03    0.44
  12  -7  -3    3.43    0.70
 -12   7  -3    3.07    0.48
   5   7   3    3.73    0.70
  -7  12   3    3.19    0.70
   5 -12  -3    3.10    0.57
   7 -12  -3    4.48    0.67
  -5  12   3    3.03    0.77
   5   7  -3    1.81    0.52
  -7  12  -3    3.20    0.73
  12  -7   3    2.93    0.45
   7   5   3    2.72    0.59
   5 -12   3    3.35    0.42
  12  -5  -3    2.93    0.51
   7   5   3    3.70    0.46
  12  -5  -3    3.23    0.68
   4   8   3   21.62    1.59
   8   4  -3   20.34    1.53
   8   4  -3   20.82    1.02
  -4  12  -3   20.68    1.69
   8 -12   3   19.79    1.16
   4   8   3   23.22    1.19
  12  -8  -3   21.86    1.35
 -12   8  -3   21.32    1.27
   4 -12  -3   21.20    1.34
  -8  12   3   19.81    1.58
  12  -4   3   22.14    1.38
  12  -4   3   20.63    1.11
   8 -12  -3   23.23    1.41
   8   4   3   20.96    1.43
 -12   8   3   20.12    1.44
  12  -4  -3   20.25    1.24
   4   8  -3   21.48    1.55
   4 -12   3   21.97    1.09
  -4  12   3   21.75    1.86
  -8  12  -3   19.90    1.58
  12  -4  -3   22.76    1.61
  12  -8   3   19.91    1.20
   8   4   3   20.30    1.12
   9 -12   3    1.51    0.34
  -3  12  -3    1.15    0.50
   9   3  -3    1.31    0.49
 -12   9  -3    1.28    0.35
  12  -3   3    0.58    0.31
   3   9   3    1.22    0.29
  12  -3   3    1.17    0.28
   9   3  -3    1.07    0.25
  -9  12   3    0.76    0.37
   3 -12  -3    1.68    0.42
   3   9   3    1.40    0.53
  12  -9  -3    1.20    0.39
  -9  12  -3    1.48    0.46
  12  -3  -3    1.37    0.46
  12  -3  -3    2.04    0.40
   9   3   3    1.32    0.30
  -3  12   3    0.75    0.50
   9 -12  -3    1.68    0.44
  12  -9   3    1.03    0.32
   3   9  -3    0.96    0.42
 -12   9   3    1.44    0.45
   9   3   3    1.59    0.45
  10 -12   3    0.15    0.19
  12  -2   3    0.20    0.28
   2  10   3    0.11    0.17
  -2  12  -3    0.17    0.33
 -12  10  -3    0.00    0.19
  12 -10  -3    0.16    0.23
   2 -12  -3    0.40    0.28
   2  10   3    0.28    0.41
  10   2  -3    0.10    0.12
  12  -2   3   -0.11    0.13
 -10  12   3   -0.01    0.21
  10   2  -3    0.17    0.32
  10   2   3    0.45    0.30
 -10  12  -3    0.39    0.25
  12 -10   3    0.07    0.19
  10   2   3   -0.02    0.14
  10 -12  -3    0.27    0.25
   2  10  -3    0.11    0.28
 -12  10   3    0.52    0.30
  -2  12   3   -0.06    0.45
  12  -2  -3    0.16    0.15
  12  -2  -3    0.09    0.32
  -1  12  -3    2.15    0.62
  12  -1   3    1.82    0.34
  12  -1   3    1.37    0.44
   1  11   3    1.02    0.49
 -11  12   3    1.13    0.43
  12 -11  -3    2.18    0.51
  11   1  -3    2.12    0.35
   1  11   3    1.53    0.33
 -12  11  -3    2.21    0.46
  11 -12   3    1.46    0.37
  11   1  -3    1.69    0.50
  12 -11   3    1.51    0.38
 -12  11   3    1.89    0.52
  11   1   3    1.40    0.43
   1  11  -3    2.51    0.64
  11   1   3    0.98    0.27
 -11  12  -3    2.13    0.56
  12  -1  -3    1.56    0.34
  11 -12  -3    1.67    0.45
  12  -1  -3    1.95    0.57
  -1  12   3    2.11    0.67
  12   0   3   -0.35    0.22
  12   0  -3    0.17    0.14
   0  12   3    0.78    0.41
  12 -12   3   -0.09    0.20
   0  12  -3   -0.13    0.20
   0  12   3    0.03    0.18
 -12  12  -3   -0.23    0.20
 -12  12   3    0.24    0.28
  12 -12  -3   -0.09    0.20
  12   0   3    0.31    0.19
  12   0  -3    0.59    0.38
   6   7   3    0.85    0.27
   6 -13  -3    1.35    0.42
  13  -6   3    1.03    0.30
   6   7   3    0.91    0.40
  -6  13  -3    0.95    0.52
  -7  13   3    1.07    0.48
  13  -7  -3    1.22    0.49
   7   6  -3    1.35    0.47
 -13   7  -3    1.34    0.38
   7 -13   3    0.80    0.26
  13  -7  -3    0.80    0.32
  13  -6   3    0.99    0.36
  -6  13   3    0.73    0.42
   7   6   3    0.65    0.35
   6   7  -3    1.04    0.45
  -7  13  -3    1.50    0.54
   7 -13  -3    1.93    0.45
   7   6   3    1.09    0.27
   6 -13   3    1.24    0.28
  13  -6  -3    1.43    0.39
  13  -6  -3    1.67    0.53
  13  -7   3    0.93    0.29
   5 -13  -3   11.35    0.97
  13  -8  -3   11.45    0.95
  -5  13  -3   10.97    1.43
   5   8   3   12.60    0.82
   8 -13   3   11.12    0.81
  -8  13   3    9.95    1.30
  13  -5   3   13.19    0.84
   5   8   3   12.13    1.26
 -13   8  -3   11.45    0.90
  13  -5   3   12.35    1.01
   8   5  -3   12.68    1.29
  13  -8   3   11.58    0.89
   8   5   3    9.52    1.07
   8   5   3   11.69    0.78
  13  -5  -3   11.53    1.27
  -8  13  -3   10.57    1.32
  -5  13   3   12.60    1.59
  13  -5  -3   10.82    0.88
   8 -13  -3   12.77    1.02
   5   8  -3   12.45    1.27
   9   4  -3    0.67    0.39
  -4  13  -3    1.04    0.48
  13  -4   3    1.09    0.38
 -13   9  -3    0.90    0.30
  13  -4   3    0.55    0.24
   4 -13  -3    0.77    0.31
   9 -13   3    0.62    0.27
  -9  13   3   -0.02    0.25
   4   9   3    0.65    0.40
  13  -9  -3    0.36    0.28
   9   4  -3    0.44    0.18
   4   9   3    0.43    0.21
   9 -13  -3    0.60    0.34
   9   4   3    0.73    0.37
  13  -4  -3    0.70    0.42
   4   9  -3    1.30    0.47
  -9  13  -3    0.98    0.46
   9   4   3    0.81    0.25
  13  -9   3    0.69    0.32
  13  -4  -3    0.85    0.30
 -13   9   3    0.64    0.34
  -4  13   3    0.64    0.46
  10   3  -3    5.58    0.92
  10   3  -3    5.17    0.52
  13  -3   3    5.66    0.57
 -10  13   3    6.04    0.98
  13  -3   3    5.03    0.75
   3 -13  -3    5.21    0.73
   3  10   3    6.36    0.64
 -13  10  -3    5.37    0.71
   3  10   3    5.94    0.96
  10 -13   3    5.34    0.66
  13 -10  -3    6.29    0.84
  -3  13  -3    4.78    0.93
 -10  13  -3    4.41    0.83
 -13  10   3    5.52    0.85
  -3  13   3    7.75    1.29
  13  -3  -3    5.75    0.69
   3  10  -3    3.42    0.71
  13  -3  -3    6.56    0.98
  10 -13  -3    6.44    0.84
  10   3   3    6.79    0.90
  13 -10   3    7.24    0.77
  10   3   3    5.80    0.56
  -2  13  -3    3.87    0.85
 -13  11  -3    3.33    0.58
  11 -13   3    4.22    0.61
 -11  13   3    3.98    0.78
  13 -11  -3    3.28    0.63
  11   2  -3    2.90    0.70
   2  11   3    4.23    0.56
   2  11   3    4.44    0.90
  13  -2   3    3.80    0.48
  11   2  -3    3.27    0.45
   2 -13  -3    2.88    0.60
  13  -2   3    3.44    0.67
   2  11  -3    2.70    0.67
  13  -2  -3    4.78    0.82
  11   2   3    3.29    0.66
  11 -13  -3    3.69    0.65
  13 -11   3    4.64    0.65
  11   2   3    3.46    0.45
  -2  13   3    4.48    1.00
 -13  11   3    3.73    0.70
  13  -2  -3    2.90    0.48
 -11  13  -3    3.10    0.64
 -12  13   3    8.83    1.17
  13 -12  -3    9.34    1.02
  12   1  -3    8.05    0.67
  13  -1   3    7.66    1.00
  12   1  -3    8.54    1.16
  13  -1   3    8.70    0.65
 -13  12  -3    8.01    0.97
  12 -13   3   10.00    0.83
   1  12   3    8.47    0.72
   1  12   3   10.37    1.45
  -1  13  -3    7.67    1.19
  12   1   3    9.94    1.12
  13  -1  -3    8.42    1.17
  12 -13  -3    9.88    1.06
  13 -12   3   10.08    0.85
   1  12  -3    8.45    1.19
  -1  13   3    9.77    0.79
  12   1   3    8.59    0.67
 -13  12   3    9.26    1.16
 -12  13  -3    8.80    1.10
  -1  13   3   11.18    1.54
  13  -1  -3    7.91    0.78
   0  13  -3    0.19    0.34
   0  13   3   -0.03    0.39
  13 -13   3    0.15    0.25
 -13  13   3   -0.28    0.22
   0  13   3   -0.14    0.18
  13 -13  -3    0.02    0.25
 -13  13  -3   -0.01    0.23
  13   0  -3   -0.01    0.28
  13   0   3   -0.08    0.13
  13   0   3    0.42    0.34
  13   0  -3    0.24    0.18
   7   7  -3    0.23    0.33
  14  -7   3    0.20    0.18
  14  -7  -3    0.34    0.27
  14  -7  -3    0.52    0.36
   7   7   3    0.16    0.17
   7 -14  -3    0.57    0.34
  -7  14   3    0.51    0.45
  -7  14  -3    0.28    0.43
   7 -14   3    0.13    0.20
   7   7   3    0.09    0.33
   6   8   3    0.95    0.28
 -14   8  -3    0.46    0.27
  -6  14  -3    0.69    0.45
   6 -14  -3    0.59    0.33
  -8  14   3    1.26    0.50
  14  -6   3    1.11    0.32
  14  -8  -3    0.85    0.45
   6   8   3    0.82    0.38
  14  -8  -3    0.73    0.32
   8   6  -3    0.44    0.38
   8 -14   3    0.51    0.24
  14  -6   3    0.55    0.38
  -6  14   3    0.39    0.40
   8 -14  -3    1.22    0.43
  14  -8   3    0.68    0.33
   8   6   3    1.11    0.28
  -8  14  -3    1.22    0.51
   6   8  -3   -0.04    0.32
  14  -6  -3    1.01    0.45
   8   6   3    0.79    0.40
  14  -6  -3    0.39    0.27
  -9  14   3    4.90    0.89
   5 -14  -3    4.63    0.71
  14  -5   3    4.62    0.58
 -14   9  -3    5.32    0.68
   5   9   3    4.23    0.81
  -5  14  -3    5.19    0.98
  14  -9  -3    3.87    0.68
   5   9   3    5.02    0.57
   9   5  -3    3.41    0.75
   9 -14   3    5.07    0.64
  14  -5   3    4.87    0.75
  -9  14  -3    4.55    0.87
  14  -5  -3    5.49    0.90
   9   5   3    4.74    0.79
   9   5   3    4.79    0.53
  14  -9   3    4.62    0.66
   9 -14  -3    4.19    0.72
  -5  14   3    4.29    0.97
  14  -5  -3    4.68    0.67
 -14   9   3    4.53    0.79
   5   9  -3    5.66    0.91
  14  -4   3    1.34    0.44
 -10  14   3    1.33    0.46
  14  -4   3    1.06    0.29
  10   4  -3    1.16    0.49
  10 -14   3    1.35    0.36
 -14  10  -3    1.44    0.36
  -4  14  -3    1.08    0.55
   4  10   3    0.38    0.22
   4  10   3    0.86    0.43
  14 -10  -3    1.50    0.40
   4 -14  -3    0.99    0.38
   4  10  -3    1.00    0.43
  14 -10   3    1.71    0.44
  14  -4  -3    0.39    0.37
  10 -14  -3    0.28    0.29
  -4  14   3    0.44    0.49
  10   4   3    0.64    0.22
 -10  14  -3    1.60    0.50
  10   4   3    1.52    0.50
 -14  10   3    1.05    0.46
  14  -4  -3    0.76    0.32
   3 -14  -3    1.46    0.42
 -11  14   3    1.50    0.54
   3  11   3    1.93    0.58
   3  11   3    2.00    0.38
  14  -3   3    1.96    0.50
  14  -3   3    1.71    0.35
  -3  14  -3    1.24    0.57
  11 -14   3    1.60    0.42
  14 -11  -3    1.96    0.53
 -14  11  -3    1.05    0.34
  11   3  -3    1.39    0.28
  11   3  -3    1.99    0.58
  11   3   3    2.09    0.36
  14  -3  -3    1.45    0.37
  11   3   3    1.12    0.46
 -11  14  -3    0.27    0.40
  11 -14  -3    1.40    0.44
 -14  11   3    2.20    0.58
   3  11  -3    1.14    0.47
  14  -3  -3    1.31    0.51
  14 -11   3    1.59    0.42
  -3  14   3    2.65    0.85
  12   2  -3    4.41    0.88
   2  12   3    3.60    0.88
 -14  12  -3    4.12    0.67
   2 -14  -3    4.51    0.71
  -2  14  -3    4.00    0.91
  12 -14   3    4.40    0.66
  14  -2   3    3.92    0.51
  14  -2   3    4.70    0.77
 -12  14   3    2.83    0.71
  14 -12  -3    4.53    0.75
  12   2  -3    3.90    0.50
  14  -2  -3    5.15    0.91
  14 -12   3    3.65    0.61
  12 -14  -3    4.33    0.76
  14  -2  -3    3.68    0.57
  12   2   3    3.77    0.48
 -12  14  -3    4.20    0.75
  12   2   3    3.41    0.71
 -14  12   3    4.21    0.79
  -2  14   3    3.15    0.86
   2  12  -3    3.74    0.79
  -1  14  -3    1.18    0.51
  14  -1   3    0.48    0.22
 -14  13  -3    0.07    0.29
  13 -14   3    0.34    0.26
  13   1  -3    0.26    0.37
   1  13   3   -0.06    0.37
  13   1  -3    1.25    0.30
 -13  14   3    0.40    0.34
  14  -1   3    0.22    0.38
  14 -13  -3    0.38    0.33
  13 -14  -3    0.28    0.31
  -1  14   3    0.91    0.55
 -14  13   3    0.70    0.39
 -13  14  -3    0.29    0.31
   1  13  -3    0.50    0.38
  14  -1  -3    0.83    0.29
  13   1   3    0.92    0.44
  13   1   3    0.61    0.22
  14 -13   3    0.78    0.33
  14  -1  -3    1.62    0.55
  14 -14   3    0.04    0.26
  14   0   3    0.18    0.19
  14   0  -3   -0.07    0.17
  14 -14  -3   -0.11    0.28
  14   0  -3   -0.41    0.29
 -14  14  -3    0.11    0.29
   0  14  -3    0.27    0.41
 -14  14   3   -0.13    0.26
   0  14   3   -0.55    0.40
  14   0   3    0.43    0.35
 -15   8  -3    4.40    0.67
   7   8   3    4.23    0.77
   8   7  -3    5.10    0.91
  -8  15   3    5.37    1.07
   8 -15   3    4.85    0.61
  15  -8  -3    6.49    1.04
  15  -7   3    3.54    0.59
  -7  15  -3    3.54    0.86
   7   8   3    4.13    0.52
  15  -7   3    4.61    0.77
   7 -15  -3    5.48    0.77
  15  -8  -3    4.68    0.74
  -7  15   3    3.75    0.90
  15  -7  -3    6.34    1.02
   7   8  -3    5.17    0.89
  15  -8   3    5.18    0.71
   8   7   3    5.79    0.90
  -8  15  -3    5.37    1.01
   8   7   3    3.74    0.50
   8 -15  -3    4.67    0.77
  15  -7  -3    5.17    0.75
   9 -15   3    5.93    0.69
 -15   9  -3    4.99    0.71
   9   6  -3    5.53    0.94
  -6  15  -3    6.91    1.18
  15  -6   3    5.69    0.69
  15  -6   3    6.71    0.90
   6   9   3    5.76    0.93
   6   9   3    4.45    0.57
  -9  15   3    6.61    1.15
  15  -9  -3    5.10    0.78
   6 -15  -3    5.40    0.79
   9   6   3    6.73    0.94
  -9  15  -3    7.18    1.19
   9   6   3    6.36    0.61
  15  -6  -3    6.34    1.02
 -15   9   3    7.31    1.02
  15  -9   3    6.30    0.80
   6   9  -3    5.74    0.96
  -6  15   3    8.07    1.37
   9 -15  -3    7.11    0.94
  15  -6  -3    5.42    0.75
   5 -15  -3    0.63    0.31
   5  10   3    0.49    0.36
 -15  10  -3    0.76    0.29
   5  10   3    0.47    0.23
  15 -10  -3    0.22    0.26
  15  -5   3   -0.13    0.20
  10   5  -3    0.67    0.42
  -5  15  -3    0.37    0.37
  10 -15   3    0.39    0.25
  15  -5   3    0.78    0.38
 -10  15   3    0.35    0.35
  10   5   3    0.00    0.16
  10 -15  -3    0.42    0.34
 -10  15  -3    0.38    0.35
  -5  15   3    0.42    0.46
 -15  10   3    0.65    0.38
  15  -5  -3    0.61    0.38
  10   5   3    0.83    0.35
  15  -5  -3    0.38    0.28
  15 -10   3    0.79    0.37
   5  10  -3   -0.33    0.26
  -4  15  -3    7.75    1.28
 -11  15   3    4.80    1.09
  11 -15   3    5.96    0.76
 -15  11  -3    6.87    0.86
  15  -4   3    5.87    0.88
  15  -4   3    6.01    0.67
   4  11   3    6.42    1.06
  11   4  -3    7.55    1.13
  15 -11  -3    8.18    1.01
   4 -15  -3    4.49    0.74
  15 -11   3    5.90    0.79
  15  -4  -3    7.19    1.09
 -11  15  -3    7.99    1.20
  15  -4  -3    7.48    0.84
  11   4   3    5.76    0.59
 -15  11   3    6.64    0.99
   4  11  -3    5.82    0.98
  -4  15   3    6.77    1.32
  11   4   3    6.74    0.96
  11 -15  -3    5.94    0.89
  15 -12  -3    1.27    0.45
  12   3  -3    0.91    0.53
  -3  15  -3    0.45    0.50
  15  -3   3    1.71    0.51
 -12  15   3    2.06    0.59
   3  12   3    2.04    0.63
  15  -3   3    1.73    0.36
  12 -15   3    1.50    0.41
 -15  12  -3    1.60    0.41
  12 -15  -3    1.99    0.54
  12   3   3    1.58    0.32
  15  -3  -3    1.89    0.59
  -3  15   3    2.33    0.78
 -12  15  -3    1.42    0.49
   3  12  -3    1.38    0.52
  15 -12   3    2.18    0.48
  15  -3  -3    1.57    0.40
  12   3   3    3.26    0.64
 -15  12   3    1.44    0.51
 -13  15   3    1.55    0.62
  13 -15   3    3.12    0.62
  13   2  -3    1.82    0.64
  15  -2   3    3.07    0.63
   2  13   3    3.19    0.84
 -15  13  -3    1.91    0.51
  15 -13  -3    1.25    0.46
  15  -2   3    2.04    0.40
  -2  15  -3    1.74    0.62
  13   2   3    2.07    0.38
  15  -2  -3    2.36    0.47
  -2  15   3    3.65    0.91
   2  13  -3    1.74    0.59
  13   2   3    1.74    0.56
 -15  13   3    1.43    0.56
  15  -2  -3    1.51    0.59
 -13  15  -3    1.96    0.57
  15 -13   3    2.20    0.52
  13 -15  -3    1.36    0.50
 -14  15   3    0.81    0.45
  14   1  -3    1.15    0.32
  14   1  -3    1.28    0.50
 -15  14  -3    1.15    0.49
  14 -15   3    0.51    0.35
  15  -1   3    1.11    0.31
   1  14   3    1.44    0.64
  15 -14  -3    1.60    0.49
  15  -1   3    1.09    0.44
  -1  15  -3    1.07    0.54
 -15  14   3    1.29    0.46
  15 -14   3    1.32    0.45
  14 -15  -3    1.74    0.55
  15  -1  -3    0.91    0.44
   1  14  -3    1.94    0.66
  -1  15   3    0.56    0.53
  15  -1  -3    1.03    0.32
  14   1   3    1.33    0.50
 -14  15  -3    1.16    0.42
  14   1   3    1.21    0.30
  15   0  -3   -0.11    0.35
  15   0   3    0.35    0.35
   0  15  -3   -0.11    0.35
 -15  15  -3   -0.06    0.46
  15 -15  -3    0.13    0.27
 -15  15   3   -0.29    0.29
  15 -15   3    0.11    0.31
  15   0   3    0.00    0.16
  15   0  -3    0.13    0.18
   0  15   3    0.28    0.55
   8   8   3    4.22    0.54
  16  -8   3    4.97    0.71
  16  -8  -3    3.86    0.68
  16  -8  -3    6.16    1.04
  -8  16  -3    6.12    1.16
   8 -16  -3    5.34    0.82
   8   8  -3    5.24    0.95
  -8  16   3    4.23    1.01
   8   8   3    3.83    0.86
 -16   8  -3    4.88    0.74
   7   9   3    1.53    0.53
   7 -16  -3    0.83    0.40
  16  -9  -3    1.49    0.46
  16  -7   3    1.46    0.49
  -9  16   3    1.51    0.60
  -7  16  -3    1.14    0.58
  16  -7   3    0.94    0.40
   9   7  -3    1.90    0.59
 -16   9  -3    1.06    0.38
   9 -16  -3    0.53    0.36
  16  -9   3    1.50    0.44
  16  -7  -3    0.54    0.44
  -9  16  -3    1.39    0.56
   9   7   3    1.00    0.28
  -7  16   3    1.11    0.58
   9   7   3    2.05    0.57
  16  -7  -3    1.33    0.40
   7   9  -3    1.77    0.57
  -6  16  -3   -0.25    0.37
  16  -6   3    0.24    0.20
  16 -10  -3    0.41    0.30
  10   6  -3   -0.06    0.32
   6 -16  -3    0.01    0.26
 -16  10  -3    0.28    0.26
  16  -6   3   -0.14    0.30
   6  10   3    0.29    0.33
  10 -16   3   -0.25    0.19
 -10  16   3    0.53    0.36
 -16  10   3    0.09    0.31
  -6  16   3    0.48    0.48
  10   6   3    0.43    0.22
  16  -6  -3    0.19    0.38
   6  10  -3    0.59    0.36
 -10  16  -3   -0.37    0.32
  10 -16  -3    0.68    0.38
  16 -10   3    0.49    0.33
  10   6   3    0.19    0.32
  16  -6  -3    0.07    0.21
  11   5  -3    1.71    0.56
  16  -5   3    1.32    0.50
  -5  16  -3    1.32    0.60
  16 -11  -3    0.66    0.34
   5 -16  -3    0.64    0.35
 -11  16   3    0.90    0.42
   5  11   3    1.07    0.44
  16  -5   3    0.74    0.31
 -16  11  -3    1.20    0.40
  11 -16   3    1.46    0.43
 -11  16  -3    1.80    0.58
  11   5   3    0.93    0.26
  11 -16  -3    1.17    0.43
 -16  11   3    1.39    0.53
  16 -11   3    0.74    0.35
  11   5   3    1.29    0.47
  -5  16   3    0.94    0.53
  16  -5  -3    0.68    0.32
   5  11  -3    0.62    0.38
  16  -5  -3    0.73    0.44
  -4  16  -3    7.39    1.33
   4  12   3   11.32    1.46
 -12  16   3    8.14    1.36
  16  -4   3    9.41    1.14
  12 -16   3    9.49    0.96
  16  -4   3    7.76    0.82
 -16  12  -3    9.95    1.08
  12   4  -3   10.37    1.35
  16 -12  -3    9.01    1.12
  16  -4  -3    8.29    0.93
 -16  12   3    8.53    1.16
  12   4   3    8.61    1.15
  -4  16   3    9.48    1.60
  16  -4  -3   11.31    1.42
  12   4   3    8.37    0.66
   4  12  -3    7.52    1.18
  16 -12   3    8.28    0.98
 -12  16  -3   11.99    1.49
  12 -16  -3    9.03    1.12
 -16  13  -3    1.70    0.47
 -13  16   3    0.80    0.48
  13 -16   3    2.52    0.54
  16 -13  -3    1.58    0.51
  16  -3   3    2.42    0.56
  -3  16  -3    1.58    0.72
   3  13   3    3.00    0.79
  16  -3   3    2.41    0.44
  13   3  -3    3.11    0.77
 -16  13   3    2.20    0.62
  -3  16   3    2.72    0.90
  16  -3  -3    2.94    0.76
  16  -3  -3    1.73    0.43
   3  13  -3    1.10    0.58
  13 -16  -3    2.07    0.54
  13   3   3    2.59    0.66
  16 -13   3    2.36    0.54
 -13  16  -3    1.86    0.58
  13   3   3    2.26    0.41
  16 -14  -3   -0.07    0.28
 -14  16   3    0.29    0.40
 -16  14  -3   -0.21    0.27
  14 -16   3   -0.20    0.24
  -2  16  -3    0.24    0.44
  14   2  -3   -0.36    0.33
  16  -2   3    0.32    0.21
   2  14   3   -0.33    0.36
  16  -2   3   -0.27    0.32
  16 -14   3   -0.08    0.26
   2  14  -3   -0.29    0.30
  14   2   3    0.12    0.16
  14   2   3    0.49    0.40
  14 -16  -3    0.17    0.31
 -14  16  -3    0.37    0.35
  -2  16   3    0.80    0.55
  16  -2  -3    0.29    0.35
 -16  14   3    0.65    0.43
  16  -2  -3    0.10    0.20
  16 -15  -3    6.04    0.99
  -1  16  -3    5.37    1.11
  15 -16   3    7.73    0.97
  15   1  -3    8.78    1.31
   1  15   3    6.50    1.24
 -16  15  -3    6.98    1.04
  16  -1   3    7.27    0.73
  16  -1   3    7.62    1.09
 -15  16   3    6.53    1.15
 -15  16  -3    6.26    1.02
  15   1   3    7.34    1.08
  15 -16  -3    7.02    1.04
   1  15  -3    5.11    1.04
  15   1   3    7.59    0.63
  -1  16   3    7.73    1.44
  16  -1  -3    4.86    0.72
  16 -15   3    7.49    0.95
  16  -1  -3    8.50    1.29
 -16  15   3    5.72    1.04
   0  16   3    0.62    0.55
  16   0   3    0.25    0.21
   0  16  -3    0.11    0.39
  16   0  -3    0.00    0.39
  16 -16  -3    0.23    0.34
 -16  16  -3   -0.19    0.35
  16   0  -3    0.30    0.24
  16   0   3    0.17    0.40
  16 -16   3    0.21    0.35
 -16  16   3    0.24    0.38
  -9  17   3    0.67    0.52
  17  -9  -3    0.34    0.31
   8   9   3    0.60    0.51
   8 -17  -3    0.38    0.39
   9   8  -3    1.00    0.51
  17  -8   3    0.79    0.36
 -17   9  -3    0.83    0.41
  -8  17  -3    0.93    0.52
   8   9  -3    0.82    0.47
  -9  17  -3    0.83    0.51
  17  -9   3    0.45    0.35
   9   8   3   -0.27    0.32
  17  -8  -3    0.00    0.42
  -8  17   3    0.64    0.52
  17  -8  -3    0.50    0.34
   9 -17  -3    0.77    0.37
  17 -10  -3    2.35    0.57
  -7  17  -3    1.86    0.71
   7 -17  -3    1.72    0.47
   7  10   3    0.76    0.44
  10   7  -3    1.41    0.56
 -10  17   3    1.10    0.58
 -17  10  -3    1.38    0.43
  17  -7   3    1.25    0.45
  -7  17   3    1.85    0.70
  17  -7  -3    2.75    0.74
  10 -17  -3    1.89    0.53
  10   7   3    1.39    0.50
 -17  10   3    1.62    0.59
   7  10  -3    1.36    0.56
 -10  17  -3    2.80    0.79
  17  -7  -3    1.84    0.50
  17 -10   3    2.02    0.52
 -11  17   3    2.69    0.81
  11   6  -3    1.85    0.64
   6  11   3    2.89    0.75
 -17  11  -3    4.02    0.68
  17  -6   3    2.71    0.57
  17 -11  -3    2.14    0.57
  -6  17  -3    1.67    0.68
  17  -6  -3    3.07    0.80
  17 -11   3    2.26    0.56
 -17  11   3    2.40    0.68
   6  11  -3    2.78    0.73
  11 -17  -3    3.57    0.72
  11   6   3    3.16    0.72
 -11  17  -3    1.88    0.68
  11   6   3    3.38    0.46
  17  -6  -3    2.68    0.58
  -6  17   3    4.67    1.11
 -17  12  -3    1.64    0.47
  17  -5   3    1.43    0.40
 -12  17   3    1.62    0.63
  17 -12  -3    1.22    0.49
  12 -17   3    1.25    0.39
  12   5  -3    1.37    0.55
  -5  17  -3    0.71    0.52
   5  12   3    1.07    0.53
  12 -17  -3    0.96    0.44
  12   5   3    1.46    0.31
  17 -12   3    1.09    0.42
  17  -5  -3    1.74    0.45
 -12  17  -3    1.99    0.65
 -17  12   3    1.58    0.55
   5  12  -3    1.24    0.49
  17  -5  -3    0.57    0.48
  12   5   3    1.20    0.45
  -5  17   3    3.26    0.93
  13   4  -3    5.01    1.04
  17 -13  -3    4.21    0.82
 -17  13  -3    4.67    0.78
   4  13   3    4.96    1.00
  17  -4   3    4.24    0.64
  13 -17   3    6.10    0.85
  -4  17  -3    5.84    1.17
 -13  17   3    5.96    1.14
  13   4   3    6.03    0.98
 -17  13   3    5.03    0.93
  17 -13   3    5.92    0.86
  13 -17  -3    5.54    0.89
  13   4   3    5.59    0.59
  17  -4  -3    4.82    0.93
 -13  17  -3    4.66    0.94
  17  -4  -3    5.25    0.78
  -4  17   3    6.33    1.36
   4  13  -3    3.34    0.82
   3  14   3    0.55    0.48
 -14  17   3    1.86    0.62
  17  -3   3    1.16    0.39
 -17  14  -3    1.11    0.40
  14 -17   3    1.56    0.48
  14   3  -3    1.86    0.65
  -3  17  -3    2.09    0.69
  17 -14  -3    1.10    0.46
  14 -17  -3    2.66    0.62
  -3  17   3    1.81    0.78
   3  14  -3    0.17    0.42
  17  -3  -3    0.80    0.47
 -14  17  -3    1.35    0.55
  17 -14   3    2.01    0.54
  14   3   3    1.05    0.28
 -17  14   3    1.13    0.50
  17  -3  -3    0.60    0.34
  14   3   3    1.51    0.60
  -2  17  -3    0.33    0.38
  17 -15  -3    0.32    0.35
  15   2  -3   -0.73    0.32
   2  15   3    0.03    0.42
  15 -17   3    0.06    0.30
  17  -2   3   -0.22    0.20
 -15  17   3    0.05    0.38
 -17  15  -3   -0.10    0.34
  15 -17  -3    0.62    0.36
 -17  15   3    0.27    0.37
   2  15  -3   -0.14    0.35
  17 -15   3    0.45    0.37
  -2  17   3   -0.33    0.41
  17  -2  -3   -0.35    0.34
  15   2   3    0.64    0.25
  17  -2  -3    0.19    0.22
  15   2   3    0.58    0.40
 -15  17  -3   -0.17    0.36
  -1  17  -3    1.93    0.70
  17  -1   3    2.35    0.45
 -17  16  -3    2.02    0.54
   1  16   3    2.29    0.79
  16   1  -3    3.60    0.92
  17 -16  -3    1.96    0.59
 -16  17   3    1.75    0.65
  16 -17   3    2.11    0.56
  16   1   3    2.86    0.48
  16 -17  -3    4.38    0.87
  -1  17   3    1.66    0.84
  17 -16   3    2.74    0.63
  17  -1  -3    3.27    0.84
 -17  16   3    2.00    0.67
  17  -1  -3    3.14    0.55
  16   1   3    2.78    0.62
   1  16  -3    3.24    0.84
 -16  17  -3    2.43    0.69
   0  17   3   -0.43    0.46
  17 -17  -3    0.09    0.31
 -17  17   3   -0.06    0.37
  17 -17   3    0.35    0.34
 -17  17  -3    0.24    0.42
  17   0  -3   -0.84    0.37
  17   0   3   -0.06    0.18
   0  17  -3   -0.53    0.34
   9   9  -3    0.94    0.52
  18  -9  -3    0.40    0.32
  18  -9   3    0.63    0.37
   9   9   3    0.57    0.44
  -9  18   3    0.38    0.47
  -9  18  -3   -0.18    0.44
  18  -9  -3    0.51    0.49
   9 -18  -3    0.17    0.35
  18  -8   3    1.33    0.46
  18 -10  -3    0.91    0.41
 -10  18   3    1.09    0.59
  10   8  -3    0.65    0.48
   8  10   3    0.84    0.46
  -8  18  -3    1.13    0.60
  18 -10   3    0.92    0.41
 -10  18  -3    0.80    0.54
 -18  10   3    0.83    0.48
  -8  18   3    1.33    0.71
  18  -8  -3    0.61    0.48
  10 -18  -3    1.19    0.42
  10   8   3    0.97    0.42
  18  -8  -3    0.71    0.36
   8  10  -3    0.66    0.47
 -11  18   3    3.15    0.90
  18  -7   3    2.50    0.58
  11   7  -3    1.87    0.60
  18 -11  -3    1.65    0.52
   7  11   3    2.21    0.63
  -7  18  -3    2.11    0.73
  18 -11   3    1.90    0.51
  18  -7  -3    1.43    0.43
 -11  18  -3    1.48    0.66
  18  -7  -3    2.21    0.64
  11 -18  -3    0.97    0.43
   7  11  -3    2.49    0.74
 -18  11   3    2.89    0.70
  11   7   3    2.94    0.69
  -7  18   3    2.55    0.91
  18 -12  -3    1.38    0.51
  12   6  -3    2.41    0.66
  18  -6   3    2.19    0.56
  -6  18  -3   -0.02    0.43
 -12  18   3    1.25    0.63
   6  12   3    2.19    0.64
  12 -18  -3    1.91    0.58
  -6  18   3    1.25    0.67
 -12  18  -3    2.74    0.79
  12   6   3    2.19    0.59
  18  -6  -3    1.38    0.45
  18  -6  -3    3.04    0.73
  18 -12   3    2.65    0.59
 -18  12   3    1.91    0.60
   6  12  -3    2.18    0.70
  -5  18  -3    0.82    0.54
  18  -5   3    0.46    0.36
  18 -13  -3    0.06    0.31
 -13  18   3   -0.31    0.40
   5  13   3   -0.44    0.34
  13   5  -3    0.33    0.40
  13 -18   3   -0.53    0.23
  18  -5  -3    1.98    0.65
   5  13  -3    1.04    0.49
  13 -18  -3    0.59    0.41
  18 -13   3    0.45    0.30
  -5  18   3    0.54    0.50
 -18  13   3    0.11    0.32
  13   5   3   -0.26    0.37
  18  -5  -3    0.64    0.33
 -13  18  -3   -0.25    0.41
 -14  18   3    1.57    0.60
  -4  18  -3    1.42    0.66
  14 -18   3    1.53    0.53
   4  14   3    1.21    0.61
  18 -14  -3    1.13    0.50
  18  -4   3    1.11    0.35
  14   4  -3    1.64    0.65
  18 -14   3    1.30    0.48
  18  -4  -3    1.88    0.49
   4  14  -3    1.19    0.57
 -18  14   3    1.03    0.50
  14   4   3    0.95    0.49
  14   4   3    0.84    0.27
  14 -18  -3    1.16    0.44
  -4  18   3    1.27    0.68
 -14  18  -3    1.90    0.64
  18  -4  -3    2.00    0.65
 -15  18   3    5.26    1.25
  18  -3   3    3.27    0.58
  18 -15  -3    3.65    0.82
  -3  18  -3    4.10    0.99
   3  15   3    3.02    0.83
  15 -18   3    4.35    0.75
  15   3  -3    5.20    1.03
   3  15  -3    3.90    0.91
  15   3   3    3.98    0.52
  15 -18  -3    2.56    0.68
  15   3   3    4.80    0.89
  18  -3  -3    2.74    0.59
  -3  18   3    3.10    0.99
  18 -15   3    4.55    0.78
 -18  15   3    3.28    0.81
  18  -3  -3    4.23    0.91
 -15  18  -3    4.17    0.89
  18  -2   3    0.60    0.30
 -16  18   3    0.60    0.48
  16   2  -3    0.94    0.52
  16 -18   3    1.51    0.47
  18 -16  -3    0.53    0.43
   2  16   3    1.07    0.58
  -2  18  -3    0.73    0.53
  -2  18   3    1.17    0.62
  16   2   3    0.63    0.48
  18 -16   3    1.24    0.47
  18  -2  -3    0.53    0.48
 -16  18  -3    0.91    0.51
  18  -2  -3    0.86    0.33
  16 -18  -3    0.28    0.39
  16   2   3    0.90    0.28
 -18  16   3    1.09    0.54
   2  16  -3    0.60    0.48
 -17  18   3   -0.14    0.41
  -1  18  -3   -0.22    0.39
  17 -18   3   -0.15    0.31
  17   1  -3    0.02    0.42
  18 -17  -3   -0.07    0.32
  18  -1   3    0.24    0.24
   1  17   3    0.09    0.44
 -17  18  -3    0.67    0.46
   1  17  -3    0.85    0.48
  17 -18  -3   -0.02    0.35
 -18  17   3   -0.09    0.36
  -1  18   3    0.52    0.57
  17   1   3    0.16    0.19
  18  -1  -3    0.36    0.43
  18 -17   3    0.67    0.39
  18 -18   3   -0.36    0.24
  18   0  -3   -0.97    0.42
  18   0   3    0.15    0.23
  18 -18  -3    0.48    0.33
   0  18  -3    0.18    0.40
 -18  18   3   -0.48    0.37
   0  18   3    1.18    0.64
  19  -9   3    0.09    0.32
  19 -10  -3    0.50    0.32
  -9  19  -3    0.62    0.52
  10   9  -3    0.86    0.51
   9  10   3    1.05    0.55
 -10  19   3    0.85    0.61
  19  -9  -3    0.76    0.51
  10 -19  -3    0.69    0.38
 -19  10   3    1.09    0.58
  10   9   3    1.07    0.50
 -10  19  -3    2.20    0.75
  19  -9  -3    0.53    0.34
  -9  19   3    0.05    0.52
   9  10  -3    0.42    0.43
  19 -10   3    0.57    0.37
  11   8  -3   -0.09    0.35
  -8  19  -3    0.14    0.54
   8  11   3    0.04    0.39
 -11  19   3    1.44    0.57
  19  -8   3   -0.15    0.28
  19 -11  -3    0.16    0.33
  19  -8  -3   -0.36    0.23
 -19  11   3    0.35    0.43
  11   8   3    0.44    0.41
   8  11  -3   -0.51    0.29
  -8  19   3   -0.10    0.55
  11 -19  -3    0.01    0.37
  19 -11   3   -0.11    0.26
  19  -8  -3    0.58    0.48
 -11  19  -3    0.08    0.42
  12   7  -3    2.02    0.63
 -12  19   3    1.96    0.72
  19 -12  -3    1.33    0.47
  19  -7   3    0.61    0.37
  -7  19  -3    1.48    0.74
   7  12   3    2.05    0.63
 -12  19  -3    2.10    0.70
  19  -7  -3    1.06    0.40
  12   7   3    1.30    0.60
  19 -12   3    1.41    0.46
  12 -19  -3    1.56    0.54
  -7  19   3    1.79    0.78
  19  -7  -3    2.01    0.62
 -19  12   3    1.00    0.50
   7  12  -3    1.30    0.57
 -13  19   3    0.72    0.54
  19 -13  -3    0.03    0.26
  13   6  -3   -0.02    0.39
   6  13   3    0.32    0.45
  -6  19  -3   -0.10    0.42
  19  -6   3    0.41    0.35
  -6  19   3   -0.54    0.47
 -13  19  -3    0.12    0.48
  19  -6  -3   -0.27    0.23
  19  -6  -3    0.64    0.43
   6  13  -3    0.49    0.42
  13 -19  -3   -0.30    0.27
  19 -13   3   -0.13    0.26
  13   6   3    0.12    0.40
 -19  13   3   -0.06    0.31
  14   5  -3   -0.30    0.38
   5  14   3    1.20    0.58
 -14  19   3    0.04    0.40
  -5  19  -3   -0.57    0.42
  19  -5   3   -0.07    0.37
  19 -14  -3    0.07    0.34
  19  -5  -3   -0.23    0.26
  19  -5  -3    1.28    0.56
   5  14  -3    0.41    0.42
 -14  19  -3   -0.26    0.38
  14 -19  -3    0.45    0.39
  14   5   3   -0.42    0.36
 -19  14   3    0.50    0.40
  -5  19   3    0.29    0.52
  19 -14   3    0.34    0.36
 -15  19   3    2.01    0.68
  15   4  -3    2.65    0.77
   4  15   3    1.45    0.58
  15 -19   3    1.58    0.51
  19 -15  -3    2.07    0.63
  19  -4   3    1.07    0.48
  -4  19  -3    2.19    0.72
 -19  15   3    1.25    0.52
 -15  19  -3    2.04    0.64
  19  -4  -3    1.62    0.46
  19  -4  -3    2.39    0.72
  15 -19  -3    2.56    0.63
  19 -15   3    1.83    0.53
   4  15  -3    2.09    0.74
  -4  19   3    2.02    0.82
  15   4   3    1.95    0.66
 -16  19   3    0.63    0.49
   3  16   3    1.93    0.62
  16   3  -3    1.49    0.55
  16 -19   3    0.78    0.36
  -3  19  -3    0.75    0.50
  19  -3   3    0.40    0.38
  19 -16  -3    1.20    0.48
  19  -3  -3   -0.14    0.42
  -3  19   3    0.41    0.49
  19  -3  -3    0.60    0.30
  19 -16   3    0.14    0.32
 -16  19  -3    0.89    0.53
 -19  16   3   -0.40    0.33
  16   3   3    2.35    0.69
   3  16  -3    0.29    0.38
  16 -19  -3    0.50    0.41
  19 -17  -3   -0.43    0.29
   2  17   3    0.27    0.45
  17 -19   3   -0.51    0.30
 -17  19   3   -0.09    0.41
  -2  19  -3   -0.07    0.42
  19  -2   3    0.43    0.30
  17 -19  -3    0.59    0.38
  17   2   3    0.31    0.21
  19 -17   3   -0.50    0.28
  19  -2  -3    1.10    0.48
   2  17  -3    0.17    0.38
 -19  17   3   -0.29    0.37
  -2  19   3    0.17    0.54
  19  -1   3    0.70    0.26
  19 -18  -3   -0.09    0.31
  -1  19  -3   -0.53    0.44
  18   1  -3    0.51    0.46
   1  18   3    0.72    0.49
  18 -19   3   -0.01    0.30
 -18  19   3   -0.23    0.42
   1  18  -3   -0.25    0.38
  -1  19   3   -0.29    0.57
  18 -19  -3    0.04    0.35
  19  -1  -3    0.76    0.50
  18   1   3    0.18    0.23
 -19  18   3   -0.70    0.40
  19 -18   3   -0.11    0.34
 -19  19   3   -0.51    0.42
  19 -19   3    0.18    0.37
   0  19   3   -0.40    0.47
  19 -19  -3   -0.29    0.35
  19   0  -3    1.18    0.51
  19   0   3   -0.32    0.19
   0  19  -3    0.34    0.47
  10  10   3    0.95    0.47
 -10  20  -3    1.52    0.55
  20 -10  -3    1.63    0.49
  10  10  -3    2.04    0.67
  20 -10   3    1.14    0.45
 -20  10   3    1.03    0.63
 -10  20   3    1.40    0.70
 -11  20   3    0.22    0.49
  11   9  -3    0.04    0.40
   9  11   3    0.60    0.42
  20  -9   3    0.24    0.31
  20 -11  -3   -0.11    0.27
  -9  20  -3    0.73    0.50
  20  -9  -3    0.09    0.47
  20  -9  -3   -0.17    0.23
  11   9   3    0.29    0.40
 -11  20  -3   -0.80    0.42
  -9  20   3   -0.79    0.46
 -20  11   3    0.02    0.40
   9  11  -3    0.55    0.51
  20 -11   3   -0.28    0.24
  12   8  -3   -0.14    0.44
 -12  20   3    0.91    0.56
  20 -12  -3   -0.12    0.27
   8  12   3    0.99    0.65
  20  -8   3   -0.05    0.32
  -8  20  -3    0.44    0.49
  20  -8  -3    0.07    0.39
 -12  20  -3    0.14    0.47
  20  -8  -3   -0.27    0.24
   8  12  -3   -0.65    0.30
  12 -20  -3    0.52    0.37
  -8  20   3    0.29    0.54
  12   8   3    1.21    0.47
  20 -12   3    0.42    0.37
 -20  12   3   -0.04    0.39
  20  -7   3   -0.17    0.27
  -7  20  -3   -0.02    0.44
 -13  20   3    0.02    0.49
  20 -13  -3    0.64    0.37
  13   7  -3    0.06    0.42
   7  13   3    0.44    0.40
  13   7   3    0.38    0.39
  20 -13   3    0.26    0.34
  13 -20  -3    0.45    0.32
  20  -7  -3   -0.25    0.23
 -20  13   3   -0.14    0.35
   7  13  -3   -0.44    0.34
  -7  20   3   -0.04    0.53
 -13  20  -3    0.23    0.52
  20  -7  -3    0.92    0.52
  -6  20  -3    0.30    0.46
   6  14   3    0.29    0.47
  20 -14  -3    0.13    0.36
  14   6  -3    0.28    0.43
 -14  20   3   -0.38    0.45
  20  -6   3    0.54    0.37
   6  14  -3    1.28    0.48
  20  -6  -3    0.19    0.26
  -6  20   3    0.19    0.52
  20  -6  -3   -0.23    0.41
 -14  20  -3   -0.19    0.49
  14 -20  -3    0.56    0.38
  20 -14   3   -0.03    0.29
 -20  14   3    0.35    0.36
  14   6   3    1.30    0.49
  20 -15  -3    0.27    0.37
  15   5  -3    0.04    0.48
  20  -5   3    0.60    0.36
   5  15   3    1.16    0.53
  -5  20  -3    0.72    0.51
 -15  20   3    1.08    0.56
 -15  20  -3   -0.46    0.52
  20 -15   3    0.79    0.43
 -20  15   3    0.45    0.42
   5  15  -3    1.15    0.58
  20  -5  -3    0.02    0.25
  15   5   3    0.00    0.41
  20  -5  -3    0.56    0.51
  -5  20   3    0.90    0.70
  15 -20  -3    1.16    0.41
  20 -16  -3   -0.32    0.30
  20  -4   3    0.85    0.41
  16   4  -3    2.10    0.61
  -4  20  -3    0.38    0.48
 -16  20   3   -0.27    0.39
   4  16   3   -0.05    0.44
  20  -4  -3   -0.31    0.46
  -4  20   3   -0.28    0.49
 -16  20  -3    0.72    0.55
  16 -20  -3    0.27    0.38
  20  -4  -3    0.04    0.26
  20 -16   3    0.13    0.37
  16   4   3    0.64    0.49
   4  16  -3   -0.56    0.33
 -20  16   3    0.47    0.40
 -17  20   3    0.25    0.48
  17 -20   3    0.06    0.36
  20  -3   3    0.09    0.36
  -3  20  -3    0.56    0.52
  17   3  -3    0.74    0.52
   3  17   3    0.29    0.49
  20 -17  -3    0.32    0.34
  -3  20   3   -0.84    0.49
 -20  17   3    0.36    0.48
   3  17  -3   -0.64    0.36
  20  -3  -3    0.49    0.50
  20  -3  -3    0.51    0.31
  20 -17   3    0.44    0.40
  17 -20  -3    0.00    0.37
   2  18   3    0.13    0.47
  -2  20  -3   -0.42    0.44
  18 -20   3   -0.02    0.32
 -18  20   3   -0.03    0.77
  18   2  -3   -0.41    0.45
  20 -18  -3    0.26    0.38
  20  -2   3    0.57    0.41
   2  18  -3    0.18    0.43
  20 -18   3   -0.28    0.34
 -20  18   3    0.06    0.42
  -2  20   3    1.24    0.66
  20  -2  -3    0.52    0.48
  18 -20  -3   -0.10    0.36
   1  19   3    0.27    0.53
 -19  20   3    0.13    0.48
  -1  20  -3    0.92    0.62
  20 -19  -3    1.32    0.48
  20  -1   3    1.65    0.56
  19   1  -3   -1.33    0.47
  19 -20   3    0.52    0.36
  20 -19   3    0.08    0.32
  19 -20  -3    0.38    0.39
 -20  19   3    0.94    0.59
   1  19  -3   -0.18    0.43
  20  -1  -3   -0.08    0.53
  -1  20   3    1.33    0.61
   0  20  -3   -0.53    0.38
 -20  20   3   -0.30    0.44
  20 -20  -3    1.30    0.52
  20   0  -3    0.02    0.49
  20 -20   3   -0.20    0.35
   0  20   3   -0.46    0.45
 -10  21  -3   -0.01    0.52
 -21  10   3    0.01    0.50
  21 -11  -3    0.10    0.32
 -11  21   3    0.03    0.56
  11  10  -3    0.30    0.45
  21 -10   3    0.39    0.30
  10  11   3   -0.53    0.31
  21 -10  -3    0.78    0.33
  10  11  -3    0.16    0.40
  21 -11   3   -0.11    0.27
 -10  21   3    0.33    0.63
  11  10   3    0.51    0.45
 -21  11   3   -0.13    0.37
 -11  21  -3    0.16    0.48
  21 -12  -3    0.37    0.34
  -9  21  -3    0.57    0.53
 -12  21   3   -0.52    0.45
   9  12   3   -0.22    0.40
  21  -9   3   -0.29    0.24
  12   9  -3    0.10    0.38
   9  12  -3    0.43    0.41
  21  -9  -3    0.07    0.46
  12   9   3    1.12    0.48
  21 -12   3   -0.17    0.30
 -12  21  -3    0.52    0.56
 -21  12   3    0.04    0.38
  -9  21   3    0.13    0.53
  21  -9  -3   -0.52    0.23
  21  -8   3    2.29    0.59
  21 -13  -3    1.08    0.48
  -8  21  -3    0.64    0.56
   8  13   3    3.08    0.98
  13   8  -3    2.56    0.72
 -13  21   3    1.41    0.64
  -8  21   3    0.43    0.63
  21 -13   3    1.44    0.57
  21  -8  -3    2.25    0.74
  13   8   3    1.52    0.60
  21  -8  -3    1.61    0.48
 -21  13   3    0.93    0.48
 -13  21  -3    2.02    0.71
   8  13  -3    2.03    0.68
 -14  21   3   -0.21    0.47
  21  -7   3    0.01    0.33
  14   7  -3    0.38    0.47
  -7  21  -3   -0.40    0.46
  21 -14  -3    0.67    0.32
   7  14   3    0.14    0.40
  14   7   3    0.31    0.47
  21  -7  -3    0.47    0.49
 -21  14   3   -0.26    0.33
  21 -14   3    0.15    0.40
  21  -7  -3   -0.29    0.26
 -14  21  -3    0.30    0.54
   7  14  -3   -0.13    0.36
  -7  21   3    1.02    0.62
  14 -21  -3   -0.39    0.35
  15   6  -3   -0.02    0.41
  21  -6   3    0.27    0.33
 -15  21   3    0.05    0.47
  21 -15  -3   -0.27    0.34
   6  15   3   -0.46    0.36
  -6  21  -3    0.03    0.52
  15 -21  -3   -0.49    0.36
  21  -6  -3    0.06    0.31
 -15  21  -3    1.26    0.60
  -6  21   3   -0.44    0.52
 -21  15   3   -0.46    0.35
  21  -6  -3   -0.17    0.44
   6  15  -3    0.43    0.40
  15   6   3   -0.42    0.42
  21 -15   3   -0.30    0.28
  -5  21  -3    1.03    0.70
  21 -16  -3    1.29    0.54
  21  -5   3    1.13    0.45
 -16  21   3    2.26    0.79
  16   5  -3    1.95    0.71
   5  16   3    1.20    0.59
  16 -21  -3    1.47    0.50
 -21  16   3    1.74    0.58
 -16  21  -3    1.89    0.72
  21 -16   3    1.34    0.51
  21  -5  -3    0.87    0.39
  21  -5  -3    2.42    0.72
  -5  21   3    0.93    0.68
   5  16  -3    2.22    0.94
  21 -17  -3    2.24    0.67
  17   4  -3    0.84    0.61
  -4  21  -3    1.38    0.66
   4  17   3    1.17    0.58
  21  -4   3    1.94    0.55
 -17  21   3    1.42    0.65
 -21  17   3    1.67    0.59
   4  17  -3    1.11    0.55
  21 -17   3    1.10    0.51
  -4  21   3    1.03    0.73
  17 -21  -3    1.45    0.57
  21  -4  -3    0.84    0.54
  21  -4  -3    1.30    0.43
  -3  21  -3    0.89    0.63
  18   3  -3    0.10    0.51
   3  18   3    0.45    0.47
 -18  21   3    0.15    0.51
  21 -18  -3   -0.41    0.37
  21  -3   3    0.65    0.40
  21  -3  -3    1.04    0.54
  18 -21  -3    0.43    0.36
  -3  21   3   -0.02    0.59
 -21  18   3    0.11    0.47
   3  18  -3    0.48    0.54
  21 -18   3   -0.46    0.37
  21  -2   3    1.08    0.41
   2  19   3    1.38    0.60
  21 -19  -3   -0.44    0.35
  -2  21  -3   -1.04    0.43
  19   2  -3    0.28    0.54
 -19  21   3    0.25    0.53
  19 -21   3    0.23    0.37
  -2  21   3   -0.63    0.58
  19 -21  -3   -0.26    0.37
   2  19  -3    0.72    0.53
  21  -2  -3    1.07    0.60
  21 -19   3   -0.61    0.35
 -21  19   3    0.01    0.51
  -1  21  -3    0.29    0.49
  20 -21   3    0.42    0.39
   1  20   3    0.16    0.56
  20   1  -3    0.15    0.54
  21 -20  -3    0.08    0.38
  21  -1   3    0.13    0.35
 -20  21   3    0.92    1.05
  21 -20   3   -0.25    0.38
  20 -21  -3   -0.04    0.38
   1  20  -3    0.37    0.47
  21  -1  -3   -0.50    0.52
 -21  20   3   -0.85    0.47
  -1  21   3   -0.94    0.51
   0  21   3    0.47    0.62
   0  21  -3   -0.27    0.50
  21 -21  -3   -0.15    0.38
 -21  21   3   -1.11    0.49
  21   0  -3   -0.20    0.58
  22 -11   3    0.88    0.37
  11  11  -3    1.19    0.61
  22 -11  -3    2.24    0.63
 -22  11   3    1.92    0.67
 -11  22   3    2.02    0.87
 -11  22  -3    0.91    0.62
  11  11   3    1.28    0.59
  22 -10   3    0.53    0.32
 -10  22  -3    1.34    0.54
  10  12   3    0.34    0.40
  22 -12  -3   -0.49    0.25
 -12  22   3    1.76    0.89
  12  10  -3    0.61    0.45
 -22  10   3    0.25    0.50
  12  10   3    0.22    0.45
 -10  22   3    0.39    0.57
  22 -10  -3    0.25    0.35
  10  12  -3    0.02    0.37
 -12  22  -3    0.58    0.56
 -22  12   3    0.34    0.43
  22 -12   3    0.87    0.37
  22  -9   3    0.36    0.25
 -13  22   3   -0.47    0.49
   9  13   3   -0.53    0.37
  -9  22  -3   -0.22    0.50
  13   9  -3    0.97    0.49
  22 -13  -3   -0.05    0.33
  22 -13   3   -0.60    0.29
   9  13  -3    0.71    0.47
  -9  22   3   -0.15    0.58
  22  -9  -3    0.38    0.55
 -22  13   3    0.07    0.37
  22  -9  -3    0.12    0.30
 -13  22  -3    0.66    0.60
  13   9   3   -0.14    0.38
  14   8  -3    0.03    0.45
   8  14   3    1.59    0.70
  22  -8   3    0.18    0.33
  22 -14  -3    1.51    0.51
  -8  22  -3    0.45    0.50
 -14  22   3   -0.51    0.57
  22  -8  -3   -0.64    0.50
 -22  14   3    0.10    0.42
 -14  22  -3   -0.14    0.54
  22 -14   3    0.08    0.34
  14   8   3   -0.48    0.41
   8  14  -3   -0.06    0.41
  -8  22   3    1.58    0.73
  22  -8  -3    0.23    0.31
  15   7  -3   -0.19    0.47
 -15  22   3    0.68    0.59
  22 -15  -3    0.42    0.38
   7  15   3   -0.76    0.39
  -7  22  -3   -0.42    0.62
  22  -7   3    0.32    0.35
  22  -7  -3    0.22    0.49
 -22  15   3    0.07    0.41
  15 -22  -3   -0.04    0.36
   7  15  -3    0.18    0.43
  22  -7  -3   -0.41    0.30
 -15  22  -3   -0.45    0.59
  -7  22   3   -0.36    0.55
  15   7   3   -0.64    0.42
  22 -15   3    0.75    0.46
  22  -6   3    0.59    0.39
  22 -16  -3   -0.07    0.34
 -16  22   3   -0.60    0.51
   6  16   3   -0.18    0.39
  -6  22  -3   -0.25    0.50
  16   6  -3   -0.37    0.52
 -16  22  -3    0.43    0.56
  22  -6  -3    0.17    0.31
  16 -22  -3   -0.08    0.43
  -6  22   3    0.00    0.56
   6  16  -3    0.35    0.42
 -22  16   3   -0.30    0.41
  22 -16   3    0.19    0.36
  22  -6  -3    0.23    0.50
 -17  22   3   -0.37    0.56
  -5  22  -3   -0.15    0.55
  22  -5   3   -0.09    0.31
  17   5  -3   -0.45    0.53
   5  17   3    0.07    0.41
 -22  17   3   -0.41    0.46
  -5  22   3    0.49    0.70
   5  17  -3   -0.47    0.48
  22 -17   3    0.08    0.38
  22  -5  -3    0.24    0.34
  17 -22  -3    0.43    0.42
  22  -5  -3    0.84    0.55
  22 -18  -3    0.81    0.47
  -4  22  -3    0.87    0.61
 -18  22   3    0.27    0.53
  22  -4   3   -0.23    0.32
   4  18   3    0.26    0.46
  18   4  -3    0.40    0.51
  -4  22   3   -0.59    0.59
   4  18  -3   -0.15    0.39
  18 -22  -3    0.11    0.40
  22 -18   3    0.18    0.38
 -22  18   3    0.59    0.53
  22  -4  -3    0.82    0.57
  22  -3   3    0.39    0.38
  -3  22  -3    0.20    0.54
  22 -19  -3    0.47    0.46
  19   3  -3   -0.25    0.59
 -19  22   3    0.50    0.61
   3  19   3   -0.23    0.59
  19 -22  -3    0.30    0.42
  22 -19   3    0.39    0.44
  22  -3  -3    0.92    0.53
 -22  19   3    0.35    0.53
   3  19  -3    0.44    0.50
  -3  22   3    2.81    1.06
   2  20   3   -0.46    0.53
  -2  22  -3    1.28    0.61
 -23  11   3    0.40    0.53
  12  11  -3    0.52    0.45
  23 -11   3    0.66    0.40
  11  12   3    0.22    0.42
 -11  23  -3    0.79    0.62
  23 -12  -3    0.34    0.38
 -12  23   3   -0.95    0.60
 -12  23  -3    0.70    0.67
  12  11   3   -0.14    0.46
  23 -12   3    0.38    0.43
  23 -11  -3    1.03    0.38
 -11  23   3    1.29    0.70
  11  12  -3    0.76    0.50
 -23  12   3    0.01    0.45
 -10  23  -3    0.24    0.56
  23 -10   3    0.42    0.31
  13  10  -3   -0.18    0.44
 -23  10   3    0.39    0.61
 -13  23   3    2.39    0.87
  10  13   3    0.95    0.51
  23 -13  -3    0.44    0.39
  23 -10  -3   -0.32    0.28
 -10  23   3    0.94    0.60
  13  10   3    0.33    0.47
 -13  23  -3   -0.61    0.53
  10  13  -3    0.11    0.49
 -23  13   3    0.51    0.50
  23 -13   3    0.42    0.35
  -9  23  -3   -0.27    0.63
 -14  23   3    0.90    0.70
  23 -14  -3    0.70    0.40
   9  14   3   -0.17    0.50
  14   9  -3    0.36    0.46
  23  -9   3    0.09    0.35
 -23  14   3    0.01    0.45
 -14  23  -3    0.63    0.61
  23  -9  -3    0.20    0.30
  -9  23   3   -0.14    0.66
  14   9   3   -0.17    0.45
   9  14  -3    0.76    0.48
  23  -9  -3   -0.05    0.52
  23 -14   3    0.54    0.43
   8  15   3   -0.97    0.38
 -15  23   3   -0.59    0.62
  15   8  -3   -0.09    0.51
  -8  23  -3    0.29    0.63
  23  -8   3    0.43    0.38
  23 -15  -3    1.03    0.46
   8  15  -3   -0.07    0.50
  15   8   3    0.51    0.48
  23 -15   3    0.36    0.35
 -15  23  -3   -0.42    0.57
 -23  15   3   -0.51    0.38
  23  -8  -3    0.02    0.33
  23  -8  -3   -0.37    0.52
  -8  23   3    1.13    0.71
  -7  23  -3    1.23    0.74
 -16  23   3    0.82    0.67
  16   7  -3   -0.09    0.51
  23 -16  -3   -0.10    0.43
   7  16   3   -0.05    0.45
  23  -7   3    0.41    0.43
 -23  16   3    0.53    0.47
  23 -16   3    0.38    0.41
   7  16  -3    0.31    0.46
 -16  23  -3   -0.34    0.62
  -7  23   3    0.08    0.60
  23  -7  -3   -0.48    0.53
  23  -7  -3   -0.06    0.34
  -6  23  -3    0.63    0.58
  23 -17  -3   -0.05    0.40
  23  -6   3    0.16    0.32
   6  17   3    0.43    0.45
 -17  23   3    1.66    0.77
  17   6  -3    0.98    0.61
  23  -6  -3    0.49    0.39
  23  -6  -3    0.81    0.56
 -23  17   3    1.45    0.56
  23 -17   3    0.88    0.50
   6  17  -3    0.38    0.56
  17 -23  -3    0.13    0.44
  -6  23   3   -0.73    0.57
  18   5  -3    1.65    0.66
   5  18   3    0.05    0.53
  -5  23  -3   -0.03    0.55
  23  -5   3    0.47    0.43
 -18  23   3    0.59    0.67
 -23  18   3    0.35    0.55
  18 -23  -3   -0.05    0.38
  23 -18   3    0.13    0.43
   5  18  -3    1.32    0.69
  23  -5  -3    1.27    0.62
 -24  12   3   -0.35    0.44
 -12  24  -3    0.77    0.69
  12  12   3   -0.41    0.44
  12  12  -3    0.04    0.45
  24 -12  -3    0.23    0.43
  24 -12   3    0.07    0.37
 -12  24   3   -0.32    0.63
  24 -13  -3    1.72    0.62
  11  13   3    0.49    0.52
 -13  24   3   -0.39    0.69
 -24  11   3    1.50    0.67
  24 -11   3    0.29    0.36
 -11  24  -3    0.61    0.65
  13  11  -3    1.01    0.61
 -11  24   3    1.06    0.74
 -24  13   3   -0.08    0.47
  24 -11  -3    0.44    0.38
  24 -13   3    0.24    0.43
 -13  24  -3    0.79    0.62
  13  11   3    0.47    0.51
  11  13  -3    0.21    0.47
  24 -14  -3    0.59    0.39
 -10  24  -3    0.58    0.67
  14  10  -3   -0.03    0.51
  24 -10   3    0.46    0.33
 -24  10   3    0.04    0.63
  10  14   3    0.92    0.56
 -14  24   3    1.76    0.80
  10  14  -3   -0.35    0.46
 -10  24   3    1.24    0.78
  24 -10  -3   -0.28    0.32
 -24  14   3   -0.24    0.39
 -14  24  -3   -1.30    0.61
  14  10   3    0.28    0.44
   9  15   3   -0.41    0.46
  -9  24  -3    1.82    0.72
  15   9  -3   -0.12    0.49
 -15  24   3    1.05    0.75
  15   9   3    1.83    0.59
 -15  24  -3    1.11    0.69
 -24  15   3   -0.82    0.44
  24  -9  -3    1.14    0.65
   0   0  -4 1000.00   34.25
   0   0   4  889.04   32.62
   1   0   4   34.56    1.31
   0  -1   4   34.05    1.36
   0   1   4   34.31    1.37
   1   0   4   32.97    1.41
   1   0  -4   31.07    1.40
   0  -1  -4   30.63    1.46
   0   1  -4   33.74    1.40
   1  -1  -4   29.80    1.43
   1  -1   4   33.84    1.38
   1  -1  -4   33.60    1.44
   1   0  -4   33.67    1.45
   2  -1  -4    1.65    0.27
  -1   2  -4    1.79    0.19
   1   1  -4    2.02    0.24
   1  -2   4    1.15    0.18
   2  -1  -4    1.36    0.26
   1   1  -4    1.96    0.27
   1   1   4    1.07    0.22
   1   1   4    1.10    0.21
   1  -2  -4    1.59    0.29
   2  -1   4    1.13    0.21
  -1   2   4    1.28    0.22
   2   0  -4   35.78    1.61
   0  -2   4   36.13    1.40
   2  -2  -4   37.02    1.59
   2   0   4   34.82    1.52
   0   2   4   38.50    1.58
   0  -2  -4   32.53    1.59
   2  -2  -4   36.40    1.60
   2  -2   4   34.21    1.44
   2   0  -4   35.29    1.49
   0   2  -4   36.68    1.53
   1  -3  -4   25.90    1.32
   2   1  -4   28.64    1.17
   3  -2  -4   28.75    1.29
   2  -3   4   27.75    1.12
  -1   3  -4   26.65    1.22
  -2   3   4   28.42    1.30
   3  -1   4   25.12    1.19
   1   2   4   28.28    1.28
   3  -2  -4   26.81    1.34
   2   1  -4   25.53    1.30
   1   2   4   26.81    1.31
   1   2  -4   26.36    1.28
  -2   3  -4   28.02    1.19
   1   2  -4   27.66    1.13
   3  -1  -4   26.84    1.35
   2  -3  -4   29.30    1.35
   3  -1  -4   26.95    1.22
  -1   3   4   28.15    1.33
   1  -3   4   27.18    1.09
   2   1   4   27.19    1.25
   3  -2   4   28.39    1.19
   2   1   4   28.09    1.26
   3   0  -4    6.54    0.42
  -3   3   4    5.92    0.49
   3   0  -4    5.89    0.51
   0  -3  -4    5.74    0.57
   3   0   4    5.61    0.44
   0   3   4    5.72    0.50
   0  -3   4    5.45    0.31
  -3   3  -4    6.74    0.39
   3   0   4    5.96    0.35
   3  -3   4    5.13    0.36
   0   3  -4    6.08    0.45
   3  -3  -4    7.04    0.53
   2   2  -4   29.94    1.43
   2   2   4   29.04    1.43
  -2   4   4   30.33    1.45
   4  -2  -4   28.08    1.32
   2   2   4   29.74    1.36
   4  -2  -4   28.33    1.47
   2  -4   4   30.22    1.15
   2   2  -4   30.19    1.19
  -2   4  -4   27.13    1.35
   2  -4  -4   29.60    1.44
   4  -2   4   28.08    1.26
   1   3   4    4.34    0.46
   1   3   4    4.00    0.51
   3   1  -4    6.13    0.36
   4  -1   4    4.18    0.40
  -4   3  -4    5.45    0.31
   4  -1   4    4.30    0.28
   3  -4   4    3.89    0.29
   4  -3  -4    5.22    0.44
  -3   4   4    3.54    0.44
   3   1  -4    5.94    0.51
   4  -3  -4    5.74    0.51
  -1  -3   4    4.54    0.26
   1  -4  -4    5.91    0.57
  -1   4  -4    5.58    0.45
   3   1   4    3.57    0.41
   3  -4  -4    4.69    0.51
   3   1   4    4.16    0.36
  -1   4   4    4.32    0.51
  -3   4  -4    5.53    0.42
   4  -1  -4    5.18    0.55
   4  -3   4    4.22    0.34
   4  -1  -4    4.90    0.38
   1   3  -4    5.61    0.47
   1  -4   4    4.13    0.25
   4   0   4    0.22    0.11
  -4   4  -4    0.39    0.14
   4   0   4    0.18    0.13
  -4   4   4    0.27    0.18
   4   0  -4    0.40    0.20
   4   0  -4    0.32    0.12
   0  -4   4    0.34    0.07
   0   4   4    0.50    0.24
   4  -4   4    0.45    0.13
   4  -4  -4    0.28    0.16
   0  -4  -4    0.54    0.22
   0   4  -4    0.14    0.16
  -2   5  -4   13.05    0.84
   3   2  -4   13.95    0.62
  -5   3  -4   12.75    0.60
   2   3   4   12.03    0.86
   3  -5   4   11.91    0.58
   2  -5  -4   12.53    0.84
  -3   5   4   11.22    0.83
   3   2  -4   13.36    0.86
   5  -3  -4   14.05    0.79
   5  -2   4   12.92    0.63
   5  -2   4   11.86    0.70
   5  -3  -4   15.94    0.96
   2   3   4   12.06    0.76
   5  -2  -4   13.40    0.75
   3   2   4   11.13    0.74
   2   3  -4   15.73    0.90
  -2   5   4   13.07    0.91
   3  -5  -4   12.72    0.84
  -3   5  -4   13.35    0.83
   2  -5   4   12.46    0.55
   2   3  -4   14.52    0.58
   3   2   4   14.59    0.84
   5  -2  -4   13.74    0.91
   5  -3   4   11.86    0.67
   1  -5  -4    1.51    0.34
   5  -1   4    1.22    0.24
   5  -1   4    1.83    0.22
  -1   5  -4    1.38    0.31
   4  -5   4    1.33    0.19
   1   4   4    1.58    0.30
   4   1  -4    1.36    0.33
   4   1  -4    0.96    0.16
   5  -4  -4    1.12    0.30
  -5   4  -4    1.37    0.20
   1   4   4    1.74    0.39
   5  -4  -4    1.25    0.28
  -4   5   4    1.42    0.31
   5  -1  -4    1.41    0.34
   5  -1  -4    1.18    0.23
  -4   5  -4    1.15    0.26
   4   1   4    1.67    0.26
   5  -4   4    1.34    0.22
   4  -5  -4    1.01    0.27
  -1   5   4    1.91    0.41
   1   4  -4    0.84    0.26
   4   1   4    1.60    0.28
   1  -5   4    1.52    0.11
   5  -5   4    7.18    0.44
  -5   5   4    7.23    0.63
   0   5   4    6.78    0.78
   5   0  -4    7.56    0.67
   5   0   4    6.41    0.47
   0  -5  -4    8.23    0.66
  -5   5  -4    7.44    0.53
   5  -5  -4    6.84    0.58
   5   0   4    8.19    0.55
   5   0  -4    7.82    0.49
   0   5  -4    8.54    0.65
   3   3  -4   21.78    0.83
   6  -3  -4   20.73    1.04
   6  -3   4   17.81    0.93
  -3   6  -4   22.79    1.23
   6  -3   4   17.67    0.91
   3   3  -4   19.95    1.17
   3   3   4   17.83    1.13
   3   3   4   20.61    1.06
   3  -6  -4   21.24    1.17
   6  -3  -4   19.53    1.21
  -3   6   4   18.48    1.20
   3  -6   4   18.46    0.81
   6  -4  -4   15.85    0.89
  -2   6  -4   16.44    1.03
   4   2  -4   15.34    0.99
  -4   6   4   13.10    0.95
   6  -4  -4   13.19    0.98
   2   4   4   13.62    1.00
   4  -6   4   14.76    0.66
   2   4   4   15.19    0.88
   4   2  -4   16.11    0.70
   6  -2   4   14.18    0.79
   2  -6  -4   15.51    0.97
  -6   4  -4   14.23    0.72
   6  -2   4   14.99    0.76
   2   4  -4   13.96    0.95
  -4   6  -4   14.23    0.95
   4  -6  -4   14.48    0.94
   6  -2  -4   14.57    0.82
   4   2   4   15.39    0.86
  -2   6   4   14.75    1.07
   6  -2  -4   15.00    1.03
   6  -4   4   13.57    0.74
   4   2   4   14.94    0.89
   2  -6   4   14.50    0.62
   1  -6  -4    5.72    0.64
  -1   6  -4    6.06    0.64
   5   1  -4    6.33    0.41
   6  -5  -4    5.67    0.58
   6  -1   4    6.50    0.49
   5   1  -4    6.17    0.69
   6  -1   4    5.62    0.44
  -5   6   4    5.94    0.65
   5  -6   4    6.00    0.37
   1   5   4    6.60    0.54
  -6   5  -4    5.51    0.43
   1   5   4    5.05    0.73
   5  -6  -4    5.52    0.61
   5   1   4    5.99    0.49
  -5   6  -4    5.63    0.52
  -1   6   4    5.95    0.77
   6  -1  -4    6.31    0.47
   5   1   4    5.81    0.47
   1  -6   4    6.93    0.31
  -6   5   4    7.15    0.64
   1   5  -4    6.54    0.66
   6  -1  -4    5.46    0.68
   6  -5   4    6.42    0.42
  -6   6  -4   37.85    1.67
   0   6   4   31.19    1.93
   6   0   4   32.21    1.56
  -6   6   4   31.29    1.74
   6  -6   4   33.14    1.41
   6   0  -4   37.46    1.88
   6   0   4   32.70    1.54
   0  -6  -4   37.61    1.78
   0   6  -4   40.05    1.87
   6   0  -4   35.98    1.50
   6  -6  -4   34.35    1.68
   7  -4  -4    0.63    0.28
  -4   7   4    1.22    0.37
   7  -4  -4    0.41    0.19
   3  -7  -4    0.37    0.22
   7  -3   4    1.06    0.21
  -7   4  -4    0.60    0.15
  -3   7  -4    0.62    0.28
   3   4   4    0.89    0.23
   4   3  -4    0.61    0.12
   4   3  -4    0.63    0.27
   7  -3   4    0.78    0.20
   4  -7   4    0.59    0.15
   3   4   4    0.50    0.26
   3   4  -4    0.49    0.23
   7  -3  -4    0.65    0.22
   7  -4   4    0.75    0.19
   4   3   4    0.87    0.28
   4   3   4    0.59    0.21
   4  -7  -4    0.57    0.23
  -3   7   4    0.99    0.37
   3   4  -4    0.68    0.09
   7  -3  -4    0.35    0.26
   3  -7   4    0.90    0.16
  -4   7  -4    0.34    0.23
  -5   7   4   74.57    3.50
   5   2  -4   86.06    3.01
   2   5   4   73.36    3.59
   7  -2   4   77.22    3.10
   7  -5  -4   81.90    3.58
   7  -2   4   77.44    3.23
   2   5   4   79.46    3.23
   5  -7   4   76.25    2.98
   7  -5  -4   81.55    3.27
  -7   5  -4   82.52    3.20
  -2   7  -4   82.49    3.59
   5   2  -4   82.44    3.56
   2  -7  -4   81.65    3.38
  -2   7   4   74.79    3.66
   7  -2  -4   85.50    3.19
   5   2   4   79.65    3.34
   7  -2  -4   83.48    3.59
  -5   7  -4   79.72    3.49
   5   2   4   80.93    3.18
   5  -7  -4   83.20    3.36
   2  -7   4   79.80    2.91
   7  -5   4   77.41    3.04
   2   5  -4   86.12    3.53
  -6   7   4    0.63    0.27
   6   1  -4    0.92    0.19
   6   1  -4    0.93    0.34
   7  -1   4    0.93    0.23
   1  -7  -4    1.02    0.31
   1   6   4    0.49    0.21
   6  -7   4    0.88    0.18
  -7   6  -4    0.61    0.18
   1   6   4    0.93    0.40
  -1   7  -4    0.92    0.31
   7  -6  -4    0.77    0.25
   7  -1   4    0.83    0.22
   1   6  -4    0.90    0.30
   7  -6   4    0.89    0.19
   6   1   4    0.59    0.20
   1  -7   4    0.78    0.11
   6  -7  -4    0.68    0.27
  -7   6   4    0.56    0.27
  -6   7  -4    0.93    0.27
   7  -1  -4    0.67    0.30
  -1   7   4    0.88    0.39
   7  -1  -4    0.90    0.22
   6   1   4    0.68    0.21
   7   0   4   39.06    1.85
   7   0  -4   38.53    2.09
  -7   7  -4   44.03    1.96
   7  -7   4   37.93    1.64
   7   0   4   39.30    1.76
   7   0  -4   41.08    1.73
   0  -7  -4   40.00    1.98
  -7   7   4   39.31    2.04
   7  -7  -4   39.48    1.92
   0   7   4   38.15    2.28
   0   7  -4   42.40    2.11
   4   4  -4   37.71    1.33
   8  -4  -4   30.91    1.85
   8  -4   4   33.88    1.58
   4  -8   4   34.02    1.41
   4   4   4   32.80    1.58
   8  -4   4   32.25    1.47
   4   4  -4   34.99    1.86
  -4   8   4   30.76    1.89
  -4   8  -4   36.02    1.94
   4  -8  -4   33.60    1.75
   8  -4  -4   34.63    1.64
   4   4   4   33.13    1.79
   3   5   4    3.57    0.47
   3   5   4    3.15    0.59
  -5   8   4    3.68    0.62
  -8   5  -4    3.15    0.34
   8  -3   4    3.80    0.42
   3  -8  -4    2.43    0.46
   8  -5  -4    3.26    0.48
   5   3  -4    3.70    0.59
  -3   8  -4    2.84    0.55
   8  -3   4    3.61    0.40
   5   3  -4    2.81    0.24
   8  -5  -4    2.67    0.54
   5   3   4    3.51    0.45
   5   3   4    2.68    0.46
   8  -3  -4    2.92    0.57
  -3   8   4    2.41    0.58
   5  -8  -4    3.24    0.53
   3   5  -4    3.53    0.57
   3  -8   4    4.03    0.29
   8  -5   4    3.16    0.37
   8  -3  -4    3.01    0.43
  -5   8  -4    3.62    0.58
   8  -6  -4   14.31    0.96
   8  -2   4   16.36    0.88
  -2   8  -4   16.90    1.20
   2   6   4   18.05    1.30
   2  -8  -4   14.82    1.05
  -6   8   4   16.75    1.17
   6  -8   4   15.81    0.82
   8  -2   4   15.06    0.92
   6   2  -4   15.27    0.78
   6   2  -4   15.79    1.14
  -8   6  -4   15.80    0.89
   2   6   4   15.16    0.94
   8  -2  -4   15.73    1.17
   2  -8   4   16.79    0.72
   8  -6   4   16.82    0.83
   8  -2  -4   14.95    0.90
   6   2   4   17.80    1.04
  -6   8  -4   14.69    1.07
  -8   6   4   15.93    1.13
   2   6  -4   16.48    1.13
   6  -8  -4   13.92    1.00
   6   2   4   15.75    0.91
  -2   8   4   14.68    1.28
  -7   8   4   10.47    0.91
   8  -1   4   11.06    0.71
   1   7   4   10.37    0.76
   8  -1   4   11.01    0.76
   7  -8   4   11.05    0.65
  -1   8  -4   11.43    0.96
   7   1  -4   10.91    0.64
  -8   7  -4   10.51    0.73
   1   7   4   10.70    1.16
   7   1  -4   11.07    0.96
   8  -7  -4   11.07    0.82
   1  -8  -4   11.49    0.88
   7   1   4   10.93    0.71
  -1   8   4   10.25    1.19
   8  -1  -4   10.74    0.95
   7  -8  -4   10.76    0.83
   1   7  -4   12.84    0.96
   7   1   4    9.94    0.75
  -8   7   4   10.77    0.88
  -7   8  -4   11.49    0.86
   8  -1  -4   10.57    0.70
   8  -7   4    9.80    0.62
   0   8   4    2.90    0.69
  -8   8   4    3.47    0.58
   8   0   4    4.57    0.54
   8  -8  -4    3.89    0.56
   8   0  -4    3.43    0.62
   8  -8   4    4.54    0.44
  -8   8  -4    4.19    0.54
   8   0  -4    3.66    0.41
   8   0   4    3.62    0.45
   0   8  -4    2.96    0.58
  -5   9   4    0.71    0.36
   4  -9  -4    0.90    0.31
   5   4  -4    1.13    0.16
   4   5   4    0.59    0.21
   9  -4   4    0.84    0.22
   5   4  -4    1.32    0.39
  -9   5  -4    0.67    0.20
   4   5   4    0.73    0.31
   9  -5  -4    0.95    0.38
   9  -5  -4    1.07    0.30
   5  -9   4    1.09    0.22
   9  -4   4    1.09    0.27
  -4   9  -4    0.93    0.36
   9  -4  -4    0.55    0.22
   4   5  -4    0.97    0.33
   5   4   4    0.89    0.32
   4   5  -4    1.09    0.12
   9  -5   4    0.77    0.22
  -5   9  -4    0.62    0.33
  -4   9   4    1.12    0.43
   4  -9   4    0.95    0.20
   5   4   4    0.67    0.21
   5  -9  -4    1.38    0.37
   9  -4  -4    0.93    0.38
   3  -9  -4   30.55    1.59
  -9   6  -4   28.00    1.35
   6  -9   4   26.07    1.25
   9  -6  -4   28.74    1.73
  -3   9  -4   28.72    1.76
   6   3  -4   28.13    1.66
   9  -3   4   27.08    1.30
   9  -3   4   25.34    1.39
  -6   9   4   25.41    1.68
   3   6   4   26.47    1.71
   3   6   4   28.62    1.42
   9  -6  -4   29.20    1.49
   6   3  -4   29.97    1.20
   6   3   4   25.78    1.50
  -3   9   4   26.53    1.85
   9  -6   4   25.56    1.24
   9  -3  -4   28.31    1.72
   3   6  -4   27.58    1.63
   6  -9  -4   25.74    1.51
  -6   9  -4   26.80    1.66
   9  -3  -4   29.11    1.42
   6   3   4   26.88    1.36
   3  -9   4   27.03    1.17
  -2   9  -4    4.83    0.76
  -7   9   4    6.45    0.84
   7   2  -4    5.02    0.40
   9  -2   4    5.70    0.60
   9  -2   4    6.30    0.50
  -9   7  -4    5.26    0.54
   7  -9   4    6.07    0.48
   2  -9  -4    6.08    0.74
   2   7   4    6.65    0.57
   9  -7  -4    4.52    0.61
   2   7   4    6.25    0.91
   7   2  -4    4.84    0.74
  -9   7   4    5.44    0.71
   7   2   4    5.82    0.64
   9  -2  -4    4.77    0.76
   2   7  -4    6.26    0.78
   9  -7   4    6.48    0.48
  -2   9   4    5.64    0.93
  -7   9  -4    5.61    0.74
   7  -9  -4    5.67    0.70
   2  -9   4    6.15    0.36
   9  -2  -4    4.66    0.53
   7   2   4    5.65    0.56
  -9   8  -4    4.32    0.53
   9  -1   4    4.28    0.54
  -8   9   4    4.21    0.67
   8  -9   4    3.82    0.45
   9  -8  -4    3.11    0.53
   9  -1   4    3.96    0.46
  -1   9  -4    3.24    0.63
   8   1  -4    4.07    0.70
   1   8   4    3.57    0.50
   8   1  -4    3.76    0.41
   1   8   4    4.85    0.83
   1  -9  -4    4.06    0.61
   1   8  -4    3.65    0.63
   8  -9  -4    3.47    0.56
   8   1   4    4.09    0.55
   9  -1  -4    3.95    0.46
  -9   8   4    4.54    0.67
  -8   9  -4    3.56    0.56
   8   1   4    3.95    0.48
   9  -8   4    3.52    0.43
  -1   9   4    4.41    0.86
   9  -1  -4    3.74    0.67
   9   0   4   15.59    1.04
   9  -9  -4   14.76    1.06
   0   9   4   15.27    1.01
  -9   9  -4   14.65    1.04
  -9   9   4   18.07    1.26
   0   9   4   16.31    1.47
   9  -9   4   16.48    0.94
   9   0  -4   15.75    0.91
   9   0   4   16.62    0.94
   0   9  -4   13.48    1.17
   9   0  -4   15.00    1.23
  10  -5  -4   15.94    1.05
   5 -10   4   18.17    0.89
   5   5  -4   16.32    0.75
   5   5   4   18.79    1.05
  -5  10   4   17.62    1.42
   5 -10  -4   14.84    1.12
   5   5   4   19.09    1.28
  10  -5  -4   16.35    1.29
  -5  10  -4   18.00    1.38
  10  -5   4   17.90    0.94
   5   5  -4   15.16    1.21
  10  -5   4   18.44    1.07
   4   6   4    9.83    0.71
   4   6   4    9.22    0.98
   6   4  -4    8.89    0.51
  -6  10   4    9.59    1.09
   6 -10   4    9.20    0.60
 -10   6  -4    8.51    0.63
  10  -6  -4    9.37    0.77
   6   4  -4    9.19    0.99
  -4  10  -4    8.54    1.05
  10  -4   4   10.04    0.74
  10  -6  -4    8.37    0.98
  10  -4   4   10.14    0.66
   4 -10  -4    7.72    0.86
   4   6  -4    7.34    0.89
  -6  10  -4    9.23    1.05
   6   4   4    9.98    0.70
   4 -10   4    8.71    0.54
  -4  10   4    9.61    1.20
  10  -4  -4    8.95    0.72
  10  -4  -4    9.29    1.03
  10  -6   4    8.17    0.59
   6   4   4    9.73    0.83
   6 -10  -4    9.86    0.94
   7 -10   4    5.49    0.53
   7   3  -4    5.74    0.42
   3 -10  -4    6.61    0.79
  10  -3   4    5.70    0.50
  10  -7  -4    6.69    0.72
  -7  10   4    5.81    0.85
   3   7   4    6.92    0.65
   3   7   4    6.61    0.93
  10  -3   4    5.25    0.61
 -10   7  -4    5.64    0.51
   7   3  -4    6.23    0.85
  -3  10  -4    6.25    0.91
  10  -3  -4    6.89    0.66
  -7  10  -4    6.12    0.83
   7   3   4    5.62    0.58
 -10   7   4    5.51    0.77
   3   7  -4    6.69    0.85
  10  -3  -4    6.87    0.92
   3 -10   4    5.88    0.40
   7   3   4    6.19    0.72
  10  -7   4    5.56    0.48
  -3  10   4    4.93    0.93
   7 -10  -4    5.83    0.74
   2   8   4    0.74    0.42
  10  -8  -4    0.39    0.24
  10  -2   4    0.50    0.26
   2 -10  -4    0.21    0.25
   2   8   4    0.52    0.20
   8   2  -4    0.43    0.16
  -2  10  -4    0.02    0.28
 -10   8  -4    0.56    0.21
  10  -2   4    0.20    0.17
   8   2  -4    0.48    0.34
   8 -10   4    0.38    0.19
  -8  10   4    0.52    0.29
   8   2   4    0.44    0.21
 -10   8   4    0.23    0.24
  10  -2  -4    0.25    0.30
   8   2   4    0.25    0.24
  10  -8   4    0.09    0.17
   8 -10  -4    1.02    0.35
  10  -2  -4    0.41    0.19
  -2  10   4   -0.12    0.32
   2   8  -4    0.28    0.24
  -8  10  -4    0.67    0.27
  10  -9  -4    1.18    0.37
   9 -10   4    1.32    0.31
   1 -10  -4    1.23    0.37
   1   9   4    1.76    0.36
  -1  10  -4    0.93    0.38
 -10   9  -4    0.57    0.23
  10  -1   4    1.48    0.37
  10  -1   4    1.55    0.31
   9   1  -4    0.79    0.22
   9   1  -4    1.19    0.44
  -9  10   4    0.84    0.37
   1   9   4    1.71    0.58
   1   9  -4    0.91    0.37
   9   1   4    1.49    0.31
  -1  10   4    1.56    0.62
  10  -1  -4    0.90    0.27
 -10   9   4    1.51    0.44
  10  -1  -4    1.37    0.45
  -9  10  -4    1.07    0.33
   9   1   4    1.69    0.40
   9 -10  -4    1.35    0.38
  10  -9   4    1.47    0.34
   0  10  -4    2.41    0.58
 -10  10   4    1.97    0.51
  10   0  -4    1.70    0.53
  10 -10  -4    1.23    0.38
  10 -10   4    2.63    0.43
   0  10   4    2.31    0.68
 -10  10  -4    1.95    0.41
  10   0  -4    1.38    0.30
  10   0   4    2.24    0.37
  10   0   4    2.20    0.46
   0  10   4    2.03    0.39
  -6  11   4    8.71    1.14
  11  -5   4    5.97    0.52
   5 -11  -4    6.42    0.81
   5   6   4    7.59    0.91
   5   6   4    6.75    0.59
  11  -5   4    7.65    0.67
  11  -6  -4    6.76    0.96
   6   5  -4    6.46    0.41
  11  -6  -4    7.46    0.77
  -5  11  -4    7.12    1.03
   6 -11   4    7.30    0.54
 -11   6  -4    6.70    0.58
   6   5  -4    6.17    0.89
  -5  11   4    7.85    1.12
  11  -6   4    6.69    0.54
   6   5   4    6.64    0.58
   5   6  -4    7.78    0.94
   6 -11  -4    7.43    0.86
   6   5   4    8.51    0.89
  -6  11  -4    6.62    1.00
   5 -11   4    6.30    0.49
  11  -5  -4    6.59    0.94
  11  -5  -4    7.39    0.75
  -4  11  -4    3.96    0.78
   7 -11   4    4.81    0.50
   7   4  -4    4.37    0.75
  11  -7  -4    4.56    0.65
   4 -11  -4    5.42    0.74
   4   7   4    4.52    0.56
  11  -4   4    4.71    0.59
   7   4  -4    4.78    0.36
  -7  11   4    4.19    0.79
   4   7   4    3.87    0.73
  11  -7  -4    4.73    0.80
 -11   7  -4    4.77    0.53
  11  -4   4    3.91    0.47
  -7  11  -4    5.61    0.86
  11  -7   4    3.87    0.48
   7   4   4    4.24    0.70
  -4  11   4    3.89    0.89
  11  -4  -4    6.05    0.89
   4   7  -4    4.82    0.76
  11  -4  -4    5.47    0.64
   4 -11   4    4.52    0.38
   7   4   4    5.23    0.56
   7 -11  -4    5.46    0.75
   3 -11  -4    6.66    0.82
  -8  11   4    6.36    0.92
  11  -3   4    5.53    0.56
   3   8   4    7.13    0.68
  -3  11  -4    5.69    0.94
   8   3  -4    5.85    0.45
   8 -11   4    6.74    0.55
 -11   8  -4    5.91    0.63
  11  -8  -4    5.32    0.71
   8   3  -4    5.67    0.87
  11  -3   4    6.36    0.72
   3   8   4    6.17    0.96
 -11   8   4    6.60    0.84
   8   3   4    6.42    0.55
  -8  11  -4    5.09    0.82
  11  -8   4    6.50    0.56
   8   3   4    5.88    0.74
   3   8  -4    5.49    0.83
  -3  11   4    5.81    1.07
  11  -3  -4    5.97    0.90
  11  -3  -4    5.76    0.65
   8 -11  -4    4.84    0.73
   9   2  -4    5.66    0.88
  11  -2   4    5.05    0.68
 -11   9  -4    5.75    0.64
  -9  11   4    4.34    0.77
   9   2  -4    4.32    0.46
  11  -9  -4    5.10    0.70
   2 -11  -4    5.09    0.72
   2   9   4    4.71    0.90
   9 -11   4    4.84    0.56
  11  -2   4    4.33    0.50
   2   9   4    4.41    0.57
  -2  11  -4    6.47    0.96
   9   2   4    4.82    0.54
  -2  11   4    4.61    0.98
   9   2   4    4.45    0.65
   9 -11  -4    4.70    0.71
 -11   9   4    4.73    0.74
  -9  11  -4    5.04    0.77
  11  -2  -4    4.54    0.81
   2   9  -4    4.47    0.77
  11  -9   4    4.31    0.57
  11  -2  -4    4.54    0.56
  10   1  -4    5.13    0.86
  11  -1   4    5.06    0.70
  11  -1   4    5.65    0.57
  10 -11   4    5.48    0.62
 -10  11   4    7.18    0.97
   1  10   4    5.37    0.64
  10   1  -4    5.32    0.54
   1  10   4    5.91    1.05
  11 -10  -4    5.56    0.77
   1 -11  -4    5.23    0.76
 -11  10  -4    5.64    0.70
  -1  11  -4    4.94    0.85
  -1  11   4    5.58    1.09
 -11  10   4    6.08    0.85
   1  10  -4    6.50    0.94
  11  -1  -4    4.24    0.80
  11  -1  -4    5.14    0.58
  10   1   4    5.05    0.56
  11 -10   4    6.16    0.67
  10 -11  -4    5.45    0.78
  10   1   4    6.01    0.76
 -10  11  -4    6.11    0.81
   0  11   4    0.56    0.49
  11   0   4    0.20    0.20
  11 -11  -4    0.08    0.20
 -11  11  -4    0.95    0.31
  11 -11   4    0.50    0.26
   0  11  -4    0.77    0.39
   0  11   4    0.31    0.20
  11   0   4    0.46    0.28
  11   0  -4    0.48    0.20
 -11  11   4    0.81    0.39
  11   0  -4    0.57    0.39
  12  -6   4   10.25    0.72
   6   6  -4   11.59    1.19
   6   6   4   10.59    1.07
  12  -6  -4   10.43    1.19
  12  -6  -4   10.26    0.86
   6 -12  -4   10.87    0.94
   6 -12   4   10.42    0.69
  -6  12   4    9.02    1.27
  -6  12  -4    9.95    1.27
   6   6   4   10.42    0.76
   7   5  -4    6.78    0.96
  12  -5   4    7.42    0.76
   5   7   4    8.13    0.65
  12  -7  -4    6.59    0.79
   7 -12   4    6.69    0.57
   5   7   4    7.90    0.99
  -7  12   4    6.60    1.05
  12  -5   4    7.48    0.58
 -12   7  -4    5.95    0.63
  -5  12  -4    6.87    1.05
  12  -7  -4    6.88    1.00
   5 -12  -4    5.81    0.81
   7 -12  -4    5.93    0.82
   7   5   4    7.93    0.63
   7   5   4    7.59    0.90
  -7  12  -4    5.74    0.96
  -5  12   4    6.16    1.09
  12  -5  -4    7.12    0.77
   5   7  -4    6.02    0.89
   5 -12   4    6.94    0.52
  12  -7   4    7.70    0.61
  12  -5  -4    4.68    0.86
  12  -4   4    0.88    0.31
   8 -12   4    0.62    0.25
 -12   8  -4    0.35    0.20
   4 -12  -4    0.82    0.34
  -4  12  -4    0.48    0.37
   8   4  -4    0.84    0.41
   4   8   4    1.04    0.28
  12  -8  -4    0.84    0.32
  12  -4   4    0.63    0.24
   4   8   4    1.71    0.49
  -8  12   4    0.83    0.39
   8   4  -4    0.82    0.18
  -8  12  -4    0.76    0.38
   4   8  -4    0.77    0.38
   8   4   4    0.90    0.28
  -4  12   4    0.27    0.46
   8 -12  -4    0.92    0.36
   8   4   4    0.98    0.36
  12  -8   4    0.64    0.26
  12  -4  -4    0.62    0.38
 -12   8   4    1.07    0.44
  12  -4  -4    1.33    0.35
  -9  12   4    0.19    0.34
   9   3  -4    0.79    0.20
  12  -3   4    0.72    0.29
 -12   9  -4    1.10    0.29
   9 -12   4    0.72    0.25
  -3  12  -4    0.77    0.42
   3   9   4    0.39    0.22
   3 -12  -4    0.95    0.38
  12  -9  -4    0.89    0.37
   9   3  -4    0.78    0.40
  12  -3   4    0.66    0.24
   3   9   4    0.38    0.41
   9   3   4    1.40    0.41
   9 -12  -4    0.84    0.35
  12  -3  -4    0.95    0.27
  12  -9   4    0.26    0.25
 -12   9   4    0.30    0.27
   9   3   4    0.81    0.24
  -3  12   4    0.24    0.46
   3   9  -4    0.86    0.39
  12  -3  -4    0.50    0.36
  -9  12  -4    0.62    0.35
  -2  12  -4    1.20    0.47
 -12  10  -4    1.17    0.30
 -10  12   4    0.89    0.42
   2  10   4    1.29    0.33
  12  -2   4    1.46    0.41
  10 -12   4    1.54    0.36
  12 -10  -4    1.28    0.39
   2 -12  -4    0.94    0.37
  10   2  -4    1.27    0.28
  12  -2   4    0.95    0.30
  10   2  -4    1.26    0.51
   2  10   4    1.61    0.59
  12 -10   4    1.45    0.38
  12  -2  -4    0.69    0.26
  -2  12   4    2.44    0.77
  12  -2  -4    1.49    0.51
   2  10  -4    0.60    0.37
 -12  10   4    1.91    0.50
  10   2   4    1.13    0.37
 -10  12  -4    0.87    0.37
  10 -12  -4    1.22    0.41
  10   2   4    1.33    0.32
  11   1  -4    2.50    0.41
   1  11   4    2.85    0.73
   1  11   4    3.05    0.50
  12 -11  -4    2.05    0.52
 -12  11  -4    2.79    0.49
 -11  12   4    3.81    0.74
  -1  12  -4    3.26    0.71
  11   1  -4    5.10    0.87
  12  -1   4    3.41    0.48
  12  -1   4    3.26    0.61
  11 -12   4    2.52    0.48
  11   1   4    2.59    0.42
  11   1   4    2.75    0.58
 -11  12  -4    3.03    0.60
  12 -11   4    3.01    0.52
 -12  11   4    3.36    0.68
  12  -1  -4    3.96    0.75
  11 -12  -4    3.68    0.68
  12  -1  -4    2.03    0.40
  -1  12   4    3.57    0.87
   1  11  -4    2.06    0.56
  12 -12  -4   12.57    1.08
 -12  12  -4   14.01    1.20
   0  12   4   12.96    0.95
   0  12  -4   11.08    1.33
   0  12   4   14.40    1.72
  12   0   4   12.46    0.83
 -12  12   4   10.50    1.25
  12   0  -4   14.08    1.45
  12 -12   4   13.65    0.97
  12   0  -4   11.40    0.85
  12   0   4   11.19    1.05
   7   6  -4   13.24    1.20
 -13   7  -4   11.49    0.85
  13  -7  -4   13.15    1.00
  13  -6   4   11.74    0.79
  -6  13  -4   11.93    1.41
   6 -13  -4   11.84    1.01
  13  -6   4   11.07    0.94
  13  -7  -4   13.01    1.33
  -7  13   4   10.47    1.38
   6   7   4   11.36    0.81
   7 -13   4   10.53    0.75
   7 -13  -4   11.69    1.15
  13  -6  -4    9.95    0.89
   6 -13   4   11.06    0.74
   7   6   4   11.27    0.81
  -6  13   4   11.27    1.48
   6   7  -4   12.44    1.27
  13  -6  -4   12.29    1.31
   7   6   4    9.42    1.09
  13  -7   4   11.68    0.81
  -7  13  -4    9.38    1.31
  13  -5   4    2.79    0.53
   8 -13   4    2.72    0.43
   5 -13  -4    3.34    0.63
 -13   8  -4    2.91    0.46
  13  -5   4    2.79    0.43
   5   8   4    1.65    0.55
  -8  13   4    2.60    0.68
  13  -8  -4    3.42    0.60
   8   5  -4    3.00    0.68
  -5  13  -4    2.48    0.74
   5   8   4    2.53    0.44
   8   5   4    3.05    0.62
  13  -8   4    2.96    0.47
  -8  13  -4    2.90    0.72
   5   8  -4    1.80    0.53
  -5  13   4    1.99    0.64
  13  -5  -4    3.42    0.69
   8   5   4    2.84    0.43
  13  -5  -4    2.66    0.52
   8 -13  -4    4.84    0.74
  -9  13   4    2.45    0.65
  13  -9  -4    1.04    0.37
   9 -13   4    1.72    0.36
  13  -4   4    2.19    0.49
   9   4  -4    1.69    0.52
   4   9   4    2.50    0.64
   4 -13  -4    1.70    0.45
   4   9   4    1.50    0.36
  -4  13  -4    1.26    0.54
 -13   9  -4    2.08    0.41
  13  -4   4    1.97    0.36
  13  -4  -4    2.01    0.57
   4   9  -4    1.53    0.48
  13  -4  -4    1.40    0.37
  -4  13   4    2.80    0.78
   9 -13  -4    1.87    0.49
  -9  13  -4    1.08    0.42
   9   4   4    1.46    0.45
  13  -9   4    1.48    0.41
   9   4   4    1.78    0.35
 -13   9   4    1.55    0.52
   3 -13  -4    1.32    0.41
   3  10   4    3.55    0.53
   3  10   4    3.97    0.80
  13  -3   4    3.53    0.60
  10   3  -4    2.72    0.68
 -13  10  -4    2.75    0.48
  -3  13  -4    2.11    0.64
  13 -10  -4    2.21    0.53
 -10  13   4    4.13    0.83
  10 -13   4    2.99    0.49
  10   3  -4    2.10    0.34
  13  -3   4    3.24    0.46
  13  -3  -4    2.21    0.56
  10   3   4    2.91    0.58
  13  -3  -4    2.46    0.46
  10 -13  -4    2.93    0.60
  -3  13   4    2.45    0.78
 -10  13  -4    2.29    0.58
 -13  10   4    2.49    0.60
   3  10  -4    1.70    0.53
  10   3   4    2.28    0.41
  13 -10   4    2.78    0.51
   2  11   4    0.11    0.36
 -11  13   4   -0.40    0.25
 -13  11  -4    0.11    0.19
  13  -2   4   -0.15    0.13
  13  -2   4   -0.25    0.28
  11   2  -4    0.28    0.35
  13 -11  -4   -0.14    0.20
   2  11   4   -0.07    0.18
  11   2  -4    0.07    0.12
  11 -13   4    0.44    0.26
  -2  13  -4   -0.11    0.31
   2 -13  -4   -0.35    0.24
  -2  13   4    0.41    0.44
 -11  13  -4    0.25    0.29
  13  -2  -4    0.05    0.26
  11   2   4   -0.07    0.16
 -13  11   4    0.57    0.33
  13 -11   4    0.30    0.26
  11   2   4   -0.09    0.29
  11 -13  -4   -0.18    0.22
  13  -2  -4   -0.04    0.17
   2  11  -4   -0.31    0.20
  13  -1   4    0.05    0.28
  12   1  -4   -0.08    0.15
   1  12   4    0.01    0.18
  13  -1   4    0.44    0.22
 -12  13   4    0.33    0.35
  13 -12  -4    0.28    0.29
  12   1  -4   -0.10    0.31
  12 -13   4    0.19    0.22
   1  12   4    1.42    0.58
 -13  12  -4    0.43    0.27
  -1  13  -4    0.19    0.35
  12   1   4    0.24    0.32
  13  -1  -4    0.21    0.20
  -1  13   4   -0.08    0.35
  13  -1  -4    0.93    0.45
   1  12  -4   -0.25    0.25
  12 -13  -4    0.49    0.35
 -13  12   4    0.45    0.34
  -1  13   4    0.16    0.19
  13 -12   4    0.04    0.20
  12   1   4    0.30    0.21
 -12  13  -4    0.63    0.32
   0  13   4    1.41    0.60
   0  13   4    0.71    0.30
  13   0  -4    0.55    0.46
 -13  13  -4    1.77    0.50
  13   0   4    1.64    0.43
  13 -13  -4    1.17    0.41
   0  13  -4    1.48    0.56
  13 -13   4    1.68    0.42
 -13  13   4    1.53    0.52
  13   0   4    0.94    0.28
  13   0  -4    0.69    0.25
 -14   7  -4   22.17    1.38
  14  -7  -4   23.80    1.76
  14  -7   4   22.58    1.29
   7 -14  -4   22.25    1.52
   7   7   4   20.33    1.23
  -7  14   4   23.13    1.96
  -7  14  -4   22.46    1.86
  14  -7  -4   23.68    1.47
  14  -6   4    0.42    0.29
   8   6  -4    0.27    0.36
   6   8   4    0.52    0.22
  14  -8  -4    0.48    0.41
  14  -6   4    0.53    0.24
  -6  14  -4    0.76    0.47
   6   8   4    0.62    0.38
  14  -8  -4    0.43    0.28
   8 -14   4    0.47    0.23
   6 -14  -4    0.90    0.36
 -14   8  -4    0.50    0.28
  -8  14   4    0.87    0.47
  14  -6  -4    0.68    0.33
  14  -6  -4    1.04    0.45
   8 -14  -4    0.83    0.37
  14  -8   4    0.56    0.28
   8   6   4    0.30    0.29
   8   6   4    0.48    0.23
  -8  14  -4    0.07    0.34
   6   8  -4    0.78    0.42
  -6  14   4    0.62    0.44
  -9  14   4    3.57    0.83
  14  -5   4    3.98    0.52
  14  -5   4    3.56    0.61
   5   9   4    4.22    0.81
   9 -14   4    3.54    0.53
  14  -9  -4    4.79    0.76
  -5  14  -4    4.17    0.91
 -14   9  -4    3.79    0.57
   5 -14  -4    3.68    0.66
   9   5  -4    4.33    0.83
   5   9   4    4.45    0.58
   9   5   4    3.82    0.70
   5   9  -4    3.65    0.75
  -9  14  -4    4.16    0.88
 -14   9   4    4.82    0.82
  14  -5  -4    3.81    0.63
  -5  14   4    5.71    1.10
   9 -14  -4    3.44    0.66
  14  -9   4    4.47    0.65
  14  -5  -4    4.68    0.86
   9   5   4    3.22    0.48
  14 -10  -4    3.53    0.65
   4  10   4    2.07    0.60
 -14  10  -4    2.63    0.48
  -4  14  -4    4.11    0.88
   4 -14  -4    2.36    0.56
  10 -14   4    1.95    0.42
  14  -4   4    1.95    0.38
   4  10   4    2.22    0.42
 -10  14   4    2.25    0.67
  10   4  -4    2.33    0.64
  14  -4   4    1.77    0.50
  14  -4  -4    2.53    0.49
  10   4   4    1.88    0.52
 -10  14  -4    4.38    0.86
  14  -4  -4    2.55    0.66
  10   4   4    2.38    0.41
  -4  14   4    3.69    0.92
 -14  10   4    3.00    0.67
  14 -10   4    2.55    0.51
  10 -14  -4    2.66    0.58
   4  10  -4    2.26    0.58
  14 -11  -4    2.06    0.53
   3  11   4    1.97    0.64
  11   3  -4    2.77    0.69
  14  -3   4    2.16    0.51
   3 -14  -4    2.11    0.52
 -14  11  -4    2.07    0.42
  -3  14  -4    2.28    0.68
 -11  14   4    1.97    0.60
  11 -14   4    1.98    0.42
   3  11   4    1.93    0.41
  14  -3   4    2.33    0.41
  14 -11   4    3.26    0.58
  14  -3  -4    2.11    0.46
  11 -14  -4    2.01    0.53
  14  -3  -4    3.31    0.73
  11   3   4    2.43    0.40
  -3  14   4    1.68    0.67
 -14  11   4    2.70    0.65
 -11  14  -4    1.67    0.54
   3  11  -4    2.43    0.63
  11   3   4    1.17    0.46
  14  -2   4    2.59    0.60
 -14  12  -4    3.30    0.59
  14  -2   4    3.23    0.47
  12   2  -4    2.68    0.44
   2  12   4    4.02    0.90
  -2  14  -4    3.47    0.82
 -12  14   4    2.16    0.63
   2 -14  -4    2.74    0.60
  12 -14   4    3.51    0.57
   2  12   4    3.96    0.57
  12   2  -4    3.58    0.75
  14 -12  -4    4.33    0.74
 -12  14  -4    3.44    0.73
  12   2   4    3.05    0.46
 -14  12   4    3.47    0.73
  -2  14   4    2.34    0.82
   2  12  -4    3.11    0.74
  12 -14  -4    4.31    0.76
  14  -2  -4    3.35    0.56
  14  -2  -4    4.40    0.86
  14 -12   4    3.75    0.61
  12   2   4    2.78    0.64
   1  13   4    0.51    0.45
  13   1  -4    0.61    0.41
  14  -1   4    0.40    0.22
 -14  13  -4   -0.10    0.23
  14 -13  -4    0.41    0.31
  13 -14   4    0.46    0.28
  13   1  -4    0.39    0.21
   1  13   4    0.36    0.23
  14  -1   4    0.45    0.35
  -1  14  -4    0.23    0.36
 -13  14   4    0.24    0.34
  -1  14   4    0.44    0.52
  -1  14   4    0.69    0.30
   1  13  -4    0.11    0.32
  13   1   4    0.86    0.40
  14  -1  -4    0.35    0.37
 -14  13   4    0.17    0.31
  13   1   4    0.24    0.20
  13 -14  -4    0.60    0.37
  14 -13   4    0.28    0.28
  14  -1  -4    0.43    0.23
 -13  14  -4    0.30    0.32
  14 -14   4   10.37    1.04
  14   0   4   10.57    0.79
   0  14  -4   11.56    1.46
  14   0   4   12.43    1.29
 -14  14   4   11.00    1.39
  14   0  -4   13.38    1.53
   0  14   4   11.17    1.64
 -14  14  -4   10.10    1.23
  14   0  -4    8.94    0.80
  14 -14  -4   11.32    1.25
 -15   8  -4    0.40    0.26
  15  -8  -4   -0.16    0.20
   7 -15  -4    0.44    0.33
   7   8   4    0.52    0.24
  -7  15  -4   -0.10    0.28
  15  -7   4    0.45    0.23
   8   7  -4   -0.01    0.32
  -8  15   4    0.42    0.41
   7   8   4   -0.23    0.28
  15  -8  -4   -0.12    0.36
  15  -8   4    0.37    0.23
   7   8  -4    0.44    0.39
   8   7   4    0.38    0.21
  15  -7  -4    0.41    0.42
  15  -7  -4    0.42    0.26
   8 -15  -4    0.30    0.33
  -8  15  -4   -0.20    0.31
   8   7   4    0.59    0.46
  -7  15   4    0.88    0.51
  -9  15   4    7.79    1.25
   9   6  -4    6.97    1.08
  15  -6   4    5.91    0.68
   6   9   4    5.85    0.94
   9 -15   4    5.83    0.67
  15  -9  -4    6.07    0.87
  -6  15  -4    7.83    1.26
 -15   9  -4    6.23    0.74
   6 -15  -4    5.88    0.86
   6   9   4    5.40    0.64
   9 -15  -4    7.75    1.00
  15  -6  -4    5.65    0.81
  -6  15   4    5.84    1.17
  15  -9   4    5.29    0.75
   9   6   4    6.53    0.95
  -9  15  -4    7.14    1.19
   9   6   4    6.15    0.64
 -15   9   4    6.94    1.04
   6   9  -4    6.40    1.02
  15  -6  -4    6.65    1.07
   5 -15  -4    0.96    0.36
 -10  15   4    1.73    0.59
   5  10   4    0.85    0.29
  -5  15  -4    0.55    0.47
  15 -10  -4    1.32    0.43
   5  10   4    1.16    0.46
 -15  10  -4    1.23    0.32
  10 -15   4    1.32    0.36
  10   5  -4    1.02    0.50
  15  -5   4    1.36    0.35
  10 -15  -4    2.50    0.59
  -5  15   4    0.18    0.49
  10   5   4    1.53    0.45
 -15  10   4    1.26    0.51
  15 -10   4    1.19    0.39
  15  -5  -4    1.69    0.55
 -10  15  -4    0.20    0.37
  15  -5  -4    1.54    0.44
  10   5   4    1.25    0.31
   5  10  -4    1.27    0.47
  15 -11  -4    0.52    0.32
   4  11   4    0.84    0.29
  15  -4   4    0.41    0.24
  11   4  -4    0.38    0.41
 -15  11  -4    1.02    0.32
   4  11   4    0.46    0.42
 -11  15   4    0.60    0.38
  11 -15   4    0.13    0.24
   4 -15  -4    0.36    0.31
  -4  15  -4    1.33    0.52
  11   4   4    1.00    0.27
  15 -11   4    0.40    0.32
 -15  11   4    0.32    0.34
  15  -4  -4    0.70    0.42
  -4  15   4    1.33    0.60
  11   4   4    0.36    0.35
  15  -4  -4    0.44    0.27
 -11  15  -4    0.20    0.41
   4  11  -4    1.11    0.47
  11 -15  -4    1.56    0.52
  15  -3   4    1.61    0.34
 -12  15   4    1.58    0.57
 -15  12  -4    1.33    0.39
   3  12   4    2.28    0.70
  15 -12  -4    1.75    0.54
   3 -15  -4    0.71    0.38
  -3  15  -4    1.61    0.62
  12   3  -4    1.25    0.56
  12 -15   4    2.46    0.51
  -3  15   4    2.61    0.75
  12   3   4    1.40    0.46
   3  12  -4    1.96    0.60
  12 -15  -4    1.79    0.54
  15  -3  -4    2.28    0.64
  12   3   4    1.60    0.34
  15 -12   4    0.91    0.37
 -12  15  -4    1.37    0.51
  15  -3  -4    1.45    0.40
 -15  12   4    1.76    0.55
 -15  13  -4    6.36    0.91
 -13  15   4   10.64    1.41
  13 -15   4    7.67    0.88
  15  -2   4    7.79    0.67
  13   2  -4    6.46    1.09
   2  13   4    8.00    1.31
  15 -13  -4    7.27    1.01
  -2  15  -4    7.49    1.21
  13   2   4    8.93    1.12
 -15  13   4    8.06    1.18
  15  -2  -4    5.75    1.04
   2  13  -4    7.14    1.13
  15  -2  -4    6.53    0.79
  -2  15   4    9.37    1.56
  13 -15  -4    7.50    1.04
 -13  15  -4    7.00    1.07
  -2  15   4    7.38    0.84
  15 -13   4    7.75    0.92
  13   2   4    8.36    0.66
  14 -15   4    0.85    0.33
 -15  14  -4    0.45    0.35
  15 -14  -4    0.21    0.32
 -14  15   4   -0.03    0.34
  15  -1   4    0.23    0.20
  14   1  -4    1.02    0.46
   1  14   4    0.77    0.53
  -1  15  -4    0.52    0.44
  14 -15  -4    0.22    0.31
  15 -14   4    0.26    0.31
 -14  15  -4    0.19    0.37
  15  -1  -4    0.18    0.23
  -1  15   4    0.48    0.49
   1  14  -4    0.55    0.42
 -15  14   4   -0.06    0.34
  14   1   4    0.43    0.24
  14   1   4    0.37    0.36
  15  -1  -4    0.18    0.47
  15 -15  -4    3.59    0.75
  15   0  -4    2.11    0.66
   0  15   4    4.97    1.15
  15   0   4    3.59    0.51
  15 -15   4    2.55    0.55
 -15  15   4    3.69    0.86
  15   0  -4    2.93    0.54
   0  15  -4    3.62    0.86
 -15  15  -4    2.31    0.58
  16  -8   4    1.44    0.46
   8   8   4    1.90    0.55
   8   8  -4    1.71    0.56
   8 -16  -4    1.37    0.45
  -8  16   4    1.30    0.59
  16  -8  -4    1.75    0.47
  16  -8  -4    2.31    0.67
   8   8   4    1.92    0.38
  -8  16  -4    1.25    0.57
  16  -7   4    1.69    0.42
   7   9   4    1.99    0.40
   7 -16  -4    2.41    0.55
  16  -9  -4    2.97    0.60
  -9  16   4    1.79    0.66
   7   9   4    1.76    0.53
   9   7  -4    0.92    0.48
  -7  16  -4    1.71    0.64
   9 -16  -4    2.58    0.59
  -9  16  -4    2.46    0.71
   7   9  -4    2.38    0.67
  -7  16   4    1.16    0.64
  16  -7  -4    2.33    0.54
  16  -7  -4    2.58    0.69
  16  -9   4    2.25    0.53
   9   7   4    1.63    0.56
   9   7   4    2.23    0.41
  -6  16  -4    2.81    0.77
   6  10   4    2.07    0.59
  10   6  -4    3.52    0.80
   6 -16  -4    4.48    0.73
  16 -10  -4    3.00    0.65
  16  -6   4    2.76    0.52
 -10  16   4    3.90    0.95
  16  -6  -4    2.95    0.72
  16  -6  -4    3.30    0.62
 -16  10   4    2.40    0.66
  10 -16  -4    3.17    0.69
  10   6   4    3.77    0.73
  -6  16   4    2.51    0.76
 -10  16  -4    2.63    0.76
  10   6   4    3.56    0.52
   6  10  -4    2.41    0.68
  16 -10   4    2.52    0.54
   5  11   4    1.73    0.60
  16  -5   4    1.99    0.41
 -11  16   4    1.55    0.60
   5 -16  -4    2.08    0.52
  11 -16   4    1.74    0.43
  -5  16  -4    1.56    0.64
  11   5  -4    1.76    0.58
  16 -11  -4    2.34    0.56
  11   5   4    1.98    0.37
 -11  16  -4    1.19    0.55
  -5  16   4    0.77    0.64
 -16  11   4    1.28    0.52
   5  11  -4    2.15    0.64
  16  -5  -4    2.31    0.52
  16  -5  -4    1.74    0.57
  11 -16  -4    0.93    0.44
  11   5   4    1.91    0.53
  16 -11   4    2.14    0.53
   4  12   4    2.02    0.65
  16  -4   4    1.13    0.36
  12 -16   4    1.58    0.44
  16 -12  -4    1.30    0.49
 -12  16   4    1.74    0.64
  -4  16  -4    0.67    0.54
  12   4  -4    0.78    0.50
  -4  16   4    1.73    0.73
  12   4   4    1.97    0.56
  16 -12   4    1.68    0.45
   4  12  -4    0.78    0.49
  12   4   4    1.81    0.36
  12 -16  -4    1.67    0.49
 -16  12   4    1.55    0.52
 -12  16  -4    1.52    0.52
  16  -4  -4    1.23    0.55
  16  -4  -4    1.07    0.35
  -3  16  -4    1.37    0.62
 -13  16   4    0.75    0.48
  16  -3   4    1.95    0.41
  13   3  -4    1.84    0.64
   3  13   4    2.38    0.71
  13 -16   4    2.80    0.55
  16 -13  -4    2.58    0.65
  13   3   4    1.28    0.47
  16  -3  -4    2.12    0.64
  16  -3  -4    1.56    0.44
  -3  16   4    3.69    1.05
  13 -16  -4    1.99    0.61
  16 -13   4    1.89    0.47
   3  13  -4    1.18    0.50
 -16  13   4    1.98    0.59
 -13  16  -4    1.03    0.49
  13   3   4    2.49    0.41
  14   2  -4    7.52    1.22
  16  -2   4    6.13    0.69
  -2  16  -4    6.41    1.19
 -14  16   4    4.86    1.02
  14 -16   4    6.65    0.87
   2  14   4    7.96    1.34
  16 -14  -4    6.23    0.99
  16  -2  -4    6.60    1.15
  14 -16  -4    6.15    0.97
  16  -2  -4    5.46    0.76
 -14  16  -4    6.66    1.08
  14   2   4    5.39    0.93
   2  14  -4    5.51    1.04
 -16  14   4    7.57    1.17
  14   2   4    6.97    0.69
  16 -14   4    5.85    0.83
  -2  16   4    6.67    1.34
   1  15   4    2.29    0.78
  15   1  -4    0.55    0.47
  -1  16  -4    0.36    0.46
  16  -1   4    1.25    0.33
  15 -16   4    0.84    0.39
 -15  16   4    1.04    0.50
  16 -15  -4    0.45    0.37
   1  15  -4    1.07    0.50
  15   1   4    1.08    0.31
  16  -1  -4    1.75    0.61
  16 -15   4    1.26    0.45
  16  -1  -4    0.57    0.31
 -16  15   4    1.07    0.55
  -1  16   4    0.40    0.57
  15 -16  -4    1.79    0.56
 -15  16  -4    0.38    0.39
  16 -16   4    0.13    0.32
 -16  16   4    0.34    0.39
  16   0  -4    0.71    0.42
  16 -16  -4   -0.15    0.37
  16   0   4    0.22    0.19
   0  16   4   -0.72    0.47
   0  16  -4    0.81    0.48
  -8  17  -4    0.53    0.45
   8   9   4    0.22    0.37
   9   8  -4    1.27    0.50
   8 -17  -4    2.04    0.54
  17  -9  -4    1.03    0.42
  17  -9  -4    1.36    0.56
  -9  17   4    2.05    0.75
  17  -8   4    1.19    0.44
  -9  17  -4    0.54    0.51
  17  -8  -4    0.94    0.36
  17  -8  -4    0.67    0.50
   9   8   4    1.25    0.47
  -8  17   4    0.55    0.57
   9 -17  -4    1.14    0.48
   8   9  -4    2.07    0.67
   9   8   4    1.30    0.31
  17  -9   4    1.50    0.47
  17 -10  -4    0.60    0.35
  -7  17  -4    0.78    0.46
 -10  17   4    1.08    0.55
  17  -7   4    0.78    0.30
   7  10   4    0.90    0.48
  10   7  -4    0.82    0.47
   7 -17  -4    0.74    0.39
   7  10  -4    0.78    0.51
  10   7   4    0.51    0.38
  10 -17  -4    0.42    0.35
  17 -10   4    0.82    0.37
 -10  17  -4    0.64    0.46
  -7  17   4    0.78    0.61
  17  -7  -4    0.32    0.31
  17  -7  -4    1.80    0.63
 -17  10   4    1.06    0.53
  10   7   4    0.85    0.27
   6 -17  -4    1.32    0.43
 -11  17   4    0.76    0.57
  17 -11  -4    0.93    0.42
  -6  17  -4    0.51    0.47
  11   6  -4    1.44    0.55
   6  11   4    0.59    0.39
  17  -6   4    1.22    0.37
  11 -17  -4    1.56    0.55
  17 -11   4    0.97    0.39
  11   6   4    0.06    0.36
  -6  17   4    1.51    0.64
  11   6   4    1.58    0.34
   6  11  -4    0.86    0.47
  17  -6  -4    0.99    0.56
 -17  11   4    0.97    0.50
  17  -6  -4    1.25    0.41
 -11  17  -4    1.83    0.70
  17 -12  -4    2.72    0.65
  12 -17   4    1.93    0.43
  12   5  -4    2.20    0.68
   5  12   4    0.59    0.46
  -5  17  -4    2.33    0.70
  17  -5   4    1.56    0.43
 -12  17   4    2.50    0.70
 -12  17  -4    3.31    0.80
  17  -5  -4    1.35    0.54
  17  -5  -4    1.50    0.42
  12   5   4    2.42    0.62
  12 -17  -4    1.80    0.59
  -5  17   4    1.59    0.77
 -17  12   4    2.00    0.60
  17 -12   4    1.90    0.53
  12   5   4    1.95    0.38
   5  12  -4    1.32    0.52
  -4  17  -4    1.40    0.71
  17 -13  -4    1.05    0.47
  17  -4   4    1.51    0.39
   4  13   4    1.41    0.59
 -13  17   4    0.12    0.69
  13 -17   4    2.30    0.50
  13   4  -4    1.22    0.61
  17  -4  -4    1.92    0.46
  13   4   4    1.87    0.55
  -4  17   4    3.24    0.91
  13 -17  -4    1.62    0.56
 -17  13   4    1.36    0.53
  13   4   4    2.10    0.40
  17 -13   4    2.26    0.52
  17  -4  -4    2.30    0.66
 -13  17  -4    1.57    0.63
   4  13  -4    1.01    0.50
  -3  17  -4    3.88    0.95
  17  -3   4    4.08    0.58
  14   3  -4    3.50    0.83
 -14  17   4    4.09    0.90
  14 -17   4    4.08    0.68
   3  14   4    2.75    0.78
  17 -14  -4    2.88    0.70
 -17  14   4    2.41    0.70
  17  -3  -4    3.86    0.88
  17  -3  -4    3.58    0.62
   3  14  -4    2.83    0.75
 -14  17  -4    2.63    0.74
  -3  17   4    3.87    1.01
  14   3   4    3.35    0.72
  14   3   4    3.83    0.52
  17 -14   4    3.60    0.67
  14 -17  -4    3.34    0.75
  17  -2   4    0.61    0.28
  17 -15  -4    1.23    0.52
  -2  17  -4    0.85    0.50
  15 -17   4    0.58    0.37
 -15  17   4    0.08    0.46
   2  15   4    0.57    0.57
  15   2  -4    1.11    0.56
  17  -2  -4    0.16    0.26
 -15  17  -4    0.43    0.48
 -17  15   4    0.85    0.43
  15 -17  -4    0.67    0.40
  17  -2  -4    0.98    0.57
   2  15  -4    1.20    0.56
  15   2   4    0.42    0.22
  17 -15   4    0.83    0.37
  -2  17   4    1.69    0.68
  17 -16  -4   -0.02    0.34
   1  16   4   -0.52    0.43
  16 -17   4   -0.08    0.31
  -1  17  -4   -0.23    0.40
  16   1  -4   -0.38    0.39
 -16  17   4   -0.14    0.33
   1  16  -4    0.12    0.41
  16 -17  -4    0.40    0.38
  17  -1  -4   -0.10    0.37
  -1  17   4   -0.60    0.40
  16   1   4   -0.13    0.20
 -17  16   4    0.36    0.36
  17 -16   4   -0.32    0.28
   0  17   4    1.15    0.67
  17 -17  -4    1.88    0.55
  17 -17   4    2.70    0.65
 -17  17   4    1.45    0.56
   0  17  -4    0.52    0.52
  17   0  -4    1.25    0.65
  17   0   4    1.28    0.35
  -9  18  -4    1.22    0.51
  18  -9   4    0.21    0.30
  18  -9  -4    0.09    0.29
   9   9  -4    0.34    0.37
   9 -18  -4   -0.22    0.29
  -9  18   4    0.24    0.48
   9   9   4    1.44    0.47
  18  -9  -4    0.26    0.43
  18  -8   4    0.79    0.44
   8  10   4    0.63    0.44
 -10  18   4    0.30    0.41
  -8  18  -4   -0.01    0.47
  10   8  -4    0.60    0.49
  18 -10  -4    1.09    0.43
   8 -18  -4    0.28    0.32
  -8  18   4    1.54    0.64
  18  -8  -4    1.19    0.42
  10 -18  -4    0.35    0.41
  18  -8  -4    0.79    0.54
  18 -10   4    0.62    0.36
  10   8   4    1.01    0.47
   8  10  -4    1.45    0.57
 -10  18  -4    1.16    0.56
 -18  10   4    0.69    0.48
 -11  18   4    1.11    0.62
  -7  18  -4    0.60    0.49
  18  -7   4    0.71    0.42
  18 -11  -4    1.16    0.46
   7  11   4    0.57    0.42
  11   7  -4    1.00    0.56
  11   7   4    1.08    0.45
 -11  18  -4    1.24    0.59
 -18  11   4    1.05    0.53
  18  -7  -4    0.63    0.35
   7  11  -4    0.73    0.46
  -7  18   4    0.90    0.65
  18 -11   4    1.47    0.49
  18  -7  -4    2.10    0.63
  11 -18  -4    1.43    0.52
  18 -12  -4   -0.02    0.29
 -12  18   4    0.62    0.50
   6  12   4    1.25    0.53
  12   6  -4    0.33    0.44
  18  -6   4    0.96    0.32
  -6  18  -4    0.61    0.50
  18  -6  -4    1.32    0.45
  -6  18   4    0.98    0.64
 -18  12   4    0.85    0.49
  12   6   4    0.15    0.34
  12   6   4    0.58    0.27
   6  12  -4    0.43    0.50
 -12  18  -4    0.54    0.45
  18  -6  -4    0.27    0.41
  18 -12   4    0.31    0.29
  12 -18  -4    0.62    0.46
   5  13   4    4.05    0.92
  -5  18  -4    5.18    1.17
  18 -13  -4    4.48    0.86
 -13  18   4    4.82    1.05
  13   5  -4    4.15    0.95
  18  -5   4    4.96    0.70
 -18  13   4    5.23    0.96
  18  -5  -4    3.91    0.69
   5  13  -4    3.92    0.85
  13   5   4    4.12    0.55
  18  -5  -4    4.10    0.88
  -5  18   4    4.59    1.11
 -13  18  -4    4.29    0.95
  13 -18  -4    4.16    0.81
  18 -13   4    4.53    0.75
  14 -18   4    0.21    0.30
   4  14   4    1.39    0.50
  18 -14  -4   -0.36    0.28
  18  -4   4    0.19    0.26
 -14  18   4   -0.50    0.39
  -4  18  -4    0.58    0.55
  14   4  -4   -0.34    0.43
 -14  18  -4   -0.48    0.40
   4  14  -4    0.15    0.35
 -18  14   4    0.78    0.45
  18 -14   4    0.46    0.32
  -4  18   4    0.68    0.57
  14   4   4    0.32    0.22
  18  -4  -4    0.51    0.45
  14 -18  -4    0.05    0.33
  18  -4  -4    0.32    0.25
  14   4   4    0.05    0.33
  18  -3   4    1.18    0.39
 -15  18   4    1.24    0.57
  -3  18  -4    1.37    0.64
  18 -15  -4    1.06    0.51
  15   3  -4    0.40    0.50
  15 -18   4    2.36    0.56
   3  15   4    1.11    0.62
  15   3   4    0.97    0.31
  18  -3  -4    2.06    0.69
  15 -18  -4    1.21    0.49
 -15  18  -4    2.06    0.64
  -3  18   4    0.82    0.68
   3  15  -4    0.84    0.48
 -18  15   4    1.68    0.59
  18 -15   4    1.03    0.43
  18  -3  -4    0.68    0.33
  16 -18   4    0.06    0.32
 -16  18   4    0.22    0.37
  -2  18  -4    0.90    0.46
   2  16   4    0.62    0.49
  18 -16  -4    0.41    0.38
  18  -2   4    0.08    0.21
  16   2  -4    1.78    0.65
  18  -2  -4    0.35    0.47
  18  -2  -4    0.32    0.27
  16 -18  -4    0.09    0.33
   2  16  -4    0.21    0.40
  18 -16   4    0.60    0.40
  -2  18   4    0.19    0.61
 -18  16   4    1.06    0.47
  16   2   4    0.27    0.20
   1  17   4    0.07    0.49
  18 -17  -4    0.36    0.39
  18  -1   4    0.29    0.21
 -17  18   4    0.08    0.42
  17   1  -4    1.00    0.55
  17 -18   4    1.13    0.44
  -1  18  -4    0.37    0.47
   1  17  -4   -0.36    0.38
  -1  18   4    0.50    0.62
  17   1   4   -0.07    0.20
  18  -1  -4    1.07    0.49
  17 -18  -4    1.01    0.47
 -18  17   4    0.65    0.48
  18 -17   4    0.09    0.34
  18   0  -4    0.89    0.56
  18 -18  -4    0.16    0.36
   0  18   4   -0.89    0.45
   0  18  -4   -0.17    0.33
  18 -18   4    0.12    0.31
 -18  18   4   -0.58    0.39
  18   0   4    0.28    0.21
 -10  19   4   -0.59    0.41
  19  -9   4    0.06    0.28
   9  10   4    0.43    0.43
  -9  19  -4    0.47    0.47
   9 -19  -4   -0.01    0.31
  19 -10  -4    0.02    0.26
  10   9  -4    0.39    0.46
   9  10  -4   -0.76    0.28
  19  -9  -4    0.15    0.50
  19 -10   4    0.27    0.35
  10   9   4   -0.26    0.34
  10 -19  -4   -0.34    0.29
  -9  19   4    1.10    0.58
  19  -9  -4   -0.32    0.25
 -10  19  -4    0.28    0.45
 -19  10   4   -0.32    0.41
  11   8  -4    0.17    0.38
  19  -8   4   -0.09    0.27
  -8  19  -4   -0.22    0.42
 -11  19   4   -0.83    0.43
  19 -11  -4    0.45    0.39
   8  11   4   -0.18    0.36
  19 -11   4   -0.31    0.24
 -11  19  -4    0.13    0.43
 -19  11   4    0.15    0.40
  19  -8  -4    0.09    0.28
   8  11  -4   -0.05    0.37
  11 -19  -4    0.07    0.33
  -8  19   4    0.55    0.63
  19  -8  -4    0.47    0.43
  11   8   4    0.19    0.36
  -7  19  -4   -0.77    0.40
  12   7  -4    0.51    0.45
   7  12   4    0.22    0.40
 -12  19   4    0.90    0.54
  19  -7   4    0.02    0.35
  19 -12  -4    0.53    0.33
  19  -7  -4    0.38    0.38
  -7  19   4    0.09    0.54
 -19  12   4    0.62    0.45
  19 -12   4    0.51    0.34
  12   7   4    0.91    0.47
 -12  19  -4    0.83    0.48
  19  -7  -4    0.02    0.27
  12 -19  -4    0.46    0.41
   7  12  -4    0.16    0.35
  13   6  -4    2.47    0.70
  19 -13  -4    2.28    0.61
 -13  19   4    1.29    0.64
   6  13   4    1.97    0.66
  19  -6   4    1.58    0.50
  -6  19  -4    0.67    0.58
  -6  19   4    2.44    0.86
   6  13  -4    1.31    0.60
 -13  19  -4    1.54    0.66
  19  -6  -4    0.87    0.34
  19  -6  -4    0.74    0.52
 -19  13   4    1.87    0.63
  13 -19  -4    0.80    0.45
  19 -13   4    1.06    0.44
  13   6   4    1.39    0.48
   5  14   4    3.12    0.79
 -14  19   4    3.46    0.90
  14   5  -4    4.08    0.90
  -5  19  -4    5.96    1.16
  19  -5   4    3.14    0.59
  19 -14  -4    3.66    0.82
  14   5   4    3.32    0.77
  14 -19  -4    3.90    0.83
  -5  19   4    2.53    0.91
 -19  14   4    3.61    0.85
  19  -5  -4    1.69    0.50
  19 -14   4    4.07    0.74
   5  14  -4    2.91    0.78
  19  -5  -4    3.46    0.79
 -14  19  -4    3.48    0.94
   4  15   4    0.17    0.47
  -4  19  -4   -0.15    0.42
  19 -15  -4    0.18    0.34
  15   4  -4   -0.53    0.43
 -15  19   4    0.07    0.40
  19  -4   4    0.18    0.25
  19  -4  -4   -0.49    0.38
  19 -15   4    0.11    0.34
  15 -19  -4    0.02    0.34
   4  15  -4   -0.14    0.33
  19  -4  -4    0.71    0.30
 -15  19  -4   -0.04    0.47
 -19  15   4    0.09    0.39
  -4  19   4    1.31    0.62
 -16  19   4    0.42    0.81
   3  16   4   -1.13    0.42
  16 -19   4   -0.28    0.30
  19  -3   4    0.38    0.27
  19 -16  -4   -0.46    0.30
  -3  19  -4    0.02    0.38
  16   3  -4   -0.10    0.43
  16   3   4    0.00    0.17
   3  16  -4    0.16    0.38
  16 -19  -4   -0.17    0.32
  19  -3  -4    0.56    0.47
  19  -3  -4   -0.10    0.24
  -3  19   4    0.67    0.59
  19 -16   4   -0.09    0.31
 -19  16   4    0.58    0.43
   2  17   4    1.00    0.64
  17   2  -4    0.52    0.53
  17 -19   4    0.02    0.33
 -17  19   4    0.13    0.41
  -2  19  -4    0.05    0.45
  19 -17  -4    0.82    0.48
  19  -2   4    0.62    0.30
  17 -19  -4    0.66    0.42
  17   2   4    0.87    0.29
   2  17  -4    0.49    0.45
 -19  17   4    0.95    0.48
  -2  19   4    0.35    0.63
  19 -17   4    0.15    0.33
  19  -2  -4    0.79    0.49
   1  18   4   -0.16    0.43
 -18  19   4    0.44    0.47
  18 -19   4   -0.11    0.33
  19  -1   4   -0.17    0.24
  18   1  -4   -0.80    0.44
  19 -18  -4   -0.20    0.35
  -1  19  -4   -0.09    0.40
   1  18  -4    0.50    0.45
  18   1   4   -0.04    0.18
  18 -19  -4    0.12    0.36
  19 -18   4   -0.15    0.32
  -1  19   4    0.36    0.52
  19  -1  -4    0.36    0.52
 -19  18   4   -0.21    0.40
  19   0  -4   -0.20    0.45
  19 -19  -4    0.03    0.32
  19   0   4    0.09    0.24
   0  19  -4   -0.28    0.36
 -19  19   4    0.38    0.44
  19 -19   4    0.20    0.33
   0  19   4    1.24    0.56
 -10  20   4    1.11    0.64
 -20  10   4    1.29    0.64
  10  10  -4    0.84    0.56
 -10  20  -4    0.14    0.50
  20 -10   4    1.00    0.46
  10  10   4    0.42    0.42
  20 -10  -4    0.35    0.34
  20 -11  -4    0.52    0.34
  -9  20  -4    0.29    0.51
   9  11   4    1.41    0.52
  20  -9   4    0.33    0.35
  11   9  -4    0.34    0.41
 -11  20   4   -0.65    0.43
  11 -20  -4    0.83    0.44
   9  11  -4    0.00    0.42
  20  -9  -4    2.31    0.68
  11   9   4    0.46    0.42
  20 -11   4    0.27    0.34
 -11  20  -4   -0.01    0.49
 -20  11   4   -0.02    0.38
  -9  20   4    0.66    0.67
  20  -9  -4    0.46    0.35
  -8  20  -4   -0.17    0.49
  20 -12  -4    0.48    0.34
  12   8  -4    0.44    0.45
 -12  20   4    0.11    0.50
   8  12   4    0.10    0.36
  20  -8   4    0.30    0.36
  20  -8  -4   -0.24    0.40
  20 -12   4    0.25    0.41
  12 -20  -4    0.75    0.39
   8  12  -4   -0.28    0.35
  12   8   4    0.72    0.42
  20  -8  -4    0.85    0.35
 -20  12   4    0.62    0.49
 -12  20  -4    0.90    0.60
  -8  20   4    1.58    0.69
  -7  20  -4    0.08    0.46
   7  13   4    0.28    0.36
  20 -13  -4    0.77    0.41
  20  -7   4    0.91    0.45
  13   7  -4   -0.36    0.34
 -13  20   4    0.31    0.52
  20 -13   4    0.36    0.34
  20  -7  -4    0.28    0.30
  13 -20  -4    0.86    0.44
  20  -7  -4    1.16    0.52
  13   7   4   -0.37    0.34
  -7  20   4    0.76    0.70
   7  13  -4    1.29    0.53
 -20  13   4    0.32    0.44
 -13  20  -4    0.64    0.56
  20  -6   4    0.27    0.38
  -6  20  -4    1.09    0.60
  20 -14  -4    0.76    0.45
 -14  20   4    1.11    0.58
   6  14   4    2.12    0.64
  14   6  -4    1.34    0.58
 -14  20  -4    0.75    0.60
  20  -6  -4    2.01    0.68
  20 -14   4    1.39    0.46
  14 -20  -4    1.50    0.58
  20  -6  -4    1.71    0.50
   6  14  -4    2.31    0.71
  -6  20   4    2.05    0.68
 -20  14   4    0.78    0.47
  14   6   4    1.66    0.60
  20 -15  -4    0.97    0.52
 -15  20   4    0.54    0.51
  15   5  -4    0.35    0.49
   5  15   4    0.49    0.44
  20  -5   4    0.83    0.43
  -5  20  -4    1.12    0.64
  20  -5  -4    1.77    0.63
  20  -5  -4    0.86    0.37
 -20  15   4    1.13    0.52
  20 -15   4    1.77    0.57
 -15  20  -4    1.57    0.64
  -5  20   4    1.80    0.75
   5  15  -4    1.14    0.56
  15 -20  -4    1.36    0.52
  -4  20  -4    0.81    0.54
 -16  20   4    0.22    0.47
   4  16   4    0.22    0.48
  20 -16  -4   -0.50    0.30
  16   4  -4   -0.27    0.41
  20  -4   4    0.58    0.41
  20  -4  -4    0.29    0.33
  20 -16   4   -0.37    0.30
  16 -20  -4    0.39    0.44
  -4  20   4    1.32    0.70
   4  16  -4    0.63    0.44
  20  -4  -4   -0.57    0.40
 -20  16   4    0.46    0.40
 -17  20   4    0.01    0.46
  20  -3   4    0.70    0.34
   3  17   4    1.36    0.57
  17   3  -4    0.77    0.55
  20 -17  -4    0.58    0.42
  -3  20  -4    0.32    0.46
  -3  20   4    0.85    0.65
 -20  17   4    0.27    0.45
   3  17  -4   -0.47    0.35
  20 -17   4    0.55    0.42
  17 -20  -4    0.72    0.40
  20  -3  -4    0.81    0.57
  18   2  -4   -0.11    0.50
  -2  20  -4   -0.35    0.44
   2  18   4    0.27    0.57
  20  -2   4    0.04    0.23
 -18  20   4    0.35    0.49
  18 -20   4    0.05    0.31
  20 -18  -4   -0.20    0.33
  18 -20  -4    0.06    0.38
  20 -18   4   -0.03    0.37
 -20  18   4   -0.22    0.41
  20  -2  -4    0.46    0.52
   2  18  -4    0.16    0.43
  -2  20   4    1.22    0.70
  20 -19  -4    0.57    0.41
  19   1  -4    0.35    0.47
  -1  20  -4    0.68    0.46
   1  19   4    0.41    0.60
 -19  20   4    0.05    0.43
  20  -1   4   -0.08    0.23
  19 -20   4    0.17    0.40
  19 -20  -4   -0.57    0.36
  20 -19   4    0.88    0.45
   1  19  -4    0.01    0.43
 -20  19   4    0.65    0.49
  19   1   4    0.44    0.31
  -1  20   4    0.59    0.65
  20  -1  -4    0.95    0.58
 -20  20   4    0.23    0.49
   0  20   4    0.96    0.68
  20 -20  -4    0.45    0.44
   0  20  -4   -0.47    0.43
  20   0  -4    0.43    0.59
  20   0   4    0.35    0.30
  20 -20   4    0.76    0.46
  10  11   4    0.13    0.36
 -10  21  -4    0.53    0.50
 -11  21   4    0.63    0.54
 -21  10   4    0.66    0.64
  21 -11  -4    0.08    0.26
  11  10  -4   -0.26    0.35
  21 -10   4    0.30    0.33
  11  10   4   -0.28    0.40
  10  11  -4   -0.50    0.37
  21 -11   4    0.00    0.25
 -21  11   4    0.09    0.42
  21 -10  -4   -0.59    0.24
 -10  21   4   -0.74    0.53
 -11  21  -4    0.36    0.52
  12   9  -4    0.56    0.50
  21  -9   4    0.82    0.40
 -12  21   4    2.30    0.80
  -9  21  -4    0.45    0.60
  21 -12  -4    1.41    0.48
   9  12   4    0.91    0.45
 -21  12   4    1.53    0.59
 -12  21  -4    1.57    0.66
  12   9   4    1.03    0.53
   9  12  -4    1.36    0.59
  21  -9  -4    1.41    0.67
  -9  21   4    1.80    0.72
  21  -9  -4    1.63    0.50
  21 -12   4    0.59    0.40
  21  -8   4    0.48    0.38
  21 -13  -4    0.11    0.30
   8  13   4    0.24    0.38
  13   8  -4    0.11    0.49
 -13  21   4    0.47    0.53
  -8  21  -4    0.03    0.44
 -13  21  -4   -0.07    0.48
  13 -21  -4    0.79    0.42
   8  13  -4    0.04    0.43
 -21  13   4   -0.38    0.35
  21  -8  -4    0.14    0.29
  21  -8  -4    0.67    0.47
  21 -13   4   -0.15    0.31
  -8  21   4    0.99    0.66
  13   8   4   -0.14    0.44
  21  -7   4    0.02    0.29
  21 -14  -4    0.26    0.33
  -7  21  -4   -1.02    0.45
   7  14   4    0.60    0.43
 -14  21   4   -0.91    0.46
  14   7  -4   -0.10    0.41
  14   7   4   -0.54    0.37
  -7  21   4    0.36    0.57
  14 -21  -4   -0.28    0.36
 -14  21  -4   -0.08    0.51
  21 -14   4   -0.11    0.28
  21  -7  -4    0.32    0.49
  21  -7  -4    0.09    0.27
   7  14  -4   -0.18    0.34
 -21  14   4    0.05    0.40
  -6  21  -4    0.59    0.49
  15   6  -4    0.82    0.50
  21  -6   4    0.68    0.36
 -15  21   4    0.08    0.51
   6  15   4   -0.08    0.35
  21 -15  -4   -0.25    0.29
  -6  21   4    0.20    0.57
  21 -15   4   -0.22    0.31
  15 -21  -4    0.37    0.42
 -15  21  -4    0.07    0.50
  21  -6  -4   -0.24    0.46
   6  15  -4   -0.54    0.37
 -21  15   4   -0.08    0.37
  21  -6  -4    0.11    0.26
   5  16   4    0.36    0.52
  16   5  -4   -0.12    0.47
  21  -5   4    0.78    0.42
  21 -16  -4    1.22    0.56
  -5  21  -4    0.26    0.45
 -16  21   4    1.21    0.62
  21  -5  -4    0.66    0.50
  16 -21  -4   -0.95    0.33
  21 -16   4    0.31    0.36
  -5  21   4    0.02    0.54
 -21  16   4   -0.17    0.38
  21  -5  -4    0.24    0.27
   5  16  -4    1.06    0.49
  17   4  -4    0.31    0.49
   4  17   4   -0.04    0.47
  21 -17  -4    0.52    0.41
 -17  21   4   -0.04    0.56
  -4  21  -4   -0.20    0.45
  21  -4   4   -0.34    0.36
  21  -4  -4    0.11    0.48
 -21  17   4    0.27    0.48
  17 -21  -4    0.22    0.39
  -4  21   4   -0.48    0.54
   4  17  -4    0.32    0.44
  21 -17   4   -0.30    0.34
  -3  21  -4    0.01    0.48
 -18  21   4   -0.67    0.46
  21 -18  -4    0.20    0.37
   3  18   4    0.02    0.47
  18   3  -4   -0.29    0.47
  21  -3   4    0.41    0.44
   3  18  -4    0.53    0.49
  21 -18   4    0.77    0.47
  18 -21  -4    1.44    0.53
 -21  18   4   -0.08    0.49
  -3  21   4    0.39    0.64
  21  -3  -4    0.09    0.46
  21 -19  -4   -0.02    0.39
  21  -2   4    0.63    0.47
   2  19   4   -0.36    0.44
  -2  21  -4    0.14    0.50
 -19  21   4   -0.78    0.53
  19   2  -4   -1.24    0.45
  -2  21   4    0.86    0.71
 -21  19   4   -0.67    0.49
  19 -21  -4    0.36    0.41
   2  19  -4   -0.10    0.46
  21  -2  -4   -0.19    0.54
  21 -19   4   -0.04    0.36
  21  -1   4    0.65    0.42
 -20  21   4    0.87    0.59
   1  20   4   -0.21    0.57
  20 -21   4   -0.27    0.31
  -1  21  -4   -0.85    0.44
  21 -20  -4    1.02    0.53
  20   1  -4   -0.27    0.58
   1  20  -4    0.58    0.51
  -1  21   4    0.02    0.60
  21  -1  -4   -0.22    0.53
 -21  20   4   -0.08    0.53
  20 -21  -4    0.51    0.46
  21 -20   4   -0.12    0.37
  11  11   4    0.20    0.43
 -11  22   4    0.44    0.60
  22 -11  -4    0.32    0.36
 -11  22  -4    0.21    0.50
  22 -11   4    0.32    0.33
 -22  11   4    0.48    0.50
  11  11  -4    0.08    0.42
  10  12   4   -0.39    0.39
  22 -12  -4    0.79    0.42
 -10  22  -4   -0.05    0.52
 -22  10   4    0.27    0.61
  12  10  -4    0.20    0.44
  22 -10   4    0.66    0.33
 -12  22   4   -0.39    0.54
 -22  12   4   -0.74    0.40
 -10  22   4    0.55    0.62
  10  12  -4   -0.34    0.41
  12  10   4   -0.64    0.41
  22 -10  -4   -0.04    0.35
 -12  22  -4    0.40    0.50
  22 -12   4    0.38    0.34
  22  -9   4    0.20    0.39
 -13  22   4    0.64    0.60
  22 -13  -4   -0.06    0.37
  -9  22  -4    0.13    0.49
  13   9  -4    0.13    0.45
   9  13   4    0.09    0.38
 -13  22  -4   -0.35    0.53
  22 -13   4   -0.47    0.31
  22  -9  -4    0.37    0.33
   9  13  -4   -0.06    0.44
  -9  22   4    0.65    0.65
  22  -9  -4    1.30    0.60
  13   9   4    0.07    0.39
 -22  13   4   -0.01    0.42
   8  14   4    1.14    0.73
  -8  22  -4    0.08    0.48
  14   8  -4    0.17    0.47
  22 -14  -4   -0.38    0.31
 -14  22   4    0.81    0.54
  22  -8   4    0.15    0.39
  22 -14   4   -0.08    0.34
   8  14  -4   -0.17    0.43
 -22  14   4    0.16    0.38
  22  -8  -4   -0.43    0.48
 -14  22  -4   -0.02    0.57
  -8  22   4    0.50    0.72
  22  -8  -4   -0.04    0.31
  14   8   4   -0.32    0.39
  15   7  -4    1.91    0.71
  -7  22  -4    3.69    0.98
  22 -15  -4    1.21    0.54
   7  15   4    2.18    0.67
  22  -7   4    0.88    0.47
 -15  22   4    1.58    0.77
  22  -7  -4    1.43    0.68
   7  15  -4    1.70    0.63
  22 -15   4    1.66    0.55
  15 -22  -4    2.57    0.70
  -7  22   4    1.13    0.77
  22  -7  -4    1.74    0.52
 -22  15   4    1.44    0.55
   6  16   4    0.53    0.47
  -6  22  -4    1.24    0.71
 -16  22   4    0.26    0.64
  22 -16  -4    0.48    0.42
  22  -6   4   -0.29    0.27
  16   6  -4    0.82    0.63
  22  -6  -4    1.19    0.38
  16 -22  -4    0.94    0.41
  -6  22   4   -0.68    0.58
 -22  16   4    1.63    0.55
  22 -16   4    0.36    0.39
  22  -6  -4   -0.32    0.53
   6  16  -4    0.31    0.46
  17   5  -4   -0.36    0.51
  22  -5   4    0.33    0.38
   5  17   4   -0.08    0.48
 -17  22   4    0.24    0.64
  22 -17  -4    0.47    0.44
  -5  22  -4    0.42    0.56
  22 -17   4    0.48    0.41
 -22  17   4   -0.13    0.40
  17 -22  -4    0.30    0.40
   5  17  -4   -0.72    0.39
  22  -5  -4    1.01    0.56
  22  -5  -4    0.98    0.34
  -5  22   4    1.12    0.65
   4  18   4    0.62    0.56
  18   4  -4    0.73    0.60
  -4  22  -4    0.27    0.49
 -18  22   4   -0.79    0.54
  22  -4   4    1.42    0.52
  22 -18  -4    0.58    0.46
  22  -4  -4    0.77    0.55
  22 -18   4    0.31    0.43
  -4  22   4    0.40    0.68
   4  18  -4   -0.04    0.75
 -22  18   4    0.69    0.50
  18 -22  -4    0.12    0.37
   3  19   4    0.17    0.55
 -19  22   4    0.05    0.53
  22  -3   4    1.07    0.45
  22 -19  -4   -0.11    0.44
  19   3  -4   -0.11    0.54
  22 -19   4    0.41    0.43
  19 -22  -4    0.00    0.35
  22  -3  -4    1.76    0.68
 -22  19   4    0.10    0.55
  -3  22   4    1.55    0.87
   3  19  -4   -0.12    0.46
  23 -12  -4    1.64    0.48
 -11  23  -4    0.93    0.63
  11  12   4    0.03    0.42
  12  11  -4   -0.45    0.44
 -23  11   4    0.51    0.59
 -12  23   4    1.18    0.72
  23 -11   4    0.22    0.35
  23 -11  -4    0.34    0.35
 -11  23   4    1.19    0.68
 -23  12   4   -0.30    0.45
  23 -12   4    0.35    0.36
 -12  23  -4    0.44    0.63
  12  11   4   -0.36    0.41
 -10  23  -4   -0.16    0.53
  13  10  -4    1.91    0.58
  10  13   4    0.11    0.42
  23 -10   4    0.16    0.29
 -23  10   4    0.64    0.67
  23 -13  -4    0.27    0.39
 -13  23   4   -0.97    0.56
  23 -13   4    0.31    0.33
 -10  23   4   -0.80    0.63
 -13  23  -4   -0.16    0.59
 -23  13   4   -0.05    0.41
  10  13  -4   -0.65    0.40
  13  10   4   -0.76    0.41
  23 -10  -4   -0.26    0.35
  -9  23  -4    2.05    0.69
 -14  23   4   -0.18    0.62
   9  14   4    0.46    0.47
  23  -9   4    0.60    0.37
  14   9  -4    1.10    0.60
  23 -14  -4    0.86    0.47
   9  14  -4    1.29    0.65
  23 -14   4    0.13    0.32
 -14  23  -4   -0.05    0.61
  23  -9  -4    0.70    0.62
  23  -9  -4    0.78    0.51
  -9  23   4    0.62    0.71
 -23  14   4    0.95    0.54
 -15  23   4   -0.15    0.59
  -8  23  -4    0.27    0.56
  23 -15  -4    0.59    0.40
   8  15   4    0.95    0.88
  23  -8   4    0.54    0.39
  15   8  -4   -0.36    0.47
  23 -15   4   -0.01    0.38
   8  15  -4    0.07    0.49
  23  -8  -4    0.11    0.32
  -8  23   4    0.21    0.60
 -23  15   4    0.10    0.45
  23  -8  -4   -0.99    0.50
  -7  23  -4   -0.54    0.56
  23  -7   4   -0.07    0.38
   7  16   4   -0.59    0.43
 -16  23   4   -0.05    0.71
  16   7  -4   -0.64    0.55
  23 -16  -4    0.42    0.40
   7  16  -4   -0.45    0.45
  23  -7  -4    1.74    0.82
 -23  16   4    0.52    0.49
  23  -7  -4    0.73    0.47
  -7  23   4   -0.45    0.72
  23 -16   4   -0.12    0.42
  17   6  -4   -1.38    0.50
   6  17   4    0.09    0.55
  23  -6   4   -0.54    0.32
  23 -17  -4    1.01    0.52
 -17  23   4   -0.39    0.57
  -6  23  -4    0.66    0.60
  -6  23   4    0.34    0.68
 -23  17   4    0.28    0.48
  23  -6  -4    0.66    0.57
  23 -17   4    0.45    0.40
  23  -6  -4   -0.46    0.31
  17 -23  -4    0.87    0.47
   6  17  -4    0.87    0.53
   5  18   4    0.03    0.48
  -5  23  -4    0.95    0.64
 -12  24   4    0.94    0.72
 -24  12   4    0.34    0.54
 -12  24  -4    0.91    0.59
  12  12  -4    0.22    0.48
  12  12   4   -0.12    0.44
  24 -12  -4   -0.41    0.35
 -11  24  -4    0.61    0.56
  13  11  -4    2.00    0.68
 -24  11   4    0.69    0.65
 -13  24   4    0.55    0.68
  24 -13  -4    0.97    0.47
  11  13   4    0.39    0.53
  24 -11  -4   -0.04    0.38
  11  13  -4   -0.01    0.49
 -24  13   4    0.81    0.60
  13  11   4   -0.41    0.48
 -13  24  -4    1.09    0.70
  14  10  -4   -0.78    0.46
  10  14   4    0.52    0.47
 -10  24  -4    0.60    0.59
 -24  10   4    0.18    0.70
 -24  14   4    0.01    0.50
 -14  24  -4   -0.29    0.62
   0   0   5   -0.33    0.09
   0   0  -5    0.00    0.10
   1   0   5    0.00    0.08
   1   0  -5    0.06    0.11
   1  -1  -5   -0.05    0.11
   1  -1   5   -0.10    0.08
   1   0  -5   -0.03    0.12
   1   0   5    0.04    0.11
   0   1   5   -0.11    0.09
  -1   1  -5   -0.01    0.07
   0   1  -5    0.13    0.11
   1  -1  -5   -0.03    0.11
   0  -1   5   -0.03    0.10
   1  -2   5  138.34    5.12
   1   1   5  131.84    5.22
   1   1  -5  143.69    5.43
   1   1   5  140.46    5.33
   2  -1  -5  144.70    5.48
   1   1  -5  149.14    5.21
  -1   2  -5  147.06    5.31
   1  -2  -5  145.87    5.35
   2  -1   5  133.58    5.17
   2  -1  -5  146.64    5.27
  -1   2   5  137.02    5.37
   2   0  -5    0.04    0.12
   0   2  -5    0.08    0.10
   2   0   5    0.20    0.14
  -2   2  -5   -0.02    0.05
   2   0  -5    0.02    0.10
   2  -2  -5    0.03    0.13
   0  -2   5   -0.02    0.08
   2  -2  -5   -0.01    0.12
   2   0   5    0.11    0.09
   0  -2  -5    0.01    0.15
   2  -2   5    0.13    0.11
   3  -2  -5    6.74    0.57
   3  -2  -5    6.99    0.55
  -1   3  -5    7.59    0.48
  -2   3   5    8.11    0.56
   2   1  -5    6.64    0.55
   1  -3  -5    7.06    0.60
   2  -3   5    7.88    0.46
   2   1  -5    7.67    0.49
   1   2   5    7.84    0.58
   1   2   5    8.01    0.55
   3  -1   5    8.11    0.53
   1   2  -5    7.51    0.47
   3  -1  -5    5.87    0.50
   3  -1  -5    6.83    0.57
   3  -2   5    6.99    0.49
   2   1   5    7.57    0.56
  -2   3  -5    6.91    0.42
   1   2  -5    7.05    0.53
   2   1   5    8.12    0.52
  -1   3   5    7.60    0.56
   2  -3  -5    6.71    0.58
   1  -3   5    7.60    0.44
   3   0  -5    0.11    0.16
   0  -3  -5   -0.17    0.14
  -3   3   5   -0.08    0.14
   3  -3  -5    0.05    0.13
   0   3  -5   -0.12    0.10
   3   0  -5   -0.12    0.08
   3   0   5    0.02    0.08
   3  -3   5   -0.06    0.10
   0  -3   5   -0.08    0.07
   3   0   5   -0.08    0.12
   0   3   5    0.08    0.14
  -3   3  -5   -0.05    0.05
   2   2   5    7.85    0.56
   4  -2  -5    4.10    0.54
  -2   4   5    6.41    0.53
   2   2  -5    4.80    0.52
  -2   4  -5    4.92    0.40
   4  -2   5    7.03    0.48
   2   2   5    7.43    0.55
   4  -2  -5    4.77    0.50
   2  -4  -5    4.59    0.57
   2   2  -5    4.85    0.36
   4  -1   5   24.59    1.27
   3  -4   5   27.38    1.19
   4  -3  -5   29.11    1.41
   4  -3  -5   30.89    1.51
   1   3   5   25.85    1.36
   1   3   5   29.25    1.48
  -1  -3   5   27.00    1.13
   3   1  -5   30.91    1.49
   1  -4  -5   28.63    1.48
  -3   4   5   26.55    1.40
  -1   4  -5   29.82    1.36
   3   1  -5   31.58    1.28
   1  -4   5   27.75    1.13
   1   3  -5   30.76    1.42
   3  -4  -5   27.85    1.44
  -3   4  -5   30.75    1.29
   4  -1  -5   28.88    1.48
   3   1   5   28.62    1.31
   4  -1  -5   28.03    1.31
  -1   4   5   27.11    1.45
   3   1   5   24.28    1.31
   4  -3   5   26.69    1.24
  -4   4  -5   -0.10    0.08
   4   0  -5   -0.06    0.17
   4  -4  -5   -0.04    0.12
   0   4   5    0.12    0.19
  -4   4   5   -0.07    0.15
   0   4  -5    0.05    0.15
   4   0  -5    0.02    0.08
   4  -4   5    0.09    0.10
   0  -4  -5   -0.10    0.14
   4   0   5   -0.01    0.09
   0  -4   5   -0.07    0.06
   4   0   5   -0.10    0.11
   5  -2   5   11.33    0.69
   3   2  -5   10.43    0.79
   2  -5  -5   10.09    0.79
   2   3   5   11.71    0.76
   3  -5   5   11.97    0.57
  -2   5  -5   10.55    0.71
   5  -3  -5   11.15    0.73
  -5   3  -5   10.43    0.51
   3   2  -5   11.51    0.60
  -3   5   5   10.97    0.80
   5  -3  -5   10.31    0.82
   2   3   5   11.37    0.83
   5  -2   5   11.72    0.51
   2   3  -5   10.88    0.55
   5  -2  -5   10.26    0.69
  -3   5  -5   10.54    0.70
   3   2   5   12.18    0.76
   5  -2  -5   10.20    0.82
  -2   5   5   12.08    0.85
   3  -5  -5   10.93    0.81
   2  -5   5   12.09    0.54
   2   3  -5   11.15    0.79
   3   2   5   11.60    0.76
   5  -3   5   11.25    0.66
   4   1  -5    9.53    0.58
   4  -5   5    9.85    0.55
   1   4   5    9.94    0.72
  -1  -4   5   10.45    0.47
  -4   5   5    9.61    0.75
  -1   5  -5   10.67    0.73
   1   4   5   10.31    0.84
   4   1  -5   11.92    0.85
   5  -1   5   10.31    0.54
   5  -4  -5   11.39    0.76
   5  -1   5    9.87    0.66
   5  -4  -5   12.87    0.88
  -5   4  -5   11.89    0.59
   1  -5  -5   10.36    0.80
  -1   5   5    9.93    0.82
   4   1   5    9.97    0.69
   1  -5   5   10.01    0.47
  -4   5  -5   10.86    0.68
   5  -1  -5   11.83    0.86
   5  -4   5    9.23    0.59
   4  -5  -5   10.72    0.79
   1   4  -5   11.00    0.76
   4   1   5   10.72    0.64
   5  -1  -5   11.23    0.67
   0  -5   5    0.04    0.05
   5   0   5    0.04    0.09
   0  -5  -5   -0.04    0.17
   5   0  -5    0.06    0.17
   0   5   5   -0.30    0.18
   0   5  -5   -0.04    0.13
   5  -5   5    0.01    0.10
   5  -5  -5   -0.02    0.11
  -5   5   5   -0.05    0.16
   5   0  -5   -0.17    0.06
  -5   5  -5   -0.14    0.10
   5   0   5   -0.03    0.09
   3   3   5   67.95    2.93
   3   3  -5   75.87    2.68
  -3   6   5   69.49    3.19
   3   3   5   71.81    3.13
  -3   6  -5   73.14    3.10
  -6   3  -5   71.47    2.73
   3   3  -5   72.44    3.15
   3  -6  -5   70.09    3.07
   6  -3  -5   72.60    2.93
   6  -3  -5   71.66    3.22
   3  -6   5   72.19    2.62
   6  -3   5   71.15    2.82
   6  -4  -5    7.45    0.58
   6  -4  -5    5.56    0.68
  -4   6   5    5.09    0.63
  -6   4  -5    6.73    0.38
   6  -2   5    5.42    0.37
   4   2  -5    6.66    0.40
   4  -6   5    5.21    0.35
   2   4   5    5.17    0.57
   2   4   5    3.84    0.61
  -2  -4   5    5.21    0.29
   2  -6  -5    6.20    0.70
  -2   6  -5    7.28    0.59
   4   2  -5    7.11    0.71
   6  -2   5    5.54    0.47
   6  -4   5    5.15    0.42
   2  -6   5    5.37    0.30
   6  -2  -5    5.95    0.49
   2   4  -5    6.62    0.65
   4  -6  -5    5.92    0.67
  -2   6   5    5.33    0.70
   4   2   5    5.85    0.51
   4   2   5    5.07    0.54
  -4   6  -5    7.01    0.58
   6  -2  -5    6.85    0.74
   5  -6   5    3.96    0.32
   1  -6  -5    5.49    0.66
  -1   6  -5    5.90    0.61
   1   5   5    4.15    0.52
  -5   6   5    3.74    0.54
   1   5   5    3.60    0.63
   5   1  -5    5.48    0.67
   5   1  -5    4.04    0.35
   6  -5  -5    5.20    0.59
  -6   5  -5    5.27    0.38
   6  -1   5    4.24    0.35
   6  -1   5    4.08    0.46
   1   5  -5    5.57    0.60
   6  -1  -5    4.78    0.45
   1  -6   5    4.03    0.22
   6  -5   5    4.96    0.38
  -5   6  -5    5.54    0.50
   5   1   5    3.81    0.40
   5  -6  -5    4.63    0.60
   6  -1  -5    5.14    0.67
  -1   6   5    4.17    0.66
  -6   5   5    3.81    0.55
   5   1   5    3.99    0.48
   0   6   5    0.27    0.28
   6   0   5   -0.04    0.11
   6   0  -5   -0.06    0.19
   0  -6  -5   -0.22    0.17
   0   6  -5   -0.15    0.13
   6  -6  -5   -0.05    0.16
   6   0  -5    0.09    0.10
  -6   6   5   -0.03    0.18
   6  -6   5   -0.04    0.10
  -6   6  -5    0.06    0.12
   6   0   5    0.01    0.15
  -4   7   5   13.49    1.02
   7  -4  -5   12.98    0.86
   4   3  -5   11.96    0.64
   3   4   5   12.98    0.86
   3  -7  -5   12.68    0.95
   7  -3   5   13.26    0.78
   7  -3   5   13.37    0.71
  -7   4  -5   12.95    0.67
   4   3  -5   14.07    1.00
   4  -7   5   13.65    0.63
   7  -4  -5   14.63    1.07
  -3   7  -5   12.96    0.95
   3   4   5   14.05    1.02
   7  -3  -5   14.03    1.05
   4   3   5   14.31    0.93
  -4   7  -5   13.18    0.95
   7  -4   5   14.13    0.78
   7  -3  -5   13.73    0.86
  -3   7   5   14.00    1.08
   3   4  -5   12.63    0.95
   4   3   5   13.31    0.86
   3   4  -5   15.26    0.62
   4  -7  -5   14.57    0.99
   3  -7   5   13.29    0.61
   5   2  -5   18.63    0.85
   7  -5  -5   16.83    1.20
   2  -7  -5   16.63    1.14
  -2   7  -5   16.55    1.11
   5  -7   5   17.45    0.80
   7  -2   5   16.31    0.94
  -5   7   5   17.51    1.18
   7  -2   5   17.40    0.89
   7  -5  -5   17.13    1.06
   2   5   5   18.80    1.28
   5   2  -5   17.54    1.18
  -7   5  -5   19.76    0.90
   2   5   5   16.42    1.02
  -2   7   5   16.80    1.25
   7  -2  -5   17.58    1.22
   7  -5   5   16.45    0.88
   7  -2  -5   17.53    0.98
   5   2   5   17.49    1.01
   2  -7   5   16.60    0.73
   5  -7  -5   17.26    1.13
   2   5  -5   18.48    1.16
   5   2   5   17.88    1.02
  -5   7  -5   17.86    1.12
   7  -6  -5    3.64    0.55
   6   1  -5    4.32    0.37
   6   1  -5    4.29    0.64
   1   6   5    5.85    0.84
   1   6   5    5.31    0.60
   7  -1   5    5.56    0.53
   7  -1   5    6.15    0.45
  -7   6  -5    4.38    0.46
  -1   7  -5    4.95    0.63
  -6   7   5    4.75    0.65
   1  -7  -5    4.82    0.66
   6  -7   5    4.89    0.36
  -6   7  -5    4.43    0.55
   1  -7   5    4.90    0.26
   1   6  -5    4.71    0.62
   6  -7  -5    4.64    0.62
   7  -1  -5    3.37    0.60
  -1   7   5    5.53    0.83
   7  -1  -5    3.84    0.45
   6   1   5    4.99    0.54
   7  -6   5    5.42    0.41
  -7   6   5    4.59    0.62
   6   1   5    4.95    0.48
   7  -7  -5   -0.04    0.16
   7   0   5    0.28    0.17
  -7   7  -5   -0.05    0.13
   0   7   5   -0.27    0.21
   7   0   5    0.07    0.15
   7  -7   5    0.11    0.11
  -7   7   5   -0.12    0.18
   7   0  -5   -0.17    0.15
   7   0  -5    0.07    0.11
   0   7  -5   -0.06    0.15
   4   4  -5   83.29    3.68
   8  -4   5   79.26    3.19
   4  -8  -5   81.22    3.54
   4   4  -5   89.80    3.03
   8  -4  -5   81.54    3.76
   4   4   5   78.67    3.59
   4   4   5   81.28    3.34
   8  -4  -5   81.18    3.36
  -8   4  -5   85.46    3.24
  -4   8   5   77.91    3.77
  -4   8  -5   82.04    3.68
   8  -5  -5    9.63    0.74
   8  -3   5    8.66    0.63
  -8   5  -5   10.19    0.58
   3   5   5   10.28    0.91
   8  -3   5    8.79    0.59
   5   3  -5    9.49    0.85
   3   5   5    7.98    0.68
   5  -8   5    8.58    0.52
   3  -8  -5   10.14    0.84
   5   3  -5   10.61    0.54
   8  -5  -5   10.28    0.92
  -3   8  -5    9.54    0.84
  -5   8   5    7.49    0.88
   5  -8  -5    9.76    0.83
  -5   8  -5   10.00    0.84
   8  -3  -5    9.86    0.99
   8  -3  -5    9.72    0.70
   5   3   5    9.91    0.75
   3  -8   5    9.05    0.49
   3   5  -5   10.58    0.86
   8  -5   5    8.78    0.60
   5   3   5    8.14    0.67
  -3   8   5    7.99    0.97
  -6   8   5   24.69    1.57
  -2   8  -5   25.77    1.56
   8  -2   5   25.63    1.29
   2  -8  -5   26.32    1.54
   6   2  -5   26.19    1.18
   6  -8   5   25.50    1.15
  -8   6  -5   24.61    1.25
   6   2  -5   25.88    1.60
   8  -6  -5   28.33    1.47
   8  -2   5   26.50    1.30
   2   6   5   25.39    1.39
   2   6   5   25.13    1.67
   8  -2  -5   24.53    1.59
   2   6  -5   25.72    1.53
   8  -6   5   25.81    1.22
   6   2   5   28.29    1.41
   2  -8   5   27.48    1.06
  -8   6   5   25.79    1.58
  -6   8  -5   26.92    1.54
   6   2   5   26.97    1.35
  -2   8   5   26.42    1.78
   8  -2  -5   26.75    1.33
   6  -8  -5   25.91    1.50
   8  -7  -5    8.27    0.82
   8  -1   5   10.75    0.70
  -7   8   5    9.41    0.86
   1   7   5    9.25    0.74
   7   1  -5    7.92    0.93
   1  -8  -5    8.67    0.91
   1   7   5   11.07    1.18
   7   1  -5    8.38    0.58
  -1   8  -5    9.45    0.85
   8  -1   5    9.40    0.67
   7  -8   5    9.46    0.57
  -8   7  -5    9.15    0.66
   7  -8  -5    6.80    0.80
  -7   8  -5    8.52    0.74
   7   1   5   10.78    0.73
   1   7  -5    8.40    0.87
   8  -1  -5    9.17    0.98
   7   1   5    9.73    0.70
  -1   8   5   11.36    1.22
   8  -1  -5    8.83    0.65
  -8   7   5    9.63    0.86
   8  -7   5    9.83    0.59
   8   0   5   -0.03    0.14
   8  -8  -5   -0.31    0.13
   0   8   5    0.06    0.32
  -8   8   5    0.01    0.20
   8  -8   5    0.05    0.14
   8   0   5    0.13    0.16
   0   8  -5   -0.10    0.18
   8   0  -5    0.02    0.09
   8   0  -5    0.02    0.26
  -8   8  -5    0.24    0.16
   5   4  -5    1.99    0.22
   4  -9  -5    1.78    0.42
   9  -4   5    2.00    0.31
   4   5   5    2.21    0.38
  -4   9  -5    2.50    0.55
  -9   5  -5    1.90    0.27
   5  -9   5    2.14    0.29
   9  -5  -5    1.53    0.46
   4   5   5    1.70    0.44
   5   4  -5    1.75    0.45
   9  -4   5    1.25    0.29
   9  -5  -5    1.67    0.37
  -5   9   5    1.88    0.50
   9  -4  -5    1.63    0.46
   4  -9   5    1.68    0.24
   4   5  -5    1.63    0.44
   9  -4  -5    1.11    0.30
  -5   9  -5    1.19    0.39
   5   4   5    2.31    0.40
   5  -9  -5    1.95    0.45
   9  -5   5    1.76    0.31
  -4   9   5    1.87    0.54
   5   4   5    1.83    0.43
   6  -9   5   19.11    0.95
   3   6   5   19.44    1.15
   9  -3   5   20.87    1.06
  -9   6  -5   19.33    1.01
   3  -9  -5   19.46    1.28
   9  -6  -5   18.20    1.35
   9  -3   5   19.33    1.06
   9  -6  -5   18.07    1.16
   6   3  -5   21.33    1.40
  -3   9  -5   18.95    1.34
  -6   9   5   18.79    1.37
   3   6   5   17.03    1.35
   6   3  -5   19.57    0.92
   3  -9   5   19.03    0.85
  -6   9  -5   18.03    1.30
   9  -3  -5   18.91    1.37
   9  -3  -5   20.25    1.13
   9  -6   5   18.72    0.98
  -3   9   5   17.40    1.45
   6   3   5   18.09    1.16
   6   3   5   18.10    1.08
   3   6  -5   19.69    1.32
   6  -9  -5   19.61    1.27
   7  -9   5    3.47    0.39
   9  -2   5    3.57    0.47
   7   2  -5    3.63    0.65
   2   7   5    3.65    0.53
   9  -7  -5    4.07    0.59
  -9   7  -5    3.65    0.43
  -7   9   5    3.24    0.59
   2   7   5    3.68    0.73
   2  -9  -5    4.73    0.68
   7   2  -5    4.05    0.39
   9  -2   5    3.21    0.44
  -2   9  -5    3.36    0.60
  -9   7   5    2.96    0.57
   7  -9  -5    3.03    0.55
   9  -2  -5    3.16    0.62
   2  -9   5    3.38    0.25
  -7   9  -5    3.72    0.60
  -2   9   5    2.55    0.68
   9  -2  -5    3.52    0.48
   2   7  -5    3.11    0.58
   9  -7   5    3.31    0.39
   7   2   5    3.55    0.51
   7   2   5    2.46    0.43
   9  -1   5   10.56    0.73
   1   8   5    9.94    0.79
  -1   9  -5   10.37    0.94
  -9   8  -5    8.76    0.71
   9  -1   5    9.30    0.72
   9  -8  -5    9.95    0.85
   8   1  -5   10.67    0.67
   8   1  -5    7.52    0.98
   1  -9  -5    9.39    0.97
  -8   9   5    9.13    1.01
   8  -9   5    9.29    0.63
   1   8   5   10.51    1.24
   8   1   5   10.15    0.73
  -9   8   5   10.45    0.91
   8   1   5   10.40    0.77
  -8   9  -5    9.87    0.84
  -1   9   5    9.53    1.25
   9  -1  -5    9.73    0.70
   9  -8   5    9.91    0.64
   9  -1  -5    9.52    1.06
   1   8  -5    9.59    0.97
   8  -9  -5    9.45    0.93
   0   9  -5   -0.12    0.22
   9   0  -5   -0.09    0.26
  -9   9   5    0.08    0.23
   9  -9   5   -0.08    0.13
   0   9   5   -0.14    0.15
   9  -9  -5   -0.03    0.18
  -9   9  -5    0.23    0.20
   9   0   5   -0.18    0.14
   9   0   5    0.14    0.19
   0   9   5   -0.05    0.32
   9   0  -5    0.12    0.12
  10  -5   5   12.27    0.77
   5   5  -5   12.04    1.06
 -10   5  -5   11.86    0.76
   5   5   5   11.56    0.98
  -5  10   5   11.36    1.29
   5 -10   5   12.44    0.69
   5   5   5   12.94    0.87
   5 -10  -5   11.32    0.97
  10  -5  -5   12.11    0.89
  10  -5  -5   11.98    1.10
  -5  10  -5   13.15    1.11
   5   5  -5   12.43    0.58
  -6  10   5    8.48    1.06
  10  -4   5    8.78    0.65
  10  -6  -5    7.40    0.96
  10  -6  -5    7.70    0.79
   4 -10  -5    7.77    0.89
  10  -4   5    8.43    0.62
 -10   6  -5    6.98    0.55
   6 -10   5    8.64    0.56
   4   6   5    8.15    0.95
   4   6   5    8.04    0.68
  -4  10  -5    7.53    0.96
   6   4  -5    7.88    0.48
   6   4  -5    7.54    0.93
  10  -4  -5    6.58    0.92
  -4  10   5    8.24    1.12
  10  -4  -5    7.68    0.75
  10  -6   5    9.42    0.62
   6   4   5    8.31    0.83
   6   4   5    9.64    0.71
   4   6  -5    7.66    0.91
  -6  10  -5    8.39    0.99
   4 -10   5    7.53    0.49
   6 -10  -5    8.63    0.94
   7   3  -5    4.06    0.73
  10  -7  -5    2.92    0.55
 -10   7  -5    4.19    0.46
   3 -10  -5    3.90    0.64
   3   7   5    4.01    0.76
   7 -10   5    4.33    0.46
   3   7   5    3.78    0.54
  10  -3   5    4.95    0.54
   7   3  -5    4.25    0.35
  10  -3   5    3.72    0.47
  -3  10  -5    3.33    0.65
  -7  10   5    4.82    0.79
  -7  10  -5    4.67    0.72
  10  -3  -5    3.94    0.54
   3 -10   5    3.61    0.30
   7   3   5    4.53    0.61
   7   3   5    3.65    0.52
  10  -7   5    3.54    0.43
  10  -3  -5    3.32    0.68
 -10   7   5    4.23    0.71
   3   7  -5    4.31    0.68
  -3  10   5    4.83    0.94
   7 -10  -5    4.58    0.71
   8 -10   5   23.37    1.16
  -2  10  -5   21.20    1.51
   2   8   5   20.79    1.26
 -10   8  -5   21.63    1.23
  10  -8  -5   20.28    1.32
  -8  10   5   21.85    1.55
   8   2  -5   20.68    1.53
  10  -2   5   23.08    1.28
   2   8   5   24.40    1.74
  10  -2   5   23.03    1.19
   8   2  -5   19.90    1.07
   2 -10  -5   22.67    1.45
  -8  10  -5   21.75    1.45
  10  -2  -5   21.96    1.23
  -2  10   5   22.99    1.81
   8 -10  -5   19.97    1.37
 -10   8   5   23.93    1.53
   2   8  -5   19.04    1.41
  10  -2  -5   21.76    1.57
   8   2   5   23.47    1.23
   8   2   5   21.66    1.31
  10  -8   5   21.78    1.12
 -10   9  -5    8.69    0.75
  10  -1   5    9.43    0.72
   9 -10   5   10.91    0.74
  10  -9  -5    9.63    0.97
   9   1  -5   10.69    0.71
   1   9   5   10.02    0.80
   9   1  -5    9.34    1.12
  -9  10   5   10.21    1.10
  -1  10  -5   10.46    1.09
  10  -1   5   10.05    0.79
   1   9   5   11.68    1.35
   1 -10  -5    9.86    1.02
  -9  10  -5    9.24    0.86
  10  -1  -5    9.25    0.72
  10  -9   5    9.04    0.67
 -10   9   5   11.22    1.00
  -1  10   5   11.52    1.44
  10  -1  -5    9.67    1.13
   9   1   5   10.24    0.74
   9 -10  -5   10.08    1.00
   9   1   5    9.46    0.79
   1   9  -5   10.18    1.05
   0  10   5    0.01    0.35
 -10  10   5    0.18    0.27
  10 -10  -5    0.02    0.20
  10   0  -5   -0.02    0.31
  10   0  -5    0.16    0.13
  10 -10   5   -0.24    0.18
  10   0   5    0.34    0.22
   0  10  -5   -0.12    0.24
 -10  10  -5    0.11    0.18
  10   0   5    0.11    0.18
   0  10   5   -0.06    0.16
   5   6   5    2.58    0.56
   6   5  -5    2.26    0.56
  11  -6  -5    2.46    0.48
  -6  11   5    1.90    0.73
   5   6   5    2.92    0.48
  -5  11  -5    2.67    0.63
  11  -5   5    3.12    0.44
  11  -5   5    3.52    0.49
 -11   6  -5    2.60    0.37
  11  -6  -5    2.07    0.58
   6 -11   5    3.28    0.39
   5 -11  -5    1.91    0.49
  11  -6   5    2.95    0.41
  11  -5  -5    2.07    0.58
   6   5   5    2.34    0.42
   5   6  -5    3.20    0.64
   6   5   5    3.32    0.60
   5 -11   5    3.19    0.37
  -6  11  -5    2.54    0.61
  11  -5  -5    2.97    0.51
   6 -11  -5    2.42    0.52
  -5  11   5    4.03    0.82
  11  -7  -5    5.92    0.92
  -7  11   5    5.14    0.91
 -11   7  -5    6.56    0.53
  11  -4   5    6.93    0.61
   4   7   5    5.64    0.65
   4 -11  -5    7.28    0.89
   7   4  -5    6.09    0.43
   4   7   5    5.75    0.88
   7 -11   5    7.03    0.54
   7   4  -5    6.90    0.94
  11  -4   5    6.38    0.56
  11  -7  -5    5.91    0.74
  -4  11  -5    5.08    0.85
   4   7  -5    7.43    0.92
   7   4   5    6.54    0.77
  -7  11  -5    5.70    0.90
   7 -11  -5    5.98    0.83
   7   4   5    5.99    0.65
  -4  11   5    6.07    1.05
  11  -4  -5    4.88    0.65
  11  -4  -5    5.84    0.89
   4 -11   5    5.54    0.43
  11  -7   5    5.70    0.56
  11  -3   5    7.45    0.69
  11  -3   5    8.81    0.66
 -11   8  -5    8.25    0.66
  11  -8  -5    9.51    0.92
   3   8   5    9.27    1.16
   3   8   5    7.75    0.77
   8   3  -5    7.69    1.02
   8   3  -5    8.52    0.57
   3 -11  -5    7.03    0.91
  -8  11   5    8.11    1.06
  -3  11  -5    8.64    1.07
   8 -11   5    8.68    0.64
   3   8  -5    7.54    0.95
   8   3   5    8.36    0.68
  11  -3  -5    7.04    1.00
  11  -8   5    8.00    0.62
   8   3   5    8.88    0.80
  11  -3  -5    8.73    0.73
 -11   8   5    7.66    0.94
  -8  11  -5    8.15    1.00
  -3  11   5    8.40    1.26
   8 -11  -5    8.13    0.95
   9   2  -5   -0.04    0.28
   2   9   5    0.18    0.20
  11  -9  -5    0.10    0.19
  11  -2   5    0.04    0.18
   2 -11  -5    0.14    0.28
   9 -11   5    0.08    0.18
   2   9   5    0.19    0.36
  -2  11  -5   -0.15    0.25
  11  -2   5    0.30    0.23
   9   2  -5    0.17    0.13
  -9  11   5    0.49    0.32
 -11   9  -5    0.11    0.15
   9   2   5    0.25    0.25
   9 -11  -5   -0.26    0.18
  11  -2  -5   -0.10    0.28
  11  -9   5   -0.11    0.15
   2   9  -5   -0.06    0.23
   9   2   5    0.20    0.19
  -2  11   5   -0.28    0.37
 -11   9   5    0.21    0.27
  -9  11  -5    0.26    0.27
  11  -2  -5    0.31    0.18
   1 -11  -5   40.18    2.21
 -10  11   5   44.48    2.47
  -1  11  -5   39.16    2.36
   1  10   5   41.61    2.68
  10   1  -5   36.88    1.85
  11  -1   5   42.71    1.91
 -11  10  -5   43.29    2.17
  10 -11   5   41.72    1.92
   1  10   5   40.69    2.05
  11 -10  -5   44.64    2.25
  11  -1   5   40.43    2.09
  10   1  -5   40.56    2.43
  10   1   5   41.85    1.92
 -10  11  -5   38.67    2.23
  11  -1  -5   39.89    2.44
 -11  10   5   38.56    2.31
   1  10  -5   41.03    2.35
  -1  11   5   40.31    2.76
  10 -11  -5   39.83    2.19
  11  -1  -5   38.86    1.93
  11   0  -5    0.08    0.29
  11   0  -5    0.09    0.16
  11 -11   5   -0.18    0.19
 -11  11   5    0.26    0.32
  11   0   5   -0.06    0.24
 -11  11  -5    0.09    0.23
  11   0   5   -0.06    0.17
   0  11   5    0.32    0.21
   0  11  -5    0.39    0.35
  11 -11  -5   -0.11    0.21
   0  11   5    0.38    0.48
 -12   6  -5   16.81    1.01
   6   6   5   16.09    1.25
  -6  12   5   15.21    1.61
   6 -12   5   17.08    0.93
   6   6   5   15.91    1.04
   6 -12  -5   17.57    1.27
   6   6  -5   17.97    1.40
  12  -6  -5   16.69    1.41
  12  -6   5   14.91    0.94
  -6  12  -5   17.79    1.45
  12  -6  -5   17.91    1.19
   5   7   5    2.73    0.61
  -5  12  -5    2.07    0.57
  -7  12   5    1.13    0.64
  12  -5   5    1.83    0.36
  12  -7  -5    1.81    0.44
  12  -5   5    2.11    0.42
   7 -12   5    2.23    0.35
   7   5  -5    1.43    0.50
   5 -12  -5    2.17    0.53
   5   7   5    1.57    0.37
 -12   7  -5    2.03    0.35
  12  -7  -5    1.80    0.56
  12  -5  -5    2.29    0.48
   7   5   5    1.54    0.46
   7   5   5    2.04    0.40
   5   7  -5    2.30    0.56
   7 -12  -5    1.44    0.43
  -7  12  -5    1.84    0.54
  12  -5  -5    1.69    0.55
  -5  12   5    2.56    0.72
  12  -7   5    1.87    0.36
  12  -8  -5    5.38    0.75
   4   8   5    4.98    0.86
  12  -4   5    6.05    0.61
   8 -12   5    4.84    0.55
   8   4  -5    6.62    0.97
  -8  12   5    5.74    0.98
 -12   8  -5    6.56    0.58
   4 -12  -5    6.47    0.88
   4   8   5    4.91    0.63
  12  -4   5    6.75    0.70
  -4  12  -5    5.11    0.89
   8   4   5    5.42    0.76
   4   8  -5    5.31    0.86
   8 -12  -5    6.46    0.89
  -4  12   5    4.32    0.97
  12  -4  -5    5.25    0.88
 -12   8   5    4.25    0.79
   8   4   5    5.33    0.62
  12  -4  -5    3.76    0.60
  -8  12  -5    6.52    0.98
  12  -8   5    5.01    0.57
  12  -3   5    1.52    0.40
   3   9   5    1.42    0.58
  -9  12   5    1.05    0.46
   3   9   5    2.43    0.44
  12  -3   5    1.67    0.35
  12  -9  -5    1.06    0.38
  -3  12  -5    1.78    0.60
   9 -12   5    1.27    0.31
   9   3  -5    1.54    0.29
   9   3  -5    1.66    0.49
 -12   9  -5    1.88    0.34
   3 -12  -5    1.66    0.48
   9   3   5    1.98    0.47
 -12   9   5    2.26    0.56
  12  -9   5    1.48    0.36
   9 -12  -5    1.02    0.39
  -3  12   5    1.95    0.66
   9   3   5    1.63    0.36
  -9  12  -5    1.84    0.52
   3   9  -5    1.80    0.50
  12  -3  -5    1.41    0.37
  12  -3  -5    0.92    0.42
  12  -2   5    3.30    0.47
  10   2  -5    3.32    0.71
  10 -12   5    4.23    0.55
  10   2  -5    2.59    0.41
  -2  12  -5    3.72    0.72
   2  10   5    2.66    0.76
  12  -2   5    3.72    0.59
 -12  10  -5    2.68    0.47
  12 -10  -5    2.76    0.58
   2  10   5    2.68    0.50
 -10  12   5    3.64    0.74
   2 -12  -5    3.60    0.67
  12 -10   5    2.99    0.51
  10   2   5    2.91    0.46
   2  10  -5    3.42    0.69
  12  -2  -5    3.32    0.71
  10 -12  -5    2.64    0.57
  -2  12   5    4.44    0.94
 -12  10   5    3.46    0.70
  10   2   5    3.43    0.60
  12  -2  -5    2.91    0.51
 -10  12  -5    3.58    0.66
  12  -1   5    0.39    0.31
   1  11   5    0.26    0.19
  11 -12   5    0.20    0.21
  11   1  -5    0.19    0.17
 -12  11  -5   -0.01    0.22
  12  -1   5   -0.16    0.16
   1  11   5    0.17    0.39
  11   1  -5   -0.22    0.28
  12 -11  -5   -0.06    0.20
 -11  12   5    0.26    0.31
  -1  12  -5   -0.15    0.25
  12  -1  -5    0.35    0.31
  12 -11   5   -0.10    0.23
  11   1   5    0.24    0.29
  -1  12   5    0.62    0.43
   1  11  -5   -0.18    0.26
 -12  11   5   -0.04    0.25
  12  -1  -5    0.34    0.21
  11 -12  -5    0.15    0.26
 -11  12  -5    0.40    0.28
  11   1   5   -0.19    0.15
  12   0  -5   -0.44    0.25
 -12  12  -5    0.12    0.24
   0  12   5    0.34    0.39
  12   0   5   -0.04    0.17
 -12  12   5    0.25    0.32
  12 -12  -5   -0.07    0.23
   0  12  -5    0.59    0.38
  12   0  -5    0.25    0.17
  12 -12   5   -0.04    0.25
  12   0   5   -0.23    0.28
   0  12   5    0.46    0.20
   7 -13   5    0.16    0.17
  13  -6   5    0.14    0.18
   6   7   5    0.54    0.32
   7   6  -5    0.07    0.31
   6 -13  -5    0.09    0.26
  13  -7  -5    0.62    0.28
   6   7   5    0.33    0.20
  -7  13   5    0.40    0.37
 -13   7  -5    0.25    0.20
  13  -7  -5    0.31    0.34
  -6  13  -5    0.75    0.41
   7   6   5    0.39    0.22
   7   6   5    0.31    0.31
  13  -6  -5    0.55    0.36
   6   7  -5    0.13    0.30
   7 -13  -5    0.17    0.27
  13  -7   5    0.39    0.22
  -6  13   5    0.68    0.46
  -7  13  -5   -0.04    0.33
  13  -6  -5    0.16    0.21
   5 -13  -5    6.05    0.87
   5   8   5    4.49    0.60
  -5  13  -5    6.66    1.05
  13  -5   5    5.40    0.59
  13  -5   5    5.28    0.66
  13  -8  -5    5.04    0.74
   8   5  -5    6.61    0.96
  -8  13   5    4.75    1.04
   5   8   5    4.23    0.79
 -13   8  -5    5.70    0.61
   8 -13   5    5.35    0.57
  13  -5  -5    4.99    0.85
   8   5   5    4.41    0.58
  -5  13   5    5.00    1.03
   5   8  -5    4.41    0.80
   8 -13  -5    6.03    0.89
   8   5   5    4.89    0.76
  13  -5  -5    4.69    0.69
  -8  13  -5    5.60    0.97
  13  -8   5    4.19    0.55
  13  -4   5    1.88    0.47
  13  -4   5    2.51    0.42
   4   9   5    2.52    0.46
  -9  13   5    2.64    0.69
   9   4  -5    3.07    0.70
   4   9   5    3.17    0.72
   9 -13   5    3.15    0.49
  -4  13  -5    2.12    0.62
   4 -13  -5    1.80    0.51
  13  -9  -5    2.58    0.56
 -13   9  -5    2.20    0.40
  -9  13  -5    1.47    0.54
  13  -4  -5    2.31    0.48
   9 -13  -5    2.03    0.53
   4   9  -5    2.60    0.62
 -13   9   5    2.22    0.60
  -4  13   5    3.60    0.87
   9   4   5    2.32    0.51
  13  -4  -5    2.45    0.64
   9   4   5    1.81    0.39
  13  -9   5    3.27    0.50
   3  10   5    3.66    0.57
  10   3  -5    3.57    0.75
   3  10   5    4.27    0.87
  13  -3   5    4.12    0.64
   3 -13  -5    3.78    0.69
  10 -13   5    4.08    0.56
  -3  13  -5    4.55    0.87
  13  -3   5    3.79    0.52
  13 -10  -5    3.80    0.67
 -13  10  -5    3.14    0.52
 -10  13   5    3.49    0.76
  10 -13  -5    4.17    0.74
 -13  10   5    3.36    0.72
  -3  13   5    5.04    1.05
  10   3   5    4.07    0.70
 -10  13  -5    4.77    0.82
  13  -3  -5    3.36    0.57
  13  -3  -5    3.86    0.78
  13 -10   5    3.28    0.56
  10   3   5    4.35    0.57
   3  10  -5    3.01    0.67
  13 -11  -5    4.13    0.74
   2 -13  -5    5.63    0.85
  -2  13  -5    4.17    0.84
  13  -2   5    4.60    0.57
   2  11   5    4.78    0.97
  13  -2   5    4.75    0.72
  11   2  -5    4.07    0.52
 -11  13   5    5.53    0.97
  11 -13   5    4.39    0.61
 -13  11  -5    4.56    0.66
  11   2  -5    4.99    0.90
   2  11   5    3.82    0.59
  11 -13  -5    3.60    0.71
 -13  11   5    4.91    0.86
  11   2   5    4.76    0.59
 -11  13  -5    4.15    0.78
  13 -11   5    5.78    0.72
  -2  13   5    5.84    1.17
  11   2   5    3.76    0.67
  13  -2  -5    4.62    0.85
   2  11  -5    4.61    0.83
  13  -2  -5    4.53    0.64
  13  -1   5    0.64    0.34
  13  -1   5    1.20    0.30
  -1  13  -5    1.11    0.47
  13 -12  -5    1.55    0.49
  12 -13   5    0.68    0.29
  12   1  -5    1.04    0.29
  12   1  -5    1.06    0.45
 -12  13   5    1.02    0.45
   1  12   5    1.02    0.33
   1  12   5    0.53    0.47
 -13  12  -5    1.36    0.51
  13  -1  -5    1.47    0.53
  13 -12   5    1.03    0.38
  12   1   5    1.19    0.31
  13  -1  -5    1.08    0.30
 -13  12   5    1.14    0.45
  12 -13  -5    2.22    0.56
  -1  13   5    0.40    0.48
  12   1   5    1.25    0.43
   1  12  -5    0.99    0.43
  -1  13   5    1.49    0.38
 -12  13  -5    1.36    0.44
  13   0   5    0.38    0.29
   0  13  -5    0.11    0.32
  13 -13  -5   -0.02    0.27
  13 -13   5   -0.30    0.18
  13   0  -5    0.06    0.17
   0  13   5   -0.53    0.36
 -13  13   5    0.21    0.30
  13   0   5    0.13    0.18
   0  13   5    0.01    0.20
 -13  13  -5    0.20    0.26
  13   0  -5    0.47    0.35
   7   7   5    2.56    0.46
  14  -7  -5    1.91    0.58
  -7  14   5    2.10    0.68
   7 -14  -5    1.97    0.52
  -7  14  -5    1.52    0.59
   7   7  -5    2.08    0.56
  14  -7  -5    2.64    0.54
   7   7   5    2.62    0.62
  14  -7   5    2.18    0.41
   6   8   5    0.39    0.23
  14  -8  -5    0.51    0.39
  14  -8  -5    0.71    0.33
   8   6  -5    0.26    0.33
   6 -14  -5    0.37    0.32
  -8  14   5    0.05    0.32
  14  -6   5    0.63    0.25
  -6  14  -5    1.09    0.51
   6   8   5    0.45    0.37
   8   6   5    0.21    0.21
  14  -6  -5    0.01    0.33
  14  -6  -5    0.44    0.25
   8   6   5   -0.39    0.34
   6   8  -5    0.48    0.39
  -8  14  -5    0.35    0.41
  14  -8   5    0.23    0.21
   8 -14  -5    0.68    0.39
  -6  14   5    0.43    0.43
   5   9   5    0.49    0.34
   9   5  -5    0.42    0.37
  14  -5   5    0.53    0.24
   5   9   5    0.40    0.28
  -5  14  -5    0.26    0.34
   5 -14  -5    0.38    0.31
  14  -9  -5    0.52    0.31
   9 -14   5    0.54    0.27
  -9  14   5   -0.08    0.54
  -5  14   5    0.24    0.41
  14  -5  -5    0.61    0.39
   9   5   5    0.41    0.23
 -14   9   5    0.71    0.42
  14  -5  -5    0.29    0.24
  -9  14  -5    0.10    0.33
  14  -9   5    0.25    0.26
   5   9  -5   -0.02    0.26
   9 -14  -5    0.69    0.35
   9   5   5    0.32    0.30
   4  10   5    0.90    0.40
  14  -4   5    0.45    0.23
  10   4  -5    1.29    0.50
  14 -10  -5    0.56    0.36
 -10  14   5    0.30    0.31
   4  10   5    0.59    0.26
  -4  14  -5    0.87    0.45
   4 -14  -5    0.60    0.31
  10 -14   5    0.53    0.26
  14 -10   5    0.09    0.27
 -10  14  -5    0.25    0.36
  14  -4  -5    0.94    0.29
  10 -14  -5    1.00    0.42
   4  10  -5    0.25    0.39
 -14  10   5    0.77    0.39
  10   4   5    0.12    0.30
  -4  14   5    0.56    0.51
  14  -4  -5    0.88    0.43
  10   4   5    0.80    0.26
  14  -3   5    2.22    0.41
  -3  14  -5    1.39    0.54
   3  11   5    3.10    0.77
   3  11   5    2.47    0.46
 -11  14   5    1.91    0.63
  14 -11  -5    1.26    0.42
  11   3  -5    1.18    0.52
  11 -14   5    2.30    0.46
   3 -14  -5    1.88    0.51
  -3  14   5    1.96    0.75
  11   3   5    2.59    0.56
  14 -11   5    2.27    0.49
 -11  14  -5    2.67    0.67
  11 -14  -5    2.51    0.64
   3  11  -5    2.18    0.61
  14  -3  -5    2.06    0.59
 -14  11   5    2.32    0.61
  11   3   5    2.65    0.44
  14  -3  -5    1.60    0.42
   2 -14  -5    3.78    0.70
   2  12   5    5.85    1.11
  14 -12  -5    6.37    0.92
   2  12   5    4.88    0.68
 -14  12  -5    4.04    0.67
 -12  14   5    4.98    0.98
  12   2  -5    5.38    1.00
  14  -2   5    5.23    0.62
  12 -14   5    5.08    0.68
  -2  14  -5    5.75    1.00
  12 -14  -5    5.66    0.93
  14  -2  -5    5.06    0.91
  14 -12   5    4.81    0.71
  12   2   5    4.04    0.72
  12   2   5    5.54    0.63
 -14  12   5    4.19    0.84
  -2  14   5    5.65    1.16
   2  12  -5    4.33    0.85
  14  -2  -5    4.53    0.66
 -12  14  -5    5.02    0.86
   1  13   5    0.16    0.22
  13   1  -5    0.22    0.17
  13 -14   5    0.62    0.31
 -13  14   5    0.83    0.44
  14  -1   5    0.31    0.22
 -14  13  -5    0.58    0.29
  -1  14  -5    0.94    0.45
   1  13   5    0.63    0.44
  13   1  -5    0.70    0.42
  14 -13  -5    0.03    0.30
   1  13  -5   -0.04    0.32
  13   1   5    0.70    0.37
  -1  14   5    0.43    0.28
  14  -1  -5   -0.47    0.27
  -1  14   5    1.04    0.56
  14 -13   5    0.26    0.27
 -13  14  -5    0.62    0.34
 -14  13   5   -0.13    0.29
  13   1   5    0.53    0.23
  13 -14  -5    0.31    0.32
  14  -1  -5    0.50    0.26
  14 -14   5   -0.25    0.20
   0  14   5    0.23    0.44
   0  14  -5    0.05    0.34
  14   0  -5   -0.04    0.33
  14   0   5    0.10    0.19
  14 -14  -5    0.40    0.36
   0  14   5    0.30    0.22
 -14  14  -5    0.19    0.31
  14   0  -5    0.29    0.18
 -14  14   5    0.04    0.33
  15  -8  -5    1.63    0.60
  -7  15  -5    1.61    0.63
   7   8   5    1.07    0.40
   8   7  -5    0.84    0.43
  15  -8  -5    1.55    0.47
  -8  15   5    2.79    0.81
   7   8   5    1.55    0.39
   7 -15  -5    1.96    0.55
  15  -7   5    1.79    0.38
  -7  15   5    1.19    0.57
  -8  15  -5    1.29    0.49
  15  -7  -5    1.67    0.48
  15  -7  -5    1.09    0.56
   8 -15  -5    1.12    0.41
   7   8  -5    1.36    0.53
   8   7   5    1.89    0.50
   8   7   5    1.67    0.39
  15  -8   5    1.12    0.37
  -6  15  -5    7.54    1.20
  -9  15   5    5.17    1.04
  15  -6   5    5.63    0.65
   6   9   5    6.65    1.00
   6   9   5    6.11    0.71
   9   6  -5    7.90    1.15
   6 -15  -5    6.53    0.93
  15  -9  -5    6.37    0.92
  15  -6  -5    6.96    0.89
   9   6   5    7.39    0.73
  15  -6  -5    7.24    1.12
   6   9  -5    7.26    1.09
  -6  15   5    6.69    1.23
 -15   9   5    7.21    1.09
   9 -15  -5    7.56    1.04
  -9  15  -5    5.98    1.08
  15  -9   5    5.82    0.72
   9   6   5    6.57    0.93
 -10  15   5    2.04    0.66
  10 -15   5    2.44    0.47
  15  -5   5    3.05    0.48
  -5  15  -5    3.19    0.79
  15 -10  -5    2.26    0.57
   5  10   5    2.96    0.70
  10   5  -5    3.40    0.79
   5  10   5    2.22    0.43
   5 -15  -5    3.82    0.72
  -5  15   5    2.98    0.85
  15  -5  -5    1.79    0.63
  15 -10   5    2.28    0.52
   5  10  -5    2.47    0.67
  10 -15  -5    2.63    0.63
 -15  10   5    1.81    0.60
  10   5   5    2.00    0.39
  15  -5  -5    2.40    0.52
 -10  15  -5    3.12    0.76
  10   5   5    2.15    0.56
 -11  15   5    0.58    0.42
  15  -4   5    1.39    0.33
  15 -11  -5    1.21    0.46
  11   4  -5    1.98    0.62
   4  11   5    1.59    0.55
  11 -15   5    1.15    0.36
  -4  15  -5    1.20    0.56
   4  11   5    1.03    0.31
   4 -15  -5    1.46    0.50
  11 -15  -5    1.56    0.50
 -11  15  -5    0.72    0.52
  15  -4  -5    1.88    0.58
  -4  15   5    1.29    0.58
  11   4   5    1.29    0.34
   4  11  -5    0.84    0.60
  11   4   5    1.65    0.47
 -15  11   5    1.59    0.55
  15 -11   5    0.93    0.38
  15  -4  -5    1.28    0.38
  15  -3   5    1.61    0.36
  12 -15   5    1.16    0.37
   3  12   5    1.04    0.33
  15 -12  -5    1.95    0.54
   3 -15  -5    1.52    0.50
   3  12   5    1.85    0.64
 -12  15   5    1.86    0.63
  -3  15  -5    1.33    0.56
  12   3  -5    2.38    0.69
  15  -3  -5    1.01    0.35
  15  -3  -5    1.87    0.65
  -3  15   5    1.34    0.68
  12 -15  -5    1.21    0.46
 -15  12   5    1.53    0.55
   3  12  -5    1.32    0.53
  12   3   5    0.76    0.27
  12   3   5    1.07    0.42
 -12  15  -5    0.89    0.49
  15 -12   5    1.30    0.43
  15 -13  -5    1.25    0.50
   2  13   5    2.56    0.74
  -2  15  -5    1.74    0.58
 -13  15   5    1.60    0.58
  13   2  -5    1.21    0.57
  13 -15   5    1.47    0.41
  15  -2   5    1.91    0.39
  15 -13   5    1.68    0.46
  15  -2  -5    1.63    0.59
  -2  15   5    1.87    0.46
  -2  15   5    2.27    0.80
 -13  15  -5    0.82    0.48
 -15  13   5    1.49    0.54
  15  -2  -5    1.02    0.36
  13   2   5    1.59    0.51
   2  13  -5    2.32    0.63
  13   2   5    1.95    0.40
 -14  15   5    1.12    0.51
   1  14   5    1.08    0.64
  14   1  -5    0.96    0.46
  15 -14  -5    1.02    0.46
  -1  15  -5    0.80    0.52
  15  -1   5    1.21    0.33
  14 -15   5    1.41    0.43
   1  14  -5    1.03    0.52
  -1  15   5    0.16    0.53
  14   1   5    1.36    0.35
  15 -14   5    1.02    0.41
  15  -1  -5    1.35    0.55
  14 -15  -5    0.72    0.44
 -15  14   5    1.48    0.54
 -14  15  -5    1.56    0.47
  15  -1  -5    0.58    0.29
  15   0  -5    0.47    0.40
  15 -15   5   -0.15    0.21
  15 -15  -5   -0.05    0.29
   0  15   5   -0.77    0.38
  15   0   5   -0.24    0.15
   0  15  -5    0.18    0.37
 -15  15   5    0.38    0.36
   8   8  -5    5.37    0.96
  16  -8  -5    6.38    1.10
   8   8   5    4.32    0.60
  16  -8  -5    5.16    0.82
   8   8   5    3.29    0.71
  -8  16  -5    4.99    0.95
  -8  16   5    3.61    0.92
  16  -8   5    4.81    0.67
   8 -16  -5    6.41    0.94
  -7  16  -5    0.48    0.43
   7 -16  -5    1.07    0.43
   7   9   5    1.02    0.34
  16  -9  -5    0.99    0.39
   9   7  -5    1.19    0.53
   7   9   5    1.21    0.49
  16  -7   5    0.99    0.33
  -9  16   5    1.35    0.59
  16  -7  -5    1.07    0.51
   9   7   5    1.21    0.46
  -7  16   5    1.71    0.70
   7   9  -5    0.01    0.35
   9 -16  -5    0.37    0.35
  16  -7  -5    0.75    0.36
   9   7   5    1.09    0.30
  16  -9   5    1.16    0.37
  -9  16  -5    0.40    0.41
   6  10   5    0.50    0.35
  10   6  -5    0.39    0.43
  16  -6   5    0.92    0.31
 -10  16   5    0.78    0.53
   6  10   5    0.99    0.32
   6 -16  -5    0.96    0.42
  -6  16  -5    1.55    0.56
  16 -10  -5    0.77    0.39
 -16  10   5    0.55    0.44
  16  -6  -5    2.18    0.64
  10 -16  -5    0.45    0.41
  16 -10   5    0.84    0.40
  10   6   5    1.60    0.36
   6  10  -5    0.73    0.46
  16  -6  -5    1.16    0.38
  -6  16   5    0.39    0.51
 -10  16  -5    0.85    0.46
  10   6   5    0.55    0.39
  16  -5   5    0.56    0.25
  -5  16  -5   -0.49    0.29
  11   5  -5    0.57    0.44
   5  11   5    1.25    0.34
 -11  16   5    0.90    0.50
   5 -16  -5   -0.15    0.30
  16 -11  -5    0.94    0.43
   5  11   5    1.63    0.54
  16  -5  -5    0.20    0.24
 -11  16  -5    0.61    0.48
   5  11  -5    0.20    0.34
  16  -5  -5    0.74    0.45
  11   5   5    0.65    0.35
  16 -11   5    0.64    0.38
  11 -16  -5    0.51    0.37
  11   5   5    0.83    0.28
 -16  11   5    0.30    0.39
  -5  16   5    1.44    0.62
   4  12   5    2.78    0.74
  12   4  -5    3.15    0.83
  -4  16  -5    2.49    0.73
   4 -16  -5    4.23    0.74
  12 -16   5    3.22    0.56
  16  -4   5    3.63    0.54
 -12  16   5    3.32    0.79
  16 -12  -5    3.79    0.77
   4  12  -5    2.54    0.81
  16  -4  -5    2.57    0.71
  -4  16   5    4.31    1.03
  16 -12   5    3.36    0.65
  12   4   5    2.64    0.45
  12 -16  -5    3.56    0.73
 -16  12   5    2.32    0.66
  16  -4  -5    2.98    0.60
  12   4   5    4.37    0.72
 -12  16  -5    3.79    0.84
  16  -3   5    1.16    0.33
  16 -13  -5    1.17    0.46
   3  13   5    1.65    0.63
  -3  16  -5    1.93    0.60
  13 -16   5    1.44    0.43
  13   3  -5    1.47    0.54
 -13  16   5    0.54    0.52
  13 -16  -5    0.58    0.41
  16  -3  -5    0.82    0.36
  16 -13   5    0.59    0.38
 -13  16  -5    0.62    0.46
  13   3   5    0.94    0.29
  13   3   5    1.08    0.42
  -3  16   5    0.19    0.53
  16  -3  -5    0.73    0.49
 -16  13   5    1.83    0.56
   3  13  -5    1.28    0.50
 -14  16   5    0.56    0.46
  16  -2   5    0.70    0.28
  14   2  -5    0.19    0.40
   2  14   5   -0.45    0.42
  16 -14  -5    0.66    0.36
  14 -16   5    0.28    0.32
  -2  16  -5    0.63    0.43
  16 -14   5    0.06    0.26
   2  14  -5    0.34    0.37
  16  -2  -5   -0.02    0.23
  14 -16  -5    0.17    0.35
 -14  16  -5   -0.05    0.34
  -2  16   5    0.67    0.55
  14   2   5    0.46    0.23
  16  -2  -5   -0.04    0.34
 -16  14   5    0.48    0.38
 -15  16   5    1.77    0.64
  16 -15  -5    2.25    0.65
  16  -1   5    2.16    0.43
  15 -16   5    2.13    0.52
  15   1  -5    3.20    0.77
  -1  16  -5    3.10    0.83
   1  15   5    2.73    0.82
  -1  16   5    2.44    0.80
   1  15  -5    2.58    0.70
  16 -15   5    2.61    0.57
  15   1   5    2.22    0.44
  15 -16  -5    3.11    0.74
 -16  15   5    3.53    0.84
  16  -1  -5    2.52    0.73
  16  -1  -5    2.34    0.53
   0  16   5    1.01    0.63
  16 -16   5    0.09    0.27
   0  16  -5    0.04    0.36
 -16  16   5    0.13    0.46
  16 -16  -5    0.31    0.35
  16   0   5    0.09    0.19
  16   0  -5   -0.48    0.37
  -8  17  -5    0.14    0.41
  -9  17   5    0.09    0.47
  17  -8   5   -0.13    0.21
   8   9   5   -0.51    0.27
   8 -17  -5    0.13    0.31
  17  -9  -5    0.11    0.44
  17  -9  -5    0.01    0.26
   9   8  -5    0.40    0.40
   8   9   5    0.55    0.24
  -9  17  -5    0.19    0.42
   9 -17  -5    0.85    0.37
  17  -9   5    0.01    0.31
  -8  17   5    1.63    0.62
   9   8   5    0.58    0.23
   8   9  -5    0.26    0.37
  17  -8  -5   -0.12    0.39
  17  -8  -5    0.61    0.34
   9   8   5    0.83    0.36
   7  10   5    0.37    0.34
  17 -10  -5    0.31    0.30
  17  -7   5    0.53    0.29
   7 -17  -5    0.77    0.39
  10   7  -5    0.33    0.39
  -7  17  -5    0.50    0.47
 -10  17   5    0.39    0.42
  10 -17  -5    0.34    0.36
  17  -7  -5    0.42    0.45
 -17  10   5    0.92    0.51
  10   7   5   -0.05    0.31
  17 -10   5   -0.06    0.27
  17  -7  -5   -0.08    0.22
  10   7   5    0.31    0.20
   7  10  -5    0.88    0.43
 -10  17  -5    0.54    0.42
  -7  17   5    0.00    0.48
   6  11   5    2.97    0.75
 -11  17   5    5.26    1.10
  11   6  -5    4.83    0.97
  -6  17  -5    3.18    0.87
  17 -11  -5    3.10    0.72
  17  -6   5    3.39    0.58
   6 -17  -5    4.39    0.80
  -6  17   5    2.63    0.92
  11   6   5    5.11    0.88
  11   6   5    4.20    0.58
   6  11  -5    3.78    0.84
  11 -17  -5    4.60    0.85
 -17  11   5    3.57    0.83
  17 -11   5    4.08    0.72
  17  -6  -5    3.86    0.70
 -11  17  -5    2.93    0.80
  17  -6  -5    4.85    0.99
 -12  17   5    0.44    0.48
   5  12   5    0.74    0.50
  -5  17  -5    0.41    0.44
  17  -5   5    0.91    0.30
   5 -17  -5    0.33    0.38
  12   5  -5    0.03    0.37
  17 -12  -5    1.02    0.45
  17  -5  -5    0.62    0.33
 -17  12   5    0.62    0.48
   5  12  -5    0.02    0.37
  17  -5  -5    1.12    0.58
  12 -17  -5    0.46    0.34
  12   5   5    0.49    0.39
  12   5   5    0.85    0.25
  17 -12   5    0.29    0.34
 -12  17  -5    1.54    0.57
  -5  17   5    0.72    0.60
  17  -4   5    2.50    0.47
  17 -13  -5    2.34    0.66
  13   4  -5    2.47    0.73
 -13  17   5    2.59    0.79
   4  13   5    2.69    0.81
  13 -17   5    2.93    0.57
  -4  17  -5    2.57    0.78
  17  -4  -5    1.90    0.49
 -17  13   5    3.05    0.75
  13 -17  -5    3.41    0.74
  13   4   5    2.29    0.44
  -4  17   5    4.38    1.07
  17 -13   5    2.23    0.55
 -13  17  -5    1.52    0.60
  17  -4  -5    2.35    0.69
   4  13  -5    2.49    0.84
  13   4   5    3.55    0.68
  -3  17  -5    2.25    0.72
  17  -3   5    1.87    0.42
  17 -14  -5    0.90    0.45
  14   3  -5    0.98    0.50
   3  14   5    1.82    0.73
 -14  17   5    1.58    0.60
  14 -17   5    2.04    0.51
  -3  17   5    1.21    0.67
   3  14  -5    1.01    0.54
  14   3   5    1.65    0.37
  14 -17  -5    1.26    0.49
  17 -14   5    0.90    0.39
 -17  14   5    1.20    0.55
  17  -3  -5    0.62    0.34
 -14  17  -5    0.89    0.47
  17  -3  -5    2.89    0.75
  17  -2   5    2.02    0.44
   2  15   5    1.94    0.67
  17 -15  -5    1.23    0.50
  15 -17   5    1.58    0.50
 -15  17   5    1.96    0.71
  15   2  -5    2.38    0.76
  -2  17  -5    1.18    0.60
   2  15  -5    2.11    0.63
  -2  17   5    0.45    0.59
 -17  15   5    1.21    0.57
  17  -2  -5    1.45    0.42
  15   2   5    2.27    0.45
  17  -2  -5    2.19    0.68
  15 -17  -5    2.27    0.68
  17 -15   5    2.01    0.51
  16 -17   5    2.23    0.57
  17 -16  -5    2.56    0.69
   1  16   5    3.02    0.91
  16   1  -5    3.83    0.87
  -1  17  -5    2.11    0.72
  17  -1   5    2.03    0.41
 -16  17   5    2.40    0.81
  17  -1  -5    2.93    0.76
  16   1   5    2.33    0.44
  17 -16   5    2.16    0.55
  -1  17   5    2.83    0.90
  16 -17  -5    2.51    0.68
 -17  16   5    1.49    0.61
   1  16  -5    2.53    0.71
  17 -17   5   -0.27    0.28
   0  17   5    0.39    0.49
 -17  17   5    0.12    0.42
  17   0   5   -0.13    0.19
  17 -17  -5   -0.03    0.29
   0  17  -5   -0.14    0.36
  17   0  -5   -0.02    0.39
   9   9  -5    0.74    0.47
   9 -18  -5    1.10    0.49
  18  -9   5    0.64    0.41
  18  -9  -5    0.86    0.38
  -9  18  -5    0.73    0.53
  18  -9  -5    1.15    0.54
   9   9   5    0.10    0.43
  -9  18   5    0.59    0.52
  18 -10  -5    3.55    0.73
  10   8  -5    3.97    0.85
 -10  18   5    2.31    0.84
  18  -8   5    3.16    0.62
   8 -18  -5    3.97    0.79
  -8  18  -5    3.00    0.80
  18 -10   5    3.90    0.71
  18  -8  -5    3.59    0.85
 -18  10   5    3.88    0.88
  10 -18  -5    3.40    0.75
 -10  18  -5    3.40    0.86
  -8  18   5    2.60    0.88
  10   8   5    3.80    0.76
  18  -8  -5    2.83    0.66
   8  10  -5    2.59    0.74
   7 -18  -5   -0.01    0.33
 -11  18   5    0.90    0.59
  18 -11  -5    0.52    0.34
  -7  18  -5   -0.02    0.40
  18  -7   5    0.70    0.37
  11   7  -5    0.69    0.44
   7  11   5   -0.25    0.33
  11   7   5    0.54    0.38
  18 -11   5    0.51    0.37
 -11  18  -5    0.40    0.48
  18  -7  -5    0.08    0.25
  11   7   5    0.22    0.20
  -7  18   5    0.33    0.48
   7  11  -5    0.38    0.41
  11 -18  -5    0.27    0.35
  18  -7  -5    0.16    0.40
 -18  11   5   -0.07    0.40
   6  12   5    0.95    0.47
  -6  18  -5    1.07    0.60
  18 -12  -5    2.40    0.62
  12   6  -5    1.70    0.66
  18  -6   5    1.29    0.39
 -12  18   5    2.10    0.73
  12 -18  -5    1.48    0.59
 -12  18  -5    3.06    0.87
  18  -6  -5    1.87    0.53
   6  12  -5    1.73    0.64
  18 -12   5    1.17    0.47
  12   6   5    1.75    0.38
  -6  18   5    2.54    0.89
  12   6   5    1.91    0.59
  18  -6  -5    2.21    0.74
 -18  12   5    0.61    0.47
 -13  18   5    1.33    0.69
  18  -5   5    1.32    0.40
  18 -13  -5    1.20    0.48
  13   5  -5    0.84    0.55
   5  13   5    0.64    0.52
  -5  18  -5    1.95    0.67
 -13  18  -5    2.37    0.72
 -18  13   5    1.14    0.57
   5  13  -5    1.39    0.59
  13 -18  -5    2.11    0.63
  18  -5  -5    1.22    0.42
  13   5   5    0.94    0.50
  13   5   5    1.64    0.36
  18 -13   5    1.80    0.53
  18  -5  -5    1.72    0.64
  -5  18   5    1.74    0.79
  -4  18  -5    1.02    0.50
  14   4  -5    1.59    0.64
  18 -14  -5    0.27    0.34
 -14  18   5   -0.47    0.66
  18  -4   5    0.38    0.26
   4  14   5    0.55    0.46
 -18  14   5    1.33    0.54
  18  -4  -5    1.04    0.53
   4  14  -5    1.01    0.71
  18  -4  -5    1.00    0.32
  14 -18  -5    0.13    0.39
  14   4   5    0.82    0.29
  18 -14   5    0.90    0.38
  -4  18   5    0.73    0.63
 -14  18  -5    0.65    0.46
  18 -15  -5    3.36    0.77
  15   3  -5    4.87    1.06
  -3  18  -5    3.99    0.90
   3  15   5    4.26    1.00
  18  -3   5    3.85    0.61
  15 -18   5    3.67    0.68
 -15  18   5    3.18    0.86
 -18  15   5    4.16    0.92
  18  -3  -5    4.90    0.78
  18  -3  -5    4.92    1.00
  15 -18  -5    3.65    0.82
  18 -15   5    4.83    0.82
  -3  18   5    5.56    1.25
  15   3   5    3.57    0.53
   3  15  -5    3.74    0.84
  18  -2   5    0.94    0.30
  16 -18   5    0.61    0.39
 -16  18   5    0.71    0.46
  18 -16  -5    0.98    0.53
  -2  18  -5    1.21    0.65
   2  16   5    0.45    0.60
  16   2  -5    0.77    0.51
   2  16  -5   -0.37    0.40
  18 -16   5    0.95    0.44
  16   2   5    0.46    0.26
 -18  16   5    0.83    0.50
  -2  18   5    2.18    0.87
  18  -2  -5    2.32    0.70
  16 -18  -5    1.48    0.56
  17   1  -5    1.17    0.61
  -1  18  -5    1.07    0.57
  18 -17  -5    0.12    0.39
  18  -1   5    0.38    0.24
 -17  18   5    0.70    0.47
  17 -18   5    0.71    0.38
   1  17   5    1.24    0.62
  17 -18  -5    1.90    0.65
  18  -1  -5    1.06    0.54
 -18  17   5    0.88    0.47
  -1  18   5    0.47    0.64
  18 -17   5    1.37    0.52
  17   1   5    0.20    0.21
   1  17  -5   -0.16    0.40
  18 -18  -5    0.09    0.36
   0  18   5    0.09    0.58
 -18  18   5   -0.07    0.40
  18   0  -5   -0.03    0.43
  18   0   5    0.06    0.19
   0  18  -5   -0.73    0.35
  18 -18   5    0.35    0.34
  10   9  -5    2.12    0.65
  -9  19  -5    0.89    0.52
   9 -19  -5    1.35    0.47
   9  10   5    1.89    0.58
  19 -10  -5    2.23    0.61
 -10  19   5    1.22    0.61
  19  -9   5    1.48    0.51
  19 -10   5    1.34    0.50
   9  10  -5    1.94    0.68
  19  -9  -5    1.82    0.54
 -10  19  -5    1.16    0.57
  10 -19  -5    2.12    0.56
  -9  19   5    0.34    0.57
  19  -9  -5    2.63    0.78
  10   9   5    1.43    0.54
 -19  10   5    1.50    0.66
   8  11   5    1.12    0.54
  11   8  -5    2.38    0.76
  -8  19  -5    1.99    0.64
  19  -8   5    1.57    0.53
 -11  19   5    1.57    0.68
  19 -11  -5    2.05    0.60
  19  -8  -5    1.85    0.53
  -8  19   5    1.11    0.72
 -11  19  -5    1.52    0.63
  19  -8  -5    2.32    0.72
  11 -19  -5    1.54    0.50
  19 -11   5    2.92    0.66
   8  11  -5    2.47    0.76
 -19  11   5    2.20    0.70
  11   8   5    1.82    0.63
   7  12   5    0.46    0.40
  -7  19  -5    1.00    0.51
  19 -12  -5    0.51    0.36
  19  -7   5    0.51    0.32
 -12  19   5    0.30    0.45
  12   7  -5   -0.10    0.38
   7  12  -5    0.28    0.34
  12 -19  -5   -0.10    0.35
  19 -12   5    0.10    0.32
  -7  19   5    0.35    0.56
  12   7   5    1.32    0.47
 -12  19  -5    0.07    0.44
 -19  12   5    0.25    0.44
  19  -7  -5    0.82    0.48
  19  -7  -5    0.18    0.27
  19  -6   5    0.38    0.31
   6  13   5    0.62    0.41
  13   6  -5    0.66    0.55
 -13  19   5    0.85    0.63
  -6  19  -5    1.29    0.59
  19 -13  -5   -0.16    0.26
  13   6   5    0.68    0.43
 -19  13   5    0.69    0.47
  19  -6  -5   -0.26    0.42
  -6  19   5    0.13    0.53
  19 -13   5    0.42    0.34
 -13  19  -5    1.40    0.61
  19  -6  -5    0.59    0.38
  13 -19  -5    1.15    0.48
   6  13  -5    0.94    0.48
  -5  19  -5    0.14    0.41
  14   5  -5   -0.32    0.42
 -14  19   5   -0.25    0.38
  19 -14  -5    0.36    0.33
  19  -5   5    0.25    0.25
   5  14   5    0.88    0.53
  14   5   5   -0.02    0.19
  -5  19   5   -0.82    0.50
  14 -19  -5   -0.13    0.30
  19  -5  -5   -0.29    0.39
  19  -5  -5   -0.60    0.23
  19 -14   5   -0.07    0.25
 -19  14   5    0.74    0.42
  -4  19  -5    0.28    0.45
 -15  19   5    0.69    0.57
  15   4  -5   -0.06    0.47
  19  -4   5    0.58    0.31
  19 -15  -5    1.60    0.55
   4  15   5    1.10    0.51
 -19  15   5    1.08    0.51
  15   4   5    0.25    0.23
  19  -4  -5    0.33    0.32
   4  15  -5    0.35    0.63
  15 -19  -5   -0.05    0.37
  19 -15   5    0.43    0.35
  19  -4  -5    0.77    0.56
  -4  19   5    0.83    0.68
  19 -16  -5    0.57    0.45
  19  -3   5    0.51    0.26
   3  16   5    0.10    0.43
 -16  19   5    0.06    0.47
  -3  19  -5   -0.24    0.38
  16   3  -5    0.89    0.52
 -19  16   5    0.79    0.48
  16   3   5    0.60    0.28
  19  -3  -5    1.21    0.55
   3  16  -5    0.13    0.34
  -3  19   5    0.24    0.51
  16 -19  -5    0.31    0.38
  19 -16   5    0.97    0.47
 -17  19   5    0.32    0.45
  -2  19  -5    0.47    0.41
  17 -19   5   -0.17    0.32
  19  -2   5    0.22    0.21
  17   2  -5    0.09    0.42
   2  17   5    0.07    0.42
  19 -17  -5    0.71    0.47
  17   2   5    0.11    0.21
  19  -2  -5   -0.33    0.41
  17 -19  -5    0.64    0.46
 -19  17   5    0.22    0.42
   2  17  -5    0.14    0.41
  19 -17   5    0.67    0.36
  -2  19   5    0.09    0.53
  19  -1   5    2.63    0.49
   1  18   5    1.55    0.74
 -18  19   5    2.82    0.88
  19 -18  -5    1.91    0.62
  18 -19   5    3.01    0.67
  -1  19  -5    1.45    0.60
  18   1  -5    0.83    0.68
  -1  19   5    3.39    0.96
  19 -18   5    1.80    0.58
  19  -1  -5    2.10    0.72
 -19  18   5    1.62    0.63
  18 -19  -5    1.32    0.53
   1  18  -5    1.85    0.64
  18   1   5    2.11    0.43
  19 -19  -5   -0.14    0.33
 -19  19   5   -0.36    0.44
  19 -19   5    0.30    0.35
  19   0  -5    0.45    0.48
  19   0   5   -0.06    0.21
   0  19  -5    0.33    0.39
   0  19   5    0.34    0.47
  10 -20  -5    2.42    0.64
  20 -10   5    2.63    0.63
 -20  10   5    2.36    0.80
 -10  20   5    3.21    0.89
  20 -10  -5    3.10    0.70
  10  10   5    1.99    0.63
 -10  20  -5    5.84    1.19
  10  10  -5    3.25    0.86
  20 -11  -5    0.95    0.45
   9  11   5    0.01    0.38
  20  -9   5    0.02    0.30
  11   9  -5   -0.52    0.37
  -9  20  -5   -0.48    0.50
 -11  20   5    0.00    0.53
  20 -11   5    0.16    0.39
   9  11  -5    0.85    0.50
  20  -9  -5    1.11    0.55
  -9  20   5    0.74    0.60
 -11  20  -5    0.27    0.44
 -20  11   5   -0.46    0.36
  20  -9  -5    0.05    0.27
  11 -20  -5   -0.30    0.35
  11   9   5    0.01    0.39
  12   8  -5    0.44    0.45
  20 -12  -5    0.28    0.34
 -12  20   5    0.42    0.53
   8  12   5    0.56    0.41
  20  -8   5    0.02    0.33
  -8  20  -5   -0.32    0.42
  20  -8  -5    1.06    0.41
  20 -12   5    0.05    0.32
 -12  20  -5   -0.69    0.51
 -20  12   5   -0.12    0.37
  -8  20   5   -0.02    0.53
  20  -8  -5   -0.08    0.39
   8  12  -5    0.97    0.51
  12 -20  -5    0.03    0.34
  12   8   5   -0.43    0.37
  13   7  -5    0.34    0.45
   7  13   5    0.25    0.38
  -7  20  -5    0.54    0.49
  20 -13  -5   -0.27    0.30
  20  -7   5   -0.11    0.34
 -13  20   5    0.77    0.50
 -13  20  -5    1.34    0.59
  20  -7  -5    0.99    0.51
  20 -13   5    0.22    0.32
 -20  13   5    0.00    0.36
   7  13  -5   -0.19    0.36
  20  -7  -5   -0.31    0.25
  -7  20   5   -0.02    0.52
  13 -20  -5   -0.24    0.33
  14   6  -5   -0.32    0.43
  20  -6   5    0.44    0.37
  -6  20  -5    0.07    0.39
  20 -14  -5    0.01    0.34
 -14  20   5    0.36    0.52
   6  14   5   -0.12    0.37
  14 -20  -5   -0.04    0.37
  20  -6  -5    0.64    0.33
 -20  14   5    0.30    0.39
  20  -6  -5   -0.27    0.44
   6  14  -5    0.67    0.40
  -6  20   5    0.89    0.55
  20 -14   5    0.67    0.36
  15   5  -5   -0.22    0.42
  20  -5   5   -0.15    0.22
  -5  20  -5    0.34    0.40
   5  15   5   -0.37    0.41
 -15  20   5    0.27    0.45
  20 -15  -5    0.23    0.37
  20  -5  -5    0.04    0.27
  20  -5  -5    0.05    0.43
  20 -15   5    0.51    0.35
  -5  20   5   -0.74    0.50
 -20  15   5   -0.08    0.38
  15 -20  -5    0.07    0.40
   5  15  -5   -0.26    0.35
  20  -4   5    0.79    0.36
 -16  20   5    0.54    0.52
  16   4  -5    0.51    0.48
  -4  20  -5    0.14    0.43
   4  16   5    0.01    0.42
  20 -16  -5    0.55    0.47
  20  -4  -5    0.14    0.45
 -20  16   5    1.14    0.46
  20  -4  -5   -0.05    0.30
  16 -20  -5    0.36    0.32
  -4  20   5   -0.40    0.61
  20 -16   5    0.07    0.33
   4  16  -5   -0.12    0.40
  20 -17  -5   -0.02    0.34
 -17  20   5    1.51    0.97
  -3  20  -5   -0.15    0.45
   3  17   5    0.26    0.56
  17   3  -5    0.52    0.55
  20  -3   5    0.46    0.28
  -3  20   5   -0.17    0.58
 -20  17   5    0.55    0.48
   3  17  -5    1.08    0.53
  20  -3  -5    0.24    0.49
  17 -20  -5    0.83    0.44
  20 -17   5    0.58    0.39
 -18  20   5    0.69    0.59
  20  -2   5    0.27    0.29
  -2  20  -5   -0.17    0.45
  18 -20   5    0.34    0.37
   2  18   5   -0.49    0.49
  20 -18  -5    0.45    0.38
  18   2  -5    0.01    0.45
  18 -20  -5    0.33    0.42
  -2  20   5    0.22    0.58
  20  -2  -5    1.09    0.60
  18   2   5    0.53    0.25
  20 -18   5   -0.07    0.38
 -20  18   5    0.43    0.45
   2  18  -5    0.74    0.50
  19 -20   5    0.58    0.37
 -19  20   5    0.86    0.54
  20  -1   5    0.83    0.34
  -1  20  -5    0.93    0.53
  19   1  -5    1.35    0.60
  20 -19  -5    0.60    0.44
   1  19   5    1.92    0.66
  20  -1  -5    1.88    0.65
  19 -20  -5    1.50    0.51
 -20  19   5    0.14    0.52
  20 -19   5    1.41    0.59
  19   1   5    1.02    0.32
  -1  20   5    0.47    0.64
   1  19  -5    0.63    0.57
  20 -20  -5    0.17    0.42
 -20  20   5   -0.27    0.50
   0  20   5   -0.41    0.52
   0  20  -5    0.11    0.46
  20   0  -5    0.50    0.54
  20   0   5    0.00    0.26
  20 -20   5    0.23    0.42
  10  11   5    0.19    0.40
  21 -10   5    1.12    0.48
  21 -11  -5    1.13    0.47
 -21  10   5    0.56    0.60
  11  10  -5    0.40    0.42
 -11  21   5    1.95    0.76
 -10  21  -5    1.96    0.81
 -21  11   5    0.91    0.56
  11  10   5    0.33    0.46
  10  11  -5    0.35    0.49
 -11  21  -5    1.31    0.60
 -10  21   5    1.73    0.71
  21 -10  -5    1.01    0.38
  21 -11   5    1.03    0.51
 -12  21   5   -0.56    0.49
  -9  21  -5   -0.22    0.50
  21  -9   5    0.32    0.31
   9  12   5    0.29    0.44
  21 -12  -5    0.05    0.33
  12   9  -5    0.70    0.53
  21  -9  -5    1.01    0.53
  12   9   5   -1.13    0.39
 -21  12   5   -0.25    0.40
 -12  21  -5   -0.12    0.50
  21 -12   5    0.06    0.32
  12 -21  -5   -0.02    0.36
  -9  21   5   -0.97    0.53
  21  -9  -5    0.06    0.35
   9  12  -5    0.49    0.42
  21 -13  -5    0.37    0.33
  13   8  -5    1.12    0.56
  -8  21  -5   -0.29    0.47
   8  13   5   -0.30    0.38
 -13  21   5   -0.11    0.56
  21  -8   5    0.58    0.37
  21 -13   5   -0.31    0.33
   8  13  -5    0.59    0.46
  13 -21  -5    0.53    0.37
 -21  13   5   -0.10    0.39
  21  -8  -5    0.31    0.30
  21  -8  -5   -0.19    0.39
  -8  21   5    0.19    0.63
 -13  21  -5   -0.71    0.45
   7  14   5    0.21    0.39
  21  -7   5    0.05    0.34
  -7  21  -5    0.59    0.48
  21 -14  -5    0.11    0.30
  14   7  -5    0.23    0.49
 -14  21   5   -0.40    0.48
   7  14  -5   -0.23    0.40
  -7  21   5    1.39    0.61
  21 -14   5    0.12    0.36
  21  -7  -5    0.23    0.32
  14 -21  -5    0.44    0.45
 -21  14   5    0.15    0.40
  21  -7  -5    0.77    0.50
   6  15   5   -0.22    0.41
 -15  21   5   -1.07    0.48
  21 -15  -5   -0.31    0.29
  21  -6   5   -0.11    0.37
  15   6  -5   -0.25    0.44
  -6  21  -5   -0.37    0.44
   6  15  -5   -0.24    0.36
  15 -21  -5    0.07    0.38
  21 -15   5    0.47    0.41
  -6  21   5   -0.45    0.61
 -21  15   5   -0.07    0.39
  21  -6  -5   -0.11    0.29
  21  -6  -5    0.07    0.46
  21  -5   5    0.71    0.44
  -5  21  -5   -0.24    0.46
   5  16   5   -0.15    0.44
 -16  21   5   -0.34    0.48
  21 -16  -5    0.14    0.42
  16   5  -5    0.16    0.47
  21 -16   5    0.53    0.38
  16 -21  -5   -0.12    0.40
  21  -5  -5    0.04    0.37
   5  16  -5    0.48    0.44
  21  -5  -5    0.32    0.45
 -21  16   5    0.87    0.50
  -5  21   5    1.05    0.68
  21  -4   5    0.70    0.40
  21 -17  -5   -0.01    0.37
  17   4  -5    0.41    0.49
   4  17   5    0.34    0.49
 -17  21   5   -0.90    0.50
  -4  21  -5   -0.04    0.49
 -21  17   5    0.19    0.45
  17 -21  -5   -0.51    0.40
   4  17  -5    0.12    0.39
  21 -17   5    0.23    0.35
  21  -4  -5   -0.07    0.49
  -4  21   5    0.68    0.69
  21 -18  -5    0.13    0.40
  18   3  -5    0.72    0.53
 -18  21   5    0.00    0.50
  -3  21  -5    0.53    0.56
  21  -3   5    0.52    0.27
   3  18   5    1.15    0.61
  21  -3  -5   -0.41    0.48
 -21  18   5   -0.41    0.42
  -3  21   5    0.40    0.56
   3  18  -5    0.35    0.51
  21 -18   5    0.01    0.35
  18 -21  -5   -0.31    0.36
   2  19   5   -0.81    0.52
 -19  21   5    0.32    1.06
  -2  21  -5    0.50    0.49
  19   2  -5   -0.10    0.57
  21  -2   5    0.92    0.37
  21 -19  -5    0.77    0.59
  21 -19   5    1.42    0.57
  -2  21   5    2.59    0.88
  21  -2  -5    0.80    0.65
  19 -21  -5    0.89    0.56
   2  19  -5    0.39    0.50
 -21  19   5   -0.06    0.52
  20 -21   5   -0.56    0.33
  21  -1   5   -0.25    0.30
  20   1  -5   -0.06    0.51
 -20  21   5   -0.90    0.55
  -1  21  -5    0.02    0.54
   1  20   5   -0.75    0.52
  21 -20  -5    0.62    0.52
  21 -20   5   -0.52    0.36
 -21  20   5    0.09    0.55
  20 -21  -5    0.66    0.49
  21  -1  -5   -0.02    0.61
   1  20  -5    0.98    0.55
  -1  21   5   -0.01    0.58
  11  11  -5    1.58    0.54
 -11  22  -5    2.20    0.79
  22 -11  -5    1.57    0.56
  11  11   5    0.57    0.46
 -11  22   5    2.65    0.82
  22 -11   5    0.91    0.42
 -22  11   5    1.10    0.60
 -12  22   5    0.14    0.66
 -10  22  -5    0.00    0.59
 -22  10   5    0.52    0.62
  22 -12  -5    0.30    0.41
  10  12   5    0.15    0.48
  22 -10   5    1.17    0.49
  12  10  -5    0.83    0.57
 -10  22   5   -0.22    0.63
  22 -12   5    0.13    0.37
 -22  12   5   -0.22    0.45
 -12  22  -5    0.08    0.57
  12  10   5    1.95    0.60
  22 -10  -5    0.29    0.36
  10  12  -5    0.55    0.45
  -9  22  -5    2.29    0.77
   9  13   5    0.38    0.46
  13   9  -5   -0.05    0.44
  22  -9   5    0.39    0.35
  22 -13  -5    1.47    0.51
 -13  22   5   -0.35    0.59
  -9  22   5   -0.07    0.58
 -13  22  -5   -0.42    0.50
 -22  13   5    0.39    0.44
  22  -9  -5    1.14    0.46
   9  13  -5    0.55    0.46
  22 -13   5    0.52    0.40
  22  -9  -5    2.42    0.78
  22 -14  -5    0.68    0.42
  -8  22  -5    0.53    0.55
   8  14   5   -0.54    0.40
  22  -8   5   -0.26    0.27
 -14  22   5   -1.08    0.52
  14   8  -5   -0.78    0.42
  -8  22   5   -0.62    0.58
  22  -8  -5    0.69    0.36
 -22  14   5    0.28    0.40
  22 -14   5    0.18    0.34
  14 -22  -5   -0.19    0.39
   8  14  -5    0.36    0.43
  22  -8  -5   -1.06    0.43
  22 -15  -5    1.92    0.58
  15   7  -5    1.79    0.64
   7  15   5    0.76    0.54
  -7  22  -5    0.53    0.56
  22  -7   5    1.91    0.57
 -15  22   5    0.13    0.58
  -7  22   5    0.35    0.66
  22  -7  -5    0.08    0.52
  22  -7  -5    0.88    0.41
  22 -15   5    0.30    0.40
  15 -22  -5   -0.02    0.39
 -22  15   5    1.30    0.57
   7  15  -5    0.44    0.42
  -6  22  -5   -0.29    0.48
 -16  22   5    0.14    0.57
  16   6  -5    0.35    0.47
   6  16   5    0.11    0.51
  22 -16  -5   -0.69    0.30
  22  -6   5   -0.02    0.36
  16 -22  -5    0.63    0.44
  22  -6  -5   -0.22    0.34
  22  -6  -5    0.13    0.52
 -22  16   5    0.16    0.46
  -6  22   5    1.39    0.70
   6  16  -5    0.38    0.47
  22 -16   5    0.16    0.42
  22 -17  -5   -0.45    0.37
 -17  22   5   -0.54    0.52
  17   5  -5    0.74    0.52
  -5  22  -5    0.73    0.52
   5  17   5    0.01    0.48
  22  -5   5    0.24    0.46
   5  17  -5   -0.39    0.43
  17 -22  -5    1.02    0.53
  22  -5  -5    0.58    0.53
  22 -17   5    0.03    0.37
 -22  17   5   -0.11    0.46
  -5  22   5   -0.66    0.62
 -18  22   5   -0.18    0.55
  -4  22  -5   -0.10    0.49
   4  18   5   -0.38    0.55
  22  -4   5    0.42    0.50
  18   4  -5   -0.67    0.49
  22 -18  -5   -0.07    0.42
  -4  22   5    0.82    0.63
  22 -18   5    0.39    0.46
 -22  18   5    0.68    0.57
   4  18  -5    0.33    0.53
  18 -22  -5    0.62    0.42
  22  -4  -5    0.63    0.55
  19   3  -5   -0.09    0.59
  22  -3   5    0.72    0.48
   3  19   5    0.18    0.54
 -19  22   5   -1.21    0.55
  -3  22  -5    1.37    0.55
  22 -19   5   -0.16    0.45
  22  -3  -5    0.31    0.54
   3  19  -5    0.21    0.86
  -3  22   5    1.24    0.80
  19 -22  -5    0.00    0.43
 -22  19   5    0.02    0.55
  23 -12  -5    0.13    0.32
 -12  23   5    1.41    0.74
  11  12   5    0.04    0.42
 -11  23  -5    0.90    0.67
  23 -11   5   -0.12    0.29
 -23  11   5   -0.11    0.49
  12  11  -5   -0.21    0.44
 -23  12   5    0.28    0.55
  11  12  -5    0.90    0.51
  23 -12   5    0.58    0.48
 -11  23   5   -1.29    0.61
  23 -11  -5    0.39    0.38
  12  11   5    1.47    0.54
 -12  23  -5    0.98    0.59
  23 -13  -5    0.94    0.47
  10  13   5    0.28    0.44
 -23  10   5    0.66    0.65
 -13  23   5    1.04    0.75
 -10  23  -5    1.64    0.67
  13  10  -5    0.45    0.54
  23 -10   5    0.06    0.34
 -13  23  -5    0.77    0.65
  10  13  -5    0.35    0.50
  23 -13   5    0.36    0.36
 -23  13   5   -0.49    0.40
  23 -10  -5    0.75    0.44
 -10  23   5   -0.33    0.65
 -14  23   5   -0.83    0.59
  23  -9   5    0.14    0.38
  23 -14  -5    0.80    0.43
  14   9  -5   -0.57    0.44
  -9  23  -5    0.34    0.58
   9  14   5    1.18    0.47
 -23  14   5    0.22    0.49
   9  14  -5    0.07    0.48
  23 -14   5    0.13    0.30
  23  -9  -5    0.27    0.58
  -9  23   5    0.58    0.77
  23  -9  -5    0.82    0.37
  23 -15  -5   -0.13    0.38
 -15  23   5    1.63    0.68
   8  15   5    1.24    0.73
  -8  23  -5   -0.08    0.57
  15   8  -5    0.51    0.64
  23  -8   5   -0.27    0.32
  23 -15   5   -0.22    0.34
   8  15  -5   -0.09    0.46
  23  -8  -5   -0.97    0.54
 -23  15   5    0.14    0.45
  23  -8  -5    0.30    0.35
  -8  23   5   -0.82    0.62
  -7  23  -5    0.65    0.51
  23 -16  -5    0.30    0.42
  16   7  -5    0.48    0.52
  23  -7   5    0.56    0.42
   7  16   5   -0.81    0.40
 -16  23   5    0.44    0.64
  16 -23  -5   -0.87    0.38
   7  16  -5    1.04    0.58
  -7  23   5   -0.50    0.66
  23 -16   5   -0.17    0.40
 -23  16   5   -0.16    0.46
  23  -7  -5   -0.95    0.53
  23  -7  -5    0.39    0.36
  23  -6   5   -0.11    0.38
  -6  23  -5    1.29    0.60
   6  17   5    0.57    0.56
 -17  23   5    0.53    0.63
  17   6  -5    0.06    0.55
  23  -6  -5    0.81    0.66
  23 -17   5    0.49    0.42
 -23  17   5   -0.33    0.47
  17 -23  -5    0.76    0.52
 -12  24  -5    0.16    0.56
  11  13   5    0.31    0.50
 -11  24  -5    0.85    0.67
   0   0  -6  685.05   24.21
   0   0   6  644.42   23.18
   0   1   6   18.95    0.93
   0  -1   6   20.76    1.00
   1   0  -6   18.05    1.03
   1  -1  -6   19.80    1.00
   1   0   6   19.99    0.87
   1  -1  -6   18.82    1.08
  -1   1  -6   18.83    0.88
   1   0  -6   19.67    1.01
   0   1   6   19.99    1.06
   1  -1   6   20.10    1.01
   1   0   6   19.49    1.02
   0   1  -6   18.70    0.95
   2  -1   6   60.84    2.53
   1   1   6   63.01    2.51
   1  -2   6   63.14    2.48
   1   1  -6   63.85    2.56
  -1   2   6   63.53    2.58
   2  -1  -6   65.20    2.64
   1   1   6   65.20    2.61
   2  -1  -6   60.42    2.64
   1   1  -6   62.45    2.62
  -1   2  -6   60.46    2.49
   2  -1   6   63.67    2.37
   1  -2  -6   62.40    2.69
   2   0   6   10.57    0.54
   2   0  -6   10.71    0.71
   0   2  -6   10.81    0.65
   2  -2  -6   11.47    0.78
   0  -2   6    9.78    0.60
   2   0   6    9.53    0.68
   2  -2   6    9.34    0.62
   2  -2  -6   10.47    0.71
  -2   2  -6   11.71    0.53
   0   2   6   10.86    0.65
   2   0  -6   11.25    0.73
  -1   3  -6   14.39    0.76
   3  -2  -6   14.40    0.90
   2   1  -6   13.14    0.85
   3  -2  -6   14.76    0.91
   1   2   6   13.78    0.87
  -2   3   6   14.46    0.85
   3  -1   6   13.45    0.81
   1  -3  -6   13.89    0.95
   2   1  -6   15.27    0.82
   1   2   6   14.60    0.84
  -1  -2   6   15.34    0.76
   2  -3   6   14.04    0.74
  -2   3  -6   14.85    0.70
   1   2  -6   15.39    0.86
  -1   3   6   14.50    0.84
   2   1   6   13.84    0.77
   2  -3  -6   12.84    0.91
   1  -3   6   13.31    0.71
   3  -1  -6   15.07    0.92
   3  -1  -6   11.68    0.81
   3  -2   6   13.26    0.78
   2   1   6   13.10    0.85
   3  -3  -6   29.47    1.57
   3   0   6   32.80    1.34
   3   0   6   30.33    1.49
   3   0  -6   31.00    1.47
   3   0  -6   33.62    1.63
   3  -3   6   31.85    1.40
   0   3   6   33.39    1.57
  -3   3  -6   32.60    1.28
   0  -3   6   31.08    1.33
  -3   3   6   30.65    1.55
   0   3  -6   32.28    1.49
   2  -4  -6    4.28    0.60
   2   2  -6    4.71    0.39
   2   2   6    5.62    0.50
   2  -4   6    5.50    0.38
  -2   4   6    5.65    0.51
   2   2  -6    5.23    0.55
  -2   4  -6    4.95    0.39
   4  -2   6    6.12    0.48
   4  -2  -6    5.76    0.57
   4  -2  -6    5.32    0.60
   2   2   6    5.75    0.58
   4  -3  -6    4.81    0.56
  -3   4   6    4.19    0.50
  -1  -3   6    4.81    0.34
  -1   4  -6    4.34    0.40
   4  -3  -6    4.14    0.54
   1   3   6    5.03    0.55
   3  -4   6    4.13    0.35
   3   1  -6    3.88    0.41
   3   1  -6    4.85    0.55
   4  -1   6    5.09    0.50
   1   3   6    4.82    0.55
   1  -4  -6    4.00    0.58
   4  -3   6    4.09    0.42
  -3   4  -6    4.53    0.33
   4  -1  -6    4.08    0.55
   4  -1  -6    4.34    0.48
  -1   4   6    4.52    0.53
   1   3  -6    4.56    0.49
   3  -4  -6    4.62    0.59
   3   1   6    4.13    0.39
   3   1   6    3.94    0.50
   1  -4   6    4.69    0.33
   0  -4   6    6.64    0.39
   0  -4  -6    6.71    0.74
   4   0   6    7.07    0.57
   4  -4   6    6.44    0.46
  -4   4  -6    6.94    0.40
   0   4   6    7.09    0.63
  -4   4   6    5.82    0.60
   4   0  -6    6.41    0.67
   4  -4  -6    6.03    0.66
   0   4  -6    6.71    0.54
   4   0   6    7.40    0.40
   4   0  -6    6.06    0.49
   3   2  -6   18.62    1.14
   2  -5  -6   18.76    1.20
   2   3   6   18.18    1.08
   5  -3  -6   17.93    1.17
   3   2  -6   19.88    0.93
   3  -5   6   17.84    0.86
  -2   5  -6   19.74    1.02
   2   3   6   18.41    1.14
   5  -3  -6   18.52    1.08
  -3   5   6   19.24    1.14
   5  -2   6   18.72    1.01
  -3   5  -6   17.79    0.96
   2  -5   6   18.50    0.84
   5  -3   6   17.45    0.96
   3   2   6   17.36    1.05
   3   2   6   19.27    1.07
  -2   5   6   19.19    1.16
   5  -2  -6   19.58    1.22
   3  -5  -6   19.33    1.18
   5  -2  -6   21.00    1.09
   2   3  -6   19.82    0.90
   2   3  -6   18.17    1.09
   4  -5   6   15.33    0.76
   4   1  -6   13.85    0.80
   5  -4  -6   13.69    0.95
   1  -5  -6   12.82    1.00
   5  -4  -6   14.82    1.03
   5  -1   6   14.38    0.88
   5  -1   6   15.89    0.68
   4   1  -6   12.75    0.98
  -1   5  -6   15.01    0.91
  -5   4  -6   14.74    0.70
  -1  -4   6   16.19    0.69
  -4   5   6   16.05    1.00
   1   4   6   15.53    0.98
   1   4   6   15.58    1.06
   4   1   6   17.22    0.84
   5  -1  -6   14.65    1.03
   5  -1  -6   15.03    0.88
   1   4  -6   13.44    0.92
   4  -5  -6   14.74    1.00
   1  -5   6   15.65    0.68
  -1   5   6   15.82    1.06
   5  -4   6   15.54    0.83
  -4   5  -6   14.79    0.81
   4   1   6   14.31    0.90
   5   0  -6    5.34    0.67
   0  -5   6    6.22    0.33
   5  -5   6    6.41    0.46
   0   5  -6    6.07    0.55
  -5   5  -6    5.67    0.44
   5   0  -6    5.25    0.45
   5   0   6    7.54    0.59
   0   5   6    6.57    0.77
  -5   5   6    6.34    0.67
   5  -5  -6    7.04    0.72
   5   0   6    6.06    0.40
   0  -5  -6    5.52    0.72
   6  -3  -6    1.15    0.29
   6  -3  -6    1.02    0.33
  -3   6   6    1.94    0.41
   3   3  -6    1.81    0.24
   3   3  -6    1.14    0.32
   6  -3   6    1.09    0.26
   3   3   6    1.23    0.31
   3  -6   6    1.69    0.21
   3  -6  -6    1.49    0.38
   3   3   6    1.53    0.37
  -3   6  -6    1.35    0.29
   2   4   6    1.90    0.43
   6  -4  -6    1.63    0.41
   4   2  -6    1.82    0.26
   2   4   6    2.40    0.42
   4   2  -6    2.15    0.43
  -4   6   6    1.99    0.40
   6  -2   6    1.48    0.31
   6  -4  -6    2.09    0.39
   6  -2   6    2.03    0.18
  -6   4  -6    1.86    0.20
  -2   6  -6    1.49    0.31
   2  -6  -6    1.52    0.41
  -2  -4   6    2.30    0.19
   4  -6   6    2.13    0.25
   6  -4   6    1.98    0.32
   4   2   6    1.81    0.37
   2  -6   6    2.05    0.20
   4  -6  -6    1.31    0.36
  -2   6   6    1.52    0.40
   2   4  -6    1.70    0.37
   6  -2  -6    1.42    0.39
   4   2   6    2.52    0.37
  -4   6  -6    1.59    0.31
   6  -2  -6    1.53    0.32
   1  -6  -6   15.54    1.11
   5   1  -6   16.17    1.13
   6  -1   6   15.10    0.93
   5   1  -6   15.28    0.84
   1   5   6   15.20    1.01
  -1   6  -6   14.34    0.97
  -1  -5   6   16.24    0.65
   1   5   6   15.49    1.16
  -5   6   6   15.87    1.07
   6  -5  -6   14.65    1.00
   6  -1   6   16.01    0.77
   5  -6   6   16.35    0.80
  -6   5  -6   16.93    0.84
   5   1   6   15.37    0.95
  -1   6   6   14.91    1.14
   1  -6   6   16.41    0.66
   1   5  -6   17.15    1.05
   6  -1  -6   13.96    0.88
  -5   6  -6   15.39    0.92
   6  -5   6   16.12    0.85
   6  -1  -6   15.73    1.13
  -6   5   6   16.17    1.11
   5  -6  -6   14.74    1.05
   5   1   6   17.76    0.89
  -6   6   6    6.25    0.71
  -6   6  -6    6.18    0.51
   6   0  -6    5.44    0.73
   6   0   6    6.36    0.61
   0   6  -6    5.76    0.65
   6  -6   6    5.64    0.43
   6   0  -6    5.99    0.48
   6   0   6    5.60    0.43
   6  -6  -6    7.43    0.76
   0   6   6    6.68    0.86
   3   4   6    3.54    0.57
   3  -7  -6    2.10    0.48
  -7   4  -6    2.30    0.21
   4   3  -6    2.54    0.28
   7  -4  -6    2.24    0.42
  -3   7  -6    2.87    0.45
   4  -7   6    3.41    0.27
   7  -3   6    3.15    0.43
   7  -4  -6    2.21    0.49
  -4   7   6    4.13    0.63
   3   4   6    3.08    0.47
   4   3  -6    2.97    0.53
  -7   3  -6    2.53    0.22
   3   4  -6    2.48    0.24
   7  -3  -6    2.40    0.51
   4   3   6    3.86    0.52
   3   4  -6    2.57    0.49
   4  -7  -6    2.12    0.48
   4   3   6    4.19    0.54
   3  -7   6    3.31    0.23
   7  -4   6    3.88    0.44
  -3   7   6    3.05    0.58
  -4   7  -6    2.42    0.42
   7  -3  -6    2.52    0.42
   7  -2   6   42.88    1.92
  -5   7   6   39.91    2.17
   5   2  -6   43.48    2.23
   5  -7   6   45.32    1.73
  -7   5  -6   41.00    1.79
   2   5   6   43.43    2.30
   5   2  -6   44.11    1.80
   7  -5  -6   44.33    2.28
   2   5   6   43.07    2.04
   7  -2   6   44.19    1.79
   2  -7  -6   41.46    2.17
   7  -5  -6   40.17    2.02
  -2   7  -6   42.59    2.09
   5   2   6   46.22    2.02
   5  -7  -6   38.24    2.09
  -5   7  -6   41.98    2.05
   7  -2  -6   43.64    1.96
  -2   7   6   43.86    2.32
   5   2   6   45.91    2.00
   7  -5   6   42.57    1.83
   7  -2  -6   43.22    2.27
   2   5  -6   41.67    2.13
   2  -7   6   44.01    1.60
   6   1  -6    2.13    0.32
   6  -7   6    2.52    0.30
  -6   7   6    2.19    0.46
   7  -1   6    2.64    0.42
  -1   7  -6    2.57    0.45
   1   6   6    2.43    0.46
   1  -7  -6    3.27    0.57
   7  -6  -6    2.22    0.45
   1   6   6    2.40    0.56
  -7   6  -6    2.72    0.35
   6   1  -6    3.30    0.58
   7  -1   6    2.68    0.32
   1  -7   6    2.47    0.16
   1   6  -6    2.64    0.50
   6  -7  -6    2.62    0.51
   7  -1  -6    3.18    0.59
   6   1   6    3.19    0.46
   6   1   6    2.84    0.37
   7  -1  -6    1.95    0.34
  -1   7   6    1.63    0.48
  -6   7  -6    3.04    0.45
   7  -6   6    2.33    0.32
  -7   6   6    1.95    0.45
   7  -7   6   50.11    2.07
  -7   7   6   50.42    2.53
   0   7  -6   53.60    2.51
   7   0  -6   55.28    2.68
   0   7   6   48.75    2.73
  -7   7  -6   50.97    2.33
   7   0   6   49.53    2.19
   7  -7  -6   51.44    2.44
   7   0  -6   51.87    2.19
   7   0   6   52.84    2.28
  -8   4  -6   38.53    1.53
  -4   8   6   33.39    2.04
   4   4   6   35.02    1.92
   4   4  -6   36.83    1.48
   8  -4  -6   35.88    1.80
   4  -8   6   34.39    1.44
   4   4  -6   37.88    2.00
   8  -4   6   37.08    1.67
   8  -4  -6   37.22    2.08
   4   4   6   37.02    1.81
   4  -8  -6   38.06    1.98
  -4   8  -6   36.12    1.91
  -5   8   6    0.01    0.20
   3   5   6    0.20    0.20
  -3   8  -6    0.35    0.20
   5   3  -6    0.27    0.11
   5   3  -6    0.29    0.26
   5  -8   6    0.27    0.12
   8  -3   6    0.28    0.14
   8  -5  -6    0.29    0.21
   3  -8  -6    0.14    0.23
  -8   5  -6    0.24    0.10
   8  -3   6    0.22    0.18
   8  -5  -6    0.21    0.26
   3   5   6   -0.02    0.26
   3  -8   6    0.42    0.11
   8  -3  -6    0.01    0.20
  -3   8   6    0.21    0.26
   3   5  -6    0.54    0.27
   5   3   6    0.00    0.17
   5  -8  -6    0.26    0.22
   8  -5   6    0.18    0.17
   8  -3  -6    0.21    0.17
  -5   8  -6    0.28    0.22
   5   3   6    0.29    0.18
   2  -8  -6    1.83    0.45
   6  -8   6    1.47    0.23
   6   2  -6    1.71    0.44
   8  -2   6    2.00    0.29
   2   6   6    1.41    0.47
  -2   8  -6    2.01    0.42
   6   2  -6    1.62    0.26
   8  -6  -6    1.50    0.37
   2   6   6    1.09    0.32
  -8   6  -6    1.71    0.28
   8  -2   6    1.17    0.31
  -6   8   6    1.22    0.39
   2   6  -6    1.82    0.43
   8  -2  -6    1.70    0.35
  -8   6   6    1.39    0.45
  -6   8  -6    1.90    0.38
   6  -8  -6    1.67    0.42
   6   2   6    1.72    0.34
   6   2   6    1.85    0.38
   8  -2  -6    1.59    0.45
  -2   8   6    1.85    0.53
   8  -6   6    1.23    0.26
   2  -8   6    1.90    0.19
   7  -8   6   24.21    1.07
   8  -1   6   22.84    1.25
   7   1  -6   23.28    1.15
   1  -8  -6   21.55    1.45
   8  -7  -6   21.15    1.35
  -1   8  -6   23.06    1.42
   1   7   6   23.44    1.36
   1   7   6   22.61    1.67
  -7   8   6   20.74    1.45
   7   1  -6   24.07    1.56
  -8   7  -6   25.30    1.26
   8  -1   6   21.24    1.15
   8  -1  -6   24.84    1.59
   8  -7   6   23.51    1.12
   7  -8  -6   21.05    1.39
   8  -1  -6   23.22    1.22
   7   1   6   23.92    1.29
  -1   8   6   23.63    1.69
   1   7  -6   23.21    1.44
  -8   7   6   22.24    1.46
  -7   8  -6   22.78    1.36
   7   1   6   22.44    1.21
  -8   8   6   15.92    1.22
  -8   8  -6   18.78    1.12
   8   0   6   16.57    0.99
   8   0  -6   17.51    1.33
   0   8   6   17.08    1.46
   8  -8  -6   17.89    1.21
   8   0   6   16.72    1.03
   8  -8   6   16.36    0.88
   8   0  -6   17.37    0.99
   0   8   6   18.10    1.18
   0   8  -6   18.13    1.23
   5   4  -6    2.78    0.28
  -4   9  -6    2.65    0.51
   4   5   6    2.45    0.44
   5   4  -6    2.44    0.54
  -9   5  -6    2.43    0.28
   9  -4   6    2.48    0.39
  -5   9   6    2.76    0.61
   9  -5  -6    2.71    0.58
   9  -5  -6    2.03    0.42
   5  -9   6    2.78    0.30
   4   5   6    3.00    0.58
   4  -9  -6    2.64    0.55
  -4   9   6    2.58    0.69
  -5   9  -6    2.65    0.52
   4  -9   6    3.09    0.30
   5   4   6    2.62    0.44
   9  -4  -6    2.48    0.56
   9  -5   6    3.18    0.42
   5   4   6    3.20    0.55
   5  -9  -6    3.32    0.60
   9  -4  -6    2.27    0.43
   4   5  -6    3.33    0.61
   9  -6  -6    0.95    0.32
   6   3  -6    1.45    0.24
   9  -3   6    1.75    0.28
   3  -9  -6    1.35    0.41
   3   6   6    2.23    0.52
   9  -3   6    1.76    0.36
   6   3  -6    1.33    0.42
  -9   6  -6    0.98    0.20
   9  -6  -6    0.98    0.40
  -6   9   6    2.16    0.52
   6  -9   6    1.84    0.27
  -3   9  -6    0.98    0.32
   3   6   6    1.88    0.41
   6  -9  -6    0.61    0.30
   9  -6   6    1.68    0.32
   9  -3  -6    0.86    0.27
   9  -3  -6    1.24    0.42
   6   3   6    1.83    0.37
  -3   9   6    1.60    0.52
   6   3   6    1.65    0.35
  -6   9  -6    0.90    0.33
   3  -9   6    2.10    0.22
   3   6  -6    1.09    0.34
   9  -7  -6   27.38    1.56
   7   2  -6   27.56    1.27
  -2   9  -6   24.36    1.58
   2   7   6   26.28    1.79
   2  -9  -6   27.15    1.65
   7  -9   6   26.31    1.21
   7   2  -6   27.59    1.75
   9  -2   6   26.15    1.37
  -9   7  -6   27.08    1.35
   9  -2   6   26.04    1.33
   2   7   6   26.26    1.49
  -7   9   6   26.96    1.72
   9  -2  -6   28.15    1.77
  -2   9   6   26.65    1.90
   2   7  -6   27.09    1.63
   7   2   6   27.45    1.44
  -9   7   6   25.90    1.64
   7  -9  -6   26.32    1.62
   9  -7   6   25.84    1.26
  -7   9  -6   27.82    1.62
   9  -2  -6   26.13    1.40
   7   2   6   25.97    1.43
  -9   8  -6    8.63    0.66
  -8   9   6    6.21    0.89
   9  -1   6    7.66    0.64
   9  -1   6    7.60    0.60
   1  -9  -6    7.97    0.94
  -1   9  -6    7.33    0.87
   8   1  -6    7.11    0.56
   8   1  -6    7.65    0.97
   8  -9   6    7.65    0.54
   9  -8  -6    7.20    0.84
   1   8   6    6.60    1.04
   1   8   6    7.89    0.81
   8   1   6    7.38    0.71
   9  -1  -6    7.28    0.97
   9  -8   6    7.60    0.54
   8   1   6    7.49    0.63
  -9   8   6    7.79    0.92
   9  -1  -6    6.95    0.61
   8  -9  -6    7.84    0.89
  -8   9  -6    7.17    0.78
   1   8  -6    7.71    0.89
  -1   9   6    6.25    1.02
   9   0   6   85.30    3.64
   9  -9   6   88.90    3.38
   9   0  -6   80.83    4.06
  -9   9   6   90.78    4.06
   0   9   6   82.63    4.34
  -9   9  -6   84.40    3.79
   0   9   6   90.71    3.76
   9  -9  -6   80.06    3.75
   9   0   6   90.65    3.57
   0   9  -6   89.28    3.98
   9   0  -6   89.03    3.51
   5   5   6    0.32    0.19
   5   5   6    0.53    0.29
  10  -5  -6    0.41    0.24
  -5  10   6    0.17    0.31
   5 -10   6    0.43    0.16
  10  -5  -6    0.40    0.33
 -10   5  -6    0.33    0.15
  -5  10  -6    0.20    0.27
   5 -10  -6    0.28    0.26
   5   5  -6    0.54    0.35
  10  -5   6    0.21    0.18
   6 -10   6    1.12    0.24
   4 -10  -6    1.95    0.50
   4   6   6    1.06    0.32
  10  -4   6    0.84    0.24
  10  -6  -6    1.18    0.35
  10  -6  -6    1.28    0.45
   6   4  -6    1.33    0.21
 -10   6  -6    1.46    0.24
  -6  10   6    1.15    0.44
   6   4  -6    1.39    0.45
  -4  10  -6    1.35    0.44
   4   6   6    1.03    0.43
  10  -4   6    1.07    0.30
  -6  10  -6    1.69    0.43
   6   4   6    1.42    0.38
  -4  10   6    1.08    0.47
   6   4   6    0.96    0.30
  10  -4  -6    1.44    0.49
   4   6  -6    1.07    0.40
   4 -10   6    1.59    0.23
   6 -10  -6    1.34    0.42
  10  -6   6    0.92    0.27
  10  -4  -6    1.40    0.35
   3   7   6    0.86    0.30
  10  -7  -6    1.10    0.36
   3   7   6    1.81    0.51
   7   3  -6    1.40    0.45
 -10   7  -6    0.81    0.20
   7 -10   6    0.89    0.27
   3 -10  -6    0.64    0.35
  10  -3   6    0.86    0.27
  -7  10   6    0.90    0.41
  -3  10  -6    1.35    0.41
  10  -3   6    1.18    0.28
   7   3  -6    1.12    0.22
  -3  10   6    1.02    0.51
  -7  10  -6    0.99    0.34
  10  -3  -6    1.24    0.32
  10  -7   6    1.04    0.27
   7   3   6    0.64    0.32
 -10   7   6    1.12    0.46
   3   7  -6    1.19    0.40
   7 -10  -6    0.64    0.35
  10  -3  -6    1.07    0.45
   7   3   6    1.18    0.32
   8   2  -6    3.55    0.42
  10  -2   6    3.78    0.49
  -2  10  -6    3.04    0.59
  -8  10   6    3.34    0.65
   2   8   6    2.79    0.71
  10  -2   6    3.55    0.50
   2 -10  -6    3.70    0.68
  10  -8  -6    2.78    0.55
   2   8   6    4.21    0.61
   8   2  -6    3.56    0.69
 -10   8  -6    3.57    0.47
   8 -10   6    3.52    0.42
  -2  10   6    4.10    0.87
  10  -8   6    3.17    0.42
   8   2   6    4.18    0.56
   8   2   6    3.52    0.52
  10  -2  -6    3.62    0.72
  -8  10  -6    4.08    0.67
  10  -2  -6    3.00    0.49
 -10   8   6    4.15    0.70
   8 -10  -6    4.82    0.74
   2   8  -6    3.12    0.60
  -1  10  -6    1.04    0.41
   1   9   6    1.64    0.40
 -10   9  -6    1.50    0.33
   9   1  -6    1.37    0.31
  -9  10   6    1.21    0.45
   1   9   6    0.81    0.47
  10  -1   6    1.10    0.31
  10  -9  -6    2.20    0.50
  10  -1   6    0.95    0.32
   9   1  -6    1.75    0.50
   1 -10  -6    1.49    0.43
   9 -10   6    1.37    0.28
  -1  10   6    1.21    0.58
   9   1   6    1.48    0.35
  10  -9   6    0.71    0.25
   1   9  -6    1.55    0.46
  10  -1  -6    1.44    0.49
 -10   9   6    0.79    0.39
  -9  10  -6    2.31    0.47
   9 -10  -6    1.39    0.43
   9   1   6    0.93    0.30
  10  -1  -6    1.71    0.37
  10   0  -6    5.32    0.59
  10 -10   6    5.31    0.56
  10   0   6    6.60    0.67
  10   0   6    6.67    0.70
  10   0  -6    3.09    0.72
  10 -10  -6    5.21    0.80
   0  10   6    6.70    1.17
 -10  10   6    5.44    0.86
   0  10   6    3.70    0.60
   0  10  -6    5.39    0.82
 -10  10  -6    4.62    0.68
 -11   6  -6    0.19    0.14
   5   6   6    0.16    0.19
   6   5  -6    1.02    0.39
   5   6   6    0.30    0.29
  -6  11   6    1.05    0.44
  11  -6  -6    0.23    0.22
  11  -5   6    0.17    0.20
  -5  11  -6   -0.09    0.25
  11  -6  -6    0.35    0.36
   6 -11   6    0.40    0.16
   5 -11  -6    0.32    0.28
   6   5   6    0.45    0.25
   6   5   6    0.32    0.26
 -11   5  -6    0.36    0.19
  11  -6   6    0.29    0.21
   6 -11  -6    0.62    0.32
  11  -5  -6    0.31    0.39
   5 -11   6    0.52    0.17
  -5  11   6    0.39    0.35
  -6  11  -6    0.36    0.29
   5   6  -6    0.69    0.34
  11  -5  -6    0.37    0.23
  11  -4   6    1.00    0.29
   7   4  -6    1.09    0.43
   4 -11  -6    0.30    0.28
  11  -7  -6    0.59    0.39
   7 -11   6    0.83    0.25
   4   7   6    0.59    0.26
  -4  11  -6    0.85    0.39
   4   7   6    1.05    0.41
  -7  11   6    0.84    0.43
 -11   7  -6    1.09    0.24
  11  -7  -6    0.92    0.34
  11  -4  -6    0.52    0.38
  11  -7   6    1.11    0.29
   7   4   6    0.64    0.30
   7 -11  -6    0.30    0.27
   4   7  -6    1.16    0.42
  11  -4  -6    0.43    0.26
  -7  11  -6    0.23    0.28
   7   4   6    0.72    0.28
  -4  11   6    0.49    0.46
  11  -3   6   17.77    1.08
   8   3  -6   19.39    1.50
   3   8   6   19.24    1.22
  -3  11  -6   17.73    1.38
  11  -3   6   19.30    1.13
  11  -8  -6   19.12    1.30
   3 -11  -6   20.04    1.41
   8   3  -6   20.33    1.01
  -8  11   6   18.56    1.50
   3   8   6   16.63    1.47
 -11   8  -6   18.33    1.09
   8 -11   6   18.66    1.03
   3   8  -6   18.35    1.40
   8 -11  -6   20.39    1.41
  -3  11   6   18.37    1.68
 -11   8   6   19.04    1.42
  11  -8   6   19.57    1.05
   8   3   6   18.74    1.15
  11  -3  -6   16.72    1.14
  11  -3  -6   16.96    1.46
   8   3   6   18.02    1.22
  -8  11  -6   20.21    1.46
   9   2  -6    1.34    0.29
 -11   9  -6    1.60    0.33
   9   2  -6    1.67    0.54
  11  -9  -6    1.74    0.47
   2   9   6    1.98    0.61
  -9  11   6    1.59    0.51
   2 -11  -6    1.55    0.48
  11  -2   6    1.12    0.32
  11  -2   6    1.33    0.34
   9 -11   6    1.62    0.35
  -2  11  -6    1.79    0.51
   2   9   6    1.10    0.33
  -2  11   6    0.95    0.58
  11  -9   6    1.67    0.34
   9 -11  -6    1.18    0.45
  11  -2  -6    1.40    0.34
  -9  11  -6    1.79    0.49
   2   9  -6    1.30    0.42
   9   2   6    1.78    0.41
   9   2   6    1.42    0.36
 -11   9   6    1.42    0.47
  11  -2  -6    2.20    0.59
  10   1  -6   17.87    1.06
  -1  11  -6   16.39    1.36
 -11  10  -6   17.56    1.19
   1  10   6   17.09    1.19
  10   1  -6   16.81    1.44
  11  -1   6   18.21    1.18
 -10  11   6   18.74    1.50
  11  -1   6   18.26    1.10
   1  10   6   18.61    1.66
  11 -10  -6   19.34    1.36
  10 -11   6   19.11    1.09
  11  -1  -6   15.84    1.41
   1  10  -6   16.17    1.33
  11  -1  -6   15.61    1.07
  11 -10   6   17.09    1.03
  -1  11   6   16.86    1.84
 -11  10   6   19.33    1.46
 -10  11  -6   17.44    1.31
  10   1   6   18.58    1.22
  10   1   6   17.99    1.11
  10 -11  -6   17.54    1.32
  11   0  -6    4.24    0.81
  11 -11   6    3.30    0.56
  11   0  -6    3.86    0.55
 -11  11  -6    2.97    0.55
 -11  11   6    3.02    0.69
   0  11  -6    3.38    0.69
   0  11   6    3.31    0.58
   0  11   6    2.85    0.83
  11   0   6    4.02    0.61
  11   0   6    3.75    0.54
  11 -11  -6    3.28    0.67
   6   6  -6   -0.07    0.27
  12  -6  -6    0.69    0.40
  12  -6  -6    0.28    0.24
   6 -12   6    0.33    0.18
  -6  12   6    0.19    0.32
  12  -6   6    0.04    0.18
   6   6   6    0.14    0.30
   6 -12  -6    0.51    0.32
  -6  12  -6    0.10    0.30
   6   6   6    0.40    0.23
  12  -5   6   11.29    0.78
  -7  12   6    9.12    1.23
   5   7   6    9.10    0.78
   5   7   6   10.86    1.14
   7   5  -6    8.42    1.10
  -5  12  -6    9.70    1.17
  12  -7  -6   10.42    1.26
   7 -12   6    9.41    0.66
  12  -7  -6    9.13    0.98
   5 -12  -6    8.44    1.05
  12  -5  -6    9.57    0.94
   5   7  -6   10.70    1.16
  12  -5  -6    9.89    1.21
  -5  12   6   10.85    1.40
   7   5   6    9.49    0.98
   7   5   6    8.78    0.77
   7 -12  -6    9.24    1.08
  -7  12  -6   10.64    1.19
  12  -7   6   10.78    0.74
   4   8   6    0.95    0.31
  -8  12   6    0.77    0.47
   8 -12   6    0.88    0.26
  12  -4   6    0.90    0.29
  12  -8  -6    1.25    0.39
   4   8   6    0.82    0.43
   4 -12  -6    0.78    0.41
  -4  12  -6    0.63    0.37
   8   4  -6    0.43    0.34
  12  -4  -6    0.62    0.28
  12  -4  -6    0.92    0.43
   4   8  -6    0.98    0.39
  -4  12   6    2.26    0.65
   8   4   6    1.14    0.33
   8   4   6    1.53    0.43
  12  -8   6    0.76    0.26
   8 -12  -6    0.86    0.41
 -12   8   6    1.45    0.53
  -8  12  -6    1.04    0.44
   3 -12  -6   10.70    1.18
  -9  12   6   15.45    1.36
   9   3  -6   11.81    1.33
  -3  12  -6   12.06    1.27
   3   9   6   13.61    1.00
 -12   9  -6   12.08    0.88
   9 -12   6   13.23    0.86
  12  -3   6   13.25    0.89
   3   9   6   13.37    1.46
  12  -9  -6    9.72    1.08
  -9  12  -6   12.31    1.27
   9   3   6   13.46    1.04
   3   9  -6   11.30    1.20
   9   3   6   13.00    0.92
  -3  12   6   12.73    1.61
  12  -9   6   14.68    0.89
   9 -12  -6   11.77    1.23
  12  -3  -6   13.05    1.38
  12  -3  -6   11.67    0.93
 -12   9   6   13.58    1.20
   2  10   6    2.25    0.47
  10   2  -6    2.70    0.66
  12 -10  -6    1.93    0.50
  12  -2   6    2.14    0.41
  10 -12   6    1.90    0.40
 -10  12   6    1.46    0.52
   2 -12  -6    2.33    0.59
  -2  12  -6    2.15    0.58
  10   2  -6    2.37    0.40
 -12  10  -6    2.41    0.44
   2  10   6    1.61    0.63
 -10  12  -6    2.74    0.62
  10 -12  -6    2.18    0.54
  12 -10   6    2.34    0.42
  10   2   6    2.18    0.51
 -12  10   6    1.78    0.53
  -2  12   6    2.50    0.71
  12  -2  -6    2.48    0.49
   2  10  -6    2.31    0.59
  12  -2  -6    2.42    0.63
  10   2   6    2.85    0.47
  12  -1   6    3.32    0.50
   1  11   6    3.26    0.57
  11   1  -6    2.10    0.59
  11 -12   6    2.35    0.46
 -12  11  -6    2.75    0.54
   1  11   6    4.20    0.89
  -1  12  -6    1.71    0.54
  12 -11  -6    2.03    0.53
 -11  12   6    2.45    0.62
  11   1  -6    2.23    0.42
 -11  12  -6    3.29    0.60
  11   1   6    3.40    0.53
  -1  12   6    1.94    0.65
  -1  12   6    3.05    0.57
  11   1   6    2.38    0.50
  12 -11   6    2.88    0.53
 -12  11   6    2.24    0.60
  12  -1  -6    1.75    0.57
  12  -1  -6    1.78    0.39
  11 -12  -6    2.11    0.57
   1  11  -6    1.86    0.53
 -12  12   6   24.08    1.76
   0  12   6   22.13    1.90
  12   0   6   20.39    1.21
   0  12   6   18.50    1.32
 -12  12  -6   19.51    1.45
  12   0  -6   19.21    1.23
  12 -12  -6   19.43    1.47
   0  12  -6   18.51    1.52
  12   0  -6   22.81    1.75
  12 -12   6   21.58    1.29
   7   6  -6    1.51    0.48
  -6  13  -6    1.29    0.49
   6   7   6    1.35    0.38
   6 -13  -6    0.98    0.41
  13  -6   6    1.43    0.33
  13  -7  -6    0.71    0.44
  -7  13   6    1.89    0.62
  13  -7  -6    1.04    0.37
   6   7   6    1.84    0.47
   7 -13  -6    1.37    0.47
  13  -6  -6    0.90    0.35
  13  -6  -6    1.39    0.51
   6   7  -6    0.88    0.41
  -6  13   6    0.98    0.51
  -7  13  -6    0.82    0.45
   7   6   6    1.12    0.32
   7   6   6    1.79    0.48
  13  -7   6    1.66    0.35
   5   8   6    8.62    1.13
  13  -5   6   11.30    0.79
   5 -13  -6    8.53    1.09
  -5  13  -6   10.25    1.25
   5   8   6   11.10    0.87
  -8  13   6    9.27    1.32
   8 -13   6    9.88    0.72
   8   5  -6    8.83    1.18
  13  -8  -6    9.25    1.03
  -8  13  -6    8.81    1.19
   5   8  -6   12.21    1.27
   8 -13  -6   10.93    1.20
  -5  13   6   10.37    1.47
  13  -8   6    9.45    0.73
   8   5   6    9.57    1.06
   8   5   6    9.75    0.81
  13  -5  -6   10.58    1.28
  13  -5  -6    9.74    0.98
  -9  13   6    1.07    0.46
   9   4  -6    0.14    0.33
   4   9   6    0.06    0.41
  13  -4   6    0.60    0.26
  13  -9  -6    0.00    0.24
   4 -13  -6    0.40    0.33
   4   9   6    0.45    0.30
   9 -13   6    0.64    0.22
  -4  13  -6    0.81    0.38
  13  -9   6    0.36    0.21
  13  -4  -6    0.54    0.42
  -4  13   6    0.61    0.44
   9 -13  -6    0.38    0.34
  13  -4  -6    0.73    0.31
   9   4   6    0.29    0.25
 -13   9   6    0.43    0.34
   9   4   6    0.52    0.31
  -9  13  -6    0.61    0.38
   4   9  -6    0.27    0.29
   3 -13  -6    0.18    0.32
   3  10   6   -0.57    0.27
  10   3  -6   -0.04    0.34
  -3  13  -6    0.04    0.26
  13 -10  -6    0.08    0.21
 -10  13   6    0.31    0.33
   3  10   6    0.08    0.22
  10 -13   6    0.14    0.18
  13  -3   6    0.05    0.17
  -3  13   6   -0.21    0.35
  13  -3  -6    0.07    0.29
  10 -13  -6    0.31    0.31
   3  10  -6    0.01    0.38
 -10  13  -6    0.21    0.31
  13  -3  -6    0.00    0.19
  10   3   6    0.14    0.18
  13 -10   6   -0.19    0.18
  10   3   6    0.15    0.29
 -13  10   6   -0.09    0.30
   2 -13  -6    2.85    0.65
  -2  13  -6    4.37    0.82
 -11  13   6    4.50    0.87
   2  11   6    4.27    0.64
   2  11   6    4.20    0.91
  11 -13   6    3.37    0.53
  13  -2   6    4.22    0.57
  11   2  -6    3.15    0.74
  13 -11  -6    3.20    0.69
  11   2   6    3.50    0.62
 -11  13  -6    3.29    0.70
  13  -2  -6    2.49    0.50
  11 -13  -6    4.90    0.82
  -2  13   6    4.49    1.00
   2  11  -6    3.54    0.74
  11   2   6    4.65    0.61
 -13  11   6    5.24    0.88
  13 -11   6    4.46    0.64
  13  -2  -6    2.40    0.64
  13  -1   6   -0.09    0.16
   1  12   6    1.53    0.51
  13 -12  -6    0.51    0.34
 -12  13   6    0.42    0.40
  -1  13  -6    0.37    0.31
   1  12   6    0.40    0.25
  12 -13   6    0.37    0.29
  12   1  -6    0.47    0.41
  12   1  -6    0.66    0.21
  13 -12   6    0.29    0.29
 -12  13  -6    0.71    0.32
  -1  13   6   -0.13    0.38
 -13  12   6   -0.06    0.30
   1  12  -6   -0.01    0.24
  13  -1  -6    0.51    0.23
  13  -1  -6    0.66    0.40
  12 -13  -6   -0.09    0.26
  12   1   6    0.42    0.23
  -1  13   6    0.28    0.21
   0  13   6    2.36    0.71
  13   0   6    2.70    0.47
   0  13  -6    2.07    0.61
  13 -13   6    2.81    0.54
   0  13   6    1.90    0.49
 -13  13   6    3.31    0.77
  13 -13  -6    3.02    0.66
  13   0  -6    3.23    0.54
  13   0  -6    2.11    0.60
  -7  14   6   17.80    1.89
  14  -7   6   17.93    1.08
   7   7  -6   17.39    1.49
   7 -14  -6   17.78    1.40
   7   7   6   17.66    1.16
  14  -7  -6   16.14    1.26
  14  -7  -6   18.83    1.59
  -7  14  -6   17.34    1.54
  -6  14  -6    1.80    0.64
  14  -6   6    2.75    0.46
   6   8   6    3.53    0.70
   6 -14  -6    3.44    0.71
  -8  14   6    2.78    0.75
   6   8   6    2.63    0.49
   8   6  -6    1.04    0.48
  14  -8  -6    2.62    0.58
  14  -8  -6    3.41    0.78
   8 -14  -6    2.74    0.65
  14  -8   6    2.85    0.46
  14  -6  -6    2.08    0.49
  14  -6  -6    2.43    0.65
   6   8  -6    2.08    0.61
   8   6   6    2.58    0.50
  -6  14   6    2.07    0.73
  -8  14  -6    2.76    0.69
   8   6   6    2.63    0.59
  14  -9  -6    0.82    0.37
   5   9   6    1.22    0.35
   5 -14  -6    1.19    0.45
   9   5  -6    0.82    0.47
  -9  14   6    0.95    0.54
   9 -14   6    1.07    0.31
  14  -5   6    1.03    0.32
   5   9   6    1.48    0.50
  -5  14  -6    0.83    0.45
  -5  14   6    1.77    0.64
  14  -5  -6    1.38    0.39
   5   9  -6    0.93    0.42
 -14   9   6    1.01    0.50
   9   5   6    1.59    0.48
   9 -14  -6    1.18    0.47
   9   5   6    1.09    0.31
  14  -9   6    1.50    0.36
  14  -5  -6    0.82    0.42
  -9  14  -6    0.81    0.48
  10   4  -6    0.56    0.42
  14  -4   6    0.04    0.18
   4  10   6    0.19    0.22
  -4  14  -6    0.47    0.38
 -10  14   6   -0.47    0.29
   4 -14  -6    0.03    0.32
  14 -10  -6    0.71    0.36
  10 -14   6    0.21    0.22
   4  10   6    0.14    0.33
 -10  14  -6    0.53    0.37
  14 -10   6   -0.22    0.19
  14  -4  -6    0.24    0.34
 -14  10   6    0.15    0.30
   4  10  -6    1.04    0.44
  14  -4  -6    0.51    0.25
  10   4   6    0.27    0.23
  10   4   6    0.05    0.27
  10 -14  -6    0.26    0.39
  -4  14   6    0.88    0.46
  11 -14   6    0.38    0.23
  14 -11  -6    0.25    0.30
   3 -14  -6    0.45    0.37
   3  11   6    0.25    0.22
  14  -3   6    0.23    0.25
 -11  14   6    0.00    0.32
  -3  14  -6    0.10    0.30
  11   3  -6    0.66    0.40
   3  11   6    0.23    0.38
  14 -11   6    0.21    0.32
  11   3   6    0.47    0.22
 -11  14  -6   -0.46    0.31
  14  -3  -6    0.33    0.20
  14  -3  -6    0.24    0.38
   3  11  -6   -0.32    0.34
  -3  14   6    1.43    0.63
  11   3   6    0.21    0.30
  11 -14  -6   -0.11    0.32
 -14  11   6    0.13    0.35
  -2  14  -6    0.58    0.41
 -12  14   6    0.24    0.36
  12   2  -6    0.17    0.37
  14  -2   6    0.12    0.22
   2  12   6    0.56    0.29
   2  12   6    0.31    0.49
  12 -14   6    0.29    0.25
  14 -12  -6    0.80    0.39
 -12  14  -6    0.63    0.36
   2  12  -6    0.27    0.35
 -14  12   6   -0.08    0.29
  14  -2  -6    0.71    0.41
  12 -14  -6    0.27    0.31
  -2  14   6    0.33    0.52
  14 -12   6    0.21    0.29
  14  -2  -6    0.37    0.24
  12   2   6    0.12    0.22
 -13  14   6    1.85    0.57
  13 -14   6    1.79    0.42
  14  -1   6    1.68    0.38
  -1  14  -6    1.39    0.51
   1  13   6    2.71    0.82
   1  13   6    1.76    0.46
  14 -13  -6    1.20    0.49
  13   1  -6    1.48    0.54
  13 -14  -6    1.34    0.49
  13   1   6    1.12    0.31
  -1  14   6    1.25    0.38
 -14  13   6    1.45    0.59
  14  -1  -6    1.52    0.56
   1  13  -6    1.63    0.60
  -1  14   6    1.25    0.67
  14 -13   6    1.55    0.44
  14  -1  -6    1.45    0.40
  14 -14  -6    0.50    0.40
  14   0   6    0.59    0.26
 -14  14   6    0.75    0.42
  14 -14   6    1.07    0.37
   0  14   6    0.91    0.31
   0  14   6    2.08    0.70
   0  14  -6    0.68    0.44
  14   0  -6    1.16    0.53
  -7  15  -6    0.40    0.36
   7   8   6    0.36    0.33
  -8  15   6    1.05    0.50
  15  -7   6    0.09    0.22
  15  -8  -6    0.79    0.47
   7 -15  -6    0.16    0.32
   8   7  -6    0.91    0.43
   7   8   6    0.55    0.27
  15  -8  -6    0.81    0.35
  -8  15  -6   -0.01    0.35
  15  -8   6    0.48    0.25
   8   7   6    0.46    0.25
   8   7   6    0.37    0.31
   8 -15  -6    0.38    0.38
  15  -7  -6   -0.18    0.32
  15  -7  -6    0.93    0.35
  -7  15   6    0.97    0.58
   7   8  -6    0.59    0.44
   6   9   6    0.29    0.22
   9   6  -6   -0.13    0.29
  15  -6   6    0.67    0.27
  15  -9  -6    0.81    0.36
   6 -15  -6    0.69    0.40
   6   9   6    0.26    0.32
  -9  15   6   -0.07    0.36
  -6  15  -6    0.56    0.38
  15  -6  -6    0.51    0.32
  15  -9   6    0.34    0.27
  15  -6  -6    0.68    0.45
   9   6   6    0.39    0.23
 -15   9   6   -0.20    0.37
   9 -15  -6    0.87    0.46
   9   6   6    0.39    0.37
  -6  15   6    0.32    0.41
  -9  15  -6    0.00    0.32
   6   9  -6    0.68    0.38
   5  10   6    0.15    0.22
  15  -5   6    0.59    0.25
   5  10   6    0.56    0.38
 -10  15   6    0.12    0.37
  -5  15  -6    0.39    0.38
   5 -15  -6    0.91    0.42
  15 -10  -6    0.76    0.37
  10   5  -6   -0.17    0.35
 -15  10   6    0.37    0.39
  -5  15   6    0.54    0.47
   5  10  -6   -0.20    0.30
  10   5   6   -0.42    0.30
  10 -15  -6    0.60    0.34
  10   5   6    0.31    0.21
  15  -5  -6    0.33    0.26
  15  -5  -6    1.13    0.50
  15 -10   6    0.29    0.25
 -10  15  -6    0.22    0.38
   4 -15  -6    0.35    0.35
 -11  15   6    0.59    0.41
  11   4  -6    0.78    0.46
  11 -15   6    0.47    0.28
   4  11   6    0.46    0.39
  15  -4   6    0.50    0.25
  -4  15  -6    0.30    0.33
   4  11   6    0.00    0.22
  15 -11  -6    0.29    0.30
  15  -4  -6    0.40    0.27
  15  -4  -6    0.91    0.49
  15 -11   6    0.05    0.34
  11 -15  -6    0.23    0.32
  11   4   6    1.16    0.43
 -15  11   6   -0.14    0.29
 -11  15  -6    0.33    0.39
   4  11  -6   -0.18    0.31
  -4  15   6    0.94    0.60
  11   4   6    0.52    0.24
   3  12   6    1.17    0.36
   3 -15  -6    1.34    0.47
  15 -12  -6    1.00    0.44
  12   3  -6    0.54    0.46
  -3  15  -6    0.79    0.41
  12 -15   6    0.86    0.33
 -12  15   6    0.42    0.38
  15  -3   6    0.77    0.30
   3  12   6    0.90    0.49
  15 -12   6    0.76    0.36
  12 -15  -6    0.30    0.36
  15  -3  -6    0.54    0.28
 -15  12   6    0.99    0.51
  12   3   6    0.85    0.30
   3  12  -6    0.65    0.42
  15  -3  -6    0.66    0.48
  -3  15   6    0.36    0.44
 -12  15  -6    1.04    0.44
   2  13   6    3.38    0.84
 -13  15   6    3.34    0.84
  13 -15   6    2.76    0.54
  13   2  -6    4.22    0.88
  15  -2   6    3.21    0.54
   2  13   6    3.13    0.60
  15 -13  -6    3.21    0.75
  -2  15  -6    2.82    0.71
  15 -13   6    2.84    0.61
 -15  13   6    3.44    0.79
   2  13  -6    3.12    0.74
  -2  15   6    5.16    1.11
  -2  15   6    2.58    0.54
  13 -15  -6    2.32    0.64
  13   2   6    2.79    0.48
  15  -2  -6    3.03    0.76
  15  -2  -6    2.22    0.50
  -1  15  -6    1.10    0.51
 -14  15   6    1.29    0.51
   1  14   6    0.99    0.29
  15 -14  -6    2.07    0.57
  15  -1   6    1.32    0.37
  14   1  -6    1.46    0.56
  14 -15   6    1.54    0.42
   1  14   6    1.77    0.68
  -1  15   6    0.81    0.53
  -1  15   6    1.30    0.38
  15 -14   6    0.81    0.36
  15  -1  -6    0.43    0.29
 -15  14   6    1.44    0.56
   1  14  -6    1.94    0.59
  14 -15  -6    1.84    0.58
  15  -1  -6    1.73    0.61
  14   1   6    1.15    0.32
  15   0   6    1.65    0.41
  15   0  -6    1.04    0.53
   0  15   6    0.63    0.55
 -15  15   6    1.32    0.54
   0  15  -6    1.60    0.61
  15 -15  -6    1.17    0.52
  15 -15   6    0.80    0.36
  16  -8   6    4.60    0.63
   8   8  -6    3.30    0.80
   8   8   6    4.88    0.86
   8   8   6    4.33    0.64
  16  -8  -6    4.93    1.00
  16  -8  -6    4.07    0.74
   8 -16  -6    4.65    0.82
  -8  16   6    3.74    0.99
  -8  16  -6    4.36    0.93
  -7  16  -6    1.49    0.58
   7   9   6    2.32    0.49
  16  -7   6    2.26    0.45
  -9  16   6    1.68    0.67
  16  -9  -6    2.57    0.60
   7 -16  -6    2.38    0.59
   7   9   6    3.03    0.68
   9   7  -6    1.81    0.62
   9   7   6    3.49    0.70
  16  -7  -6    2.94    0.61
  -9  16  -6    2.31    0.69
  16  -7  -6    3.22    0.79
  -7  16   6    0.33    0.57
   9 -16  -6    1.98    0.61
  16  -9   6    2.13    0.47
   7   9  -6    0.63    0.46
   9   7   6    2.76    0.49
   6  10   6    0.96    0.46
  16  -6   6    0.25    0.24
  10   6  -6    1.17    0.51
   6  10   6    0.25    0.22
  -6  16  -6   -0.02    0.37
 -10  16   6    0.63    0.47
   6 -16  -6    0.58    0.39
  16 -10  -6    0.48    0.35
  -6  16   6    0.72    0.48
  16  -6  -6    0.55    0.26
  16  -6  -6    1.61    0.59
 -10  16  -6    0.04    0.38
  16 -10   6    0.95    0.33
  10   6   6    0.83    0.40
 -16  10   6   -0.01    0.39
  10 -16  -6    0.53    0.38
  10   6   6    0.79    0.28
   6  10  -6    1.11    0.49
  16  -5   6    0.98    0.32
  -5  16  -6    0.49    0.44
 -11  16   6    0.15    0.67
   5  11   6    0.66    0.47
   5  11   6    0.72    0.29
  11   5  -6   -0.04    0.37
   5 -16  -6    0.65    0.39
  16 -11  -6    1.13    0.47
  11 -16  -6    0.70    0.45
  11   5   6    0.21    0.34
  16  -5  -6    0.37    0.30
   5  11  -6    1.55    0.56
  16  -5  -6    1.63    0.60
  11   5   6    0.56    0.24
  -5  16   6    0.94    0.56
 -11  16  -6    1.09    0.48
 -16  11   6    0.49    0.47
  16 -11   6    0.76    0.44
  12   4  -6    3.89    0.88
  -4  16  -6    4.52    0.93
   4  12   6    4.68    0.69
   4  12   6    3.69    0.83
  16 -12  -6    4.71    0.84
 -12  16   6    3.70    0.90
   4 -16  -6    3.82    0.73
  16  -4   6    3.86    0.57
  12 -16   6    5.01    0.68
  16  -4  -6    3.43    0.81
  16 -12   6    4.42    0.72
 -12  16  -6    3.48    0.78
  12 -16  -6    4.06    0.84
  16  -4  -6    4.72    0.75
   4  12  -6    4.87    0.94
  12   4   6    4.36    0.61
 -16  12   6    3.20    0.77
  -4  16   6    5.02    1.12
  13 -16   6    1.68    0.40
   3  13   6    1.63    0.57
  16 -13  -6    1.03    0.48
  13   3  -6    0.88    0.52
  -3  16  -6    1.33    0.52
  16  -3   6    1.15    0.34
 -13  16   6    1.93    0.69
  16 -13   6    1.56    0.47
  16  -3  -6    0.99    0.48
  13   3   6    1.39    0.36
  -3  16   6    0.95    0.55
 -16  13   6    1.49    0.56
  13 -16  -6    1.72    0.55
  16  -3  -6    1.49    0.42
   3  13  -6    0.69    0.42
 -14  16   6    3.75    0.95
   2  14   6    3.65    0.88
  -2  16  -6    3.97    0.90
  14 -16   6    3.73    0.64
  16 -14  -6    4.40    0.84
  16  -2   6    3.12    0.53
  14   2  -6    5.20    1.06
  16  -2  -6    3.14    0.60
   2  14  -6    3.25    0.79
  14   2   6    3.60    0.55
  14 -16  -6    3.65    0.82
 -16  14   6    3.21    0.82
  16  -2  -6    3.56    0.86
  16 -14   6    3.49    0.65
  -2  16   6    4.22    0.71
  -2  16   6    4.59    1.12
 -15  16   6    0.30    0.46
  16 -15  -6    0.85    0.44
  15 -16   6    0.68    0.32
  -1  16  -6    0.63    0.44
  16  -1   6    0.27    0.27
  15   1  -6    0.87    0.48
   1  15   6    0.88    0.58
  16  -1  -6    0.05    0.35
  15 -16  -6    0.72    0.45
  -1  16   6    0.60    0.54
  16 -15   6    0.74    0.41
   1  15  -6    0.71    0.42
  15   1   6    0.55    0.25
 -16  15   6   -0.01    0.31
  16   0   6    2.99    0.49
 -16  16   6    2.86    0.82
  16 -16  -6    3.34    0.76
  16   0  -6    3.43    0.84
   0  16  -6    2.08    0.68
  16 -16   6    3.87    0.68
   0  16   6    5.40    1.20
  17  -8   6    2.26    0.51
   8 -17  -6    2.09    0.63
   8   9   6    3.30    0.72
  -8  17  -6    1.23    0.61
   8   9   6    2.25    0.48
  17  -9  -6    4.19    0.94
   9   8  -6    1.87    0.64
  17  -9  -6    2.21    0.58
  -9  17   6    1.03    0.67
   9   8   6    2.22    0.44
  17  -8  -6    1.80    0.53
   9 -17  -6    2.28    0.59
   9   8   6    1.41    0.52
  -9  17  -6    4.06    0.86
   8   9  -6    2.45    0.72
  -8  17   6    3.45    0.99
  17  -9   6    1.93    0.49
  17  -8  -6    1.29    0.60
   7 -17  -6    0.35    0.38
  17 -10  -6    0.36    0.32
   7  10   6    0.34    0.35
  -7  17  -6    0.23    0.38
 -10  17   6    0.01    0.43
   7  10   6    0.53    0.25
  10   7  -6   -0.11    0.36
  17  -7   6    0.19    0.23
  -7  17   6   -0.30    0.40
  10 -17  -6    0.92    0.47
  17  -7  -6    0.43    0.31
  10   7   6   -0.04    0.19
  17 -10   6    0.12    0.34
 -17  10   6    0.16    0.42
  10   7   6   -0.06    0.32
 -10  17  -6    0.12    0.33
  17  -7  -6    0.19    0.40
   7  10  -6   -0.27    0.31
 -11  17   6    2.43    0.73
   6  11   6    2.45    0.66
  -6  17  -6    2.62    0.75
   6 -17  -6    1.48    0.55
  17  -6   6    2.34    0.48
  11   6  -6    2.36    0.74
  17 -11  -6    2.35    0.63
  17 -11   6    1.63    0.53
  17  -6  -6    3.16    0.67
  17  -6  -6    1.63    0.62
 -11  17  -6    2.57    0.70
  -6  17   6    1.44    0.70
   6  11  -6    2.24    0.68
  11 -17  -6    2.66    0.69
 -17  11   6    1.91    0.65
  11   6   6    2.45    0.45
  11   6   6    3.42    0.65
  12   5  -6   -0.37    0.38
  17  -5   6   -0.21    0.19
  -5  17  -6   -0.06    0.33
   5  12   6    0.54    0.38
 -12  17   6   -0.15    0.42
  17 -12  -6    0.23    0.35
   5 -17  -6    0.25    0.39
  -5  17   6   -0.27    0.45
  17  -5  -6    0.11    0.25
   5  12  -6    0.38    0.40
  12   5   6    0.36    0.22
  12 -17  -6    0.12    0.33
  17  -5  -6    0.18    0.38
 -17  12   6   -0.09    0.34
  17 -12   6    0.12    0.31
 -12  17  -6   -0.03    0.41
 -13  17   6    2.39    0.79
  -4  17  -6    1.83    0.67
  17  -4   6    3.55    0.54
   4  13   6    1.71    0.66
  13   4  -6    3.42    0.85
  17 -13  -6    2.36    0.67
  -4  17   6    3.29    0.99
  17  -4  -6    3.72    0.85
   4  13  -6    2.61    0.71
  17 -13   6    4.31    0.74
  13   4   6    3.46    0.55
 -17  13   6    2.94    0.75
  13 -17  -6    3.17    0.78
  17  -4  -6    3.36    0.64
 -14  17   6    0.11    0.47
  17 -14  -6   -0.31    0.28
  14   3  -6    0.61    0.52
  14 -17   6   -0.06    0.26
  17  -3   6    0.76    0.30
   3  14   6   -0.11    0.43
  -3  17  -6    0.54    0.46
  14 -17  -6   -0.20    0.30
  17  -3  -6    0.08    0.42
  -3  17   6    0.83    0.52
 -17  14   6    0.04    0.33
  14   3   6    0.24    0.21
  17  -3  -6    0.07    0.27
   3  14  -6    0.42    0.43
  17 -14   6    0.38    0.31
  15   2  -6    0.32    0.41
  -2  17  -6    0.17    0.41
  17  -2   6    0.21    0.21
  17 -15  -6   -0.10    0.30
 -15  17   6    0.20    0.42
  15 -17   6    0.50    0.31
   2  15   6    0.10    0.43
 -17  15   6    0.16    0.37
  17 -15   6    0.56    0.33
  -2  17   6    0.54    0.55
  15 -17  -6   -0.25    0.31
  15   2   6    0.31    0.25
  17  -2  -6    0.42    0.45
   2  15  -6   -0.31    0.31
   1  16   6    1.04    0.55
  17 -16  -6   -0.38    0.28
  17  -1   6    0.32    0.25
  -1  17  -6   -0.32    0.36
  16   1  -6    0.46    0.43
  16 -17   6    0.15    0.30
 -16  17   6    0.23    0.43
   1  16  -6   -0.20    0.36
 -17  16   6    0.07    0.39
  16 -17  -6   -0.16    0.28
  17  -1  -6    0.20    0.41
  -1  17   6    0.25    0.49
  17 -16   6    0.14    0.33
  16   1   6   -0.15    0.19
 -17  17   6    1.97    0.69
  17 -17  -6    2.23    0.63
   0  17  -6    1.48    0.58
  17   0  -6    3.26    0.84
   0  17   6    3.60    1.02
  17 -17   6    1.23    0.47
  17   0   6    2.24    0.44
   9   9   6    0.95    0.45
  18  -9   6    1.65    0.44
  18  -9  -6    0.97    0.45
   9   9  -6    2.12    0.64
  -9  18   6    1.62    0.69
   9 -18  -6    1.34    0.54
  -9  18  -6    2.59    0.68
  18  -9  -6    2.24    0.74
  18 -10  -6    0.55    0.39
   8 -18  -6   -0.41    0.30
  10   8  -6   -0.48    0.31
 -10  18   6   -0.45    0.43
  -8  18  -6    0.20    0.44
  18  -8   6    0.52    0.31
   8  10   6    1.20    0.42
 -18  10   6    0.43    0.47
  10   8   6    0.26    0.37
  -8  18   6    0.37    0.52
  18  -8  -6    0.25    0.30
   8  10  -6   -0.42    0.28
  10 -18  -6   -0.42    0.29
  18 -10   6   -0.06    0.35
  10   8   6    0.28    0.26
  18  -8  -6   -0.12    0.41
 -10  18  -6   -0.40    0.40
  11   7  -6    0.77    0.45
  18 -11  -6    2.71    0.66
  18  -7   6    1.40    0.43
   7  11   6    2.15    0.63
   7 -18  -6    2.30    0.65
  -7  18  -6    0.75    0.49
 -11  18   6    1.99    0.69
  18 -11   6    1.12    0.48
  18  -7  -6    2.13    0.55
  18  -7  -6    2.82    0.75
 -18  11   6    0.76    0.55
  -7  18   6    1.05    0.63
  11   7   6    1.79    0.59
   7  11  -6    0.65    0.53
 -11  18  -6    1.66    0.58
  11   7   6    1.56    0.38
  11 -18  -6    2.72    0.68
  18 -12  -6   -0.13    0.28
   6  12   6   -0.26    0.31
  -6  18  -6    0.27    0.41
  18  -6   6   -0.07    0.21
 -12  18   6    0.26    0.40
   6 -18  -6    0.12    0.38
  12   6  -6   -0.17    0.40
 -12  18  -6   -0.12    0.41
  18  -6  -6    0.36    0.31
  18 -12   6    0.19    0.33
 -18  12   6    0.08    0.40
   6  12  -6    0.19    0.33
  -6  18   6    0.81    0.61
  12 -18  -6    0.06    0.39
  18  -6  -6   -0.01    0.45
  12   6   6    0.07    0.21
  13   5  -6    0.06    0.39
 -13  18   6    0.66    0.48
  18  -5   6    0.58    0.28
  18 -13  -6    0.81    0.43
  -5  18  -6    0.91    0.46
   5  13   6    0.20    0.39
   5  13  -6    0.61    0.45
  18  -5  -6    0.54    0.40
  18 -13   6   -0.10    0.34
  -5  18   6   -0.23    0.53
  13   5   6    0.72    0.31
 -18  13   6    0.07    0.40
  18  -5  -6    0.63    0.34
  13 -18  -6    0.41    0.42
  14   4  -6   -0.13    0.35
  -4  18  -6    0.31    0.38
  18  -4   6   -0.01    0.23
 -14  18   6   -0.10    0.39
  18 -14  -6    0.36    0.36
   4  14   6    0.08    0.42
  18  -4  -6    0.24    0.28
  14   4   6    0.21    0.20
  18 -14   6   -0.05    0.31
  18  -4  -6   -0.03    0.41
  14 -18  -6   -0.27    0.34
  -4  18   6    0.59    0.55
 -18  14   6    0.17    0.40
   4  14  -6   -0.04    0.37
 -15  18   6    0.64    0.48
  18 -15  -6    0.63    0.42
   3  15   6    1.16    0.55
  18  -3   6    0.89    0.33
  15   3  -6    0.41    0.44
  -3  18  -6    1.11    0.49
  18  -3  -6    1.14    0.40
  -3  18   6    1.87    0.74
  15 -18  -6    1.84    0.58
 -18  15   6    0.00    0.41
  18  -3  -6    1.45    0.54
  15   3   6    0.97    0.32
   3  15  -6    1.08    0.63
  18 -15   6    0.99    0.38
  -2  18  -6   -0.27    0.36
  16 -18   6   -0.16    0.30
 -16  18   6   -0.02    0.45
  18 -16  -6    0.58    0.41
   2  16   6    0.36    0.55
  16   2  -6    0.05    0.39
  18  -2   6    0.59    0.28
  16 -18  -6    0.34    0.38
  18 -16   6   -0.10    0.31
   2  16  -6   -0.66    0.29
 -18  16   6    0.62    0.47
  18  -2  -6    0.56    0.47
  16   2   6    0.23    0.26
  -2  18   6    0.70    0.63
 -17  18   6    1.11    0.55
   1  17   6    1.00    0.66
  -1  18  -6    0.88    0.48
  18 -17  -6    0.61    0.45
  17   1  -6    0.82    0.54
  17 -18   6    0.90    0.40
  18  -1   6    1.07    0.33
  -1  18   6    0.46    0.62
  17   1   6    1.58    0.38
  18  -1  -6    1.26    0.61
   1  17  -6    0.24    0.45
 -18  17   6    0.35    0.47
  17 -18  -6    0.78    0.47
  18 -17   6    1.15    0.44
  18 -18   6   -0.57    0.29
  18   0  -6   -0.89    0.40
  18   0   6    0.41    0.22
   0  18  -6   -0.45    0.36
 -18  18   6    0.84    0.41
  18 -18  -6    0.57    0.39
   0  18   6    1.41    0.62
  10   9  -6    1.56    0.60
 -10  19   6    1.71    0.73
   9  10   6    2.22    0.69
  19 -10  -6    1.41    0.47
  19  -9   6    1.54    0.55
  -9  19  -6    1.47    0.64
   9 -19  -6    1.86    0.56
  10   9   6    1.22    0.58
  19  -9  -6    1.59    0.66
  19  -9  -6    1.49    0.52
  19 -10   6    0.55    0.44
 -19  10   6    1.24    0.68
  -9  19   6    1.90    0.77
 -10  19  -6    2.87    0.80
  10 -19  -6    1.42    0.51
   9  10  -6    1.76    0.60
  -8  19  -6    1.29    0.57
  11   8  -6    0.78    0.46
 -11  19   6   -0.15    0.42
  19 -11  -6    0.42    0.37
  19  -8   6    0.08    0.24
   8 -19  -6    0.04    0.37
   8  11   6    0.16    0.40
 -19  11   6    0.13    0.48
  19  -8  -6    0.50    0.43
  19  -8  -6   -0.11    0.28
  11 -19  -6    0.42    0.38
   8  11  -6    0.04    0.37
  -8  19   6   -0.14    0.53
  11   8   6    0.19    0.40
 -11  19  -6    0.19    0.46
  19 -11   6    0.06    0.34
  12   7  -6    1.20    0.59
  -7  19  -6    0.64    0.59
  19  -7   6    1.36    0.41
 -12  19   6    2.05    0.78
  19 -12  -6    1.69    0.53
   7  12   6    1.80    0.60
  19 -12   6    2.09    0.57
  19  -7  -6    1.88    0.70
  19  -7  -6    1.90    0.51
  -7  19   6    0.72    0.64
 -12  19  -6    1.48    0.60
 -19  12   6    0.74    0.55
   7  12  -6    1.32    0.58
  12 -19  -6    1.71    0.56
 -13  19   6    0.11    0.43
  19  -6   6   -0.06    0.24
  19 -13  -6    0.35    0.39
  -6  19  -6    0.64    0.48
   6  13   6   -0.18    0.38
  13   6  -6   -1.00    0.37
  13 -19  -6    0.40    0.38
  13   6   6    0.02    0.20
  19  -6  -6    0.06    0.45
  19 -13   6   -0.01    0.32
   6  13  -6    0.07    0.37
  -6  19   6    0.08    0.56
 -19  13   6    0.51    0.41
  19  -6  -6    0.46    0.30
  19 -14  -6    2.12    0.61
  14   5  -6    2.94    0.85
   5  14   6    2.10    0.72
  19  -5   6    2.11    0.47
  -5  19  -6    0.89    0.53
 -14  19   6    0.51    0.53
  -5  19   6    4.48    1.06
   5  14  -6    2.83    0.74
  19 -14   6    2.11    0.55
  14   5   6    2.01    0.43
  19  -5  -6    3.09    0.83
  19  -5  -6    1.95    0.51
 -19  14   6    1.78    0.61
  14 -19  -6    2.85    0.74
   4  15   6   -0.46    0.40
  19  -4   6    0.14    0.23
  -4  19  -6    0.02    0.36
 -15  19   6    0.61    0.81
  19 -15  -6   -0.70    0.31
  15   4  -6    0.02    0.43
   4  15  -6    0.08    0.41
  19 -15   6    0.48    0.30
  15   4   6    0.34    0.23
  15 -19  -6   -0.12    0.38
  -4  19   6    0.14    0.60
  19  -4  -6    0.40    0.29
  19  -4  -6   -0.17    0.40
 -19  15   6    0.05    0.39
  16   3  -6    0.48    0.50
  19  -3   6    0.32    0.25
 -16  19   6   -0.11    0.41
  19 -16  -6    0.07    0.39
  -3  19  -6    0.64    0.51
   3  16   6   -0.24    0.43
  -3  19   6    0.40    0.59
  19  -3  -6    0.44    0.49
 -19  16   6    0.68    0.43
  16   3   6    0.11    0.20
  16 -19  -6    0.28    0.39
  19 -16   6    0.05    0.34
   3  16  -6   -0.42    0.62
  -2  19  -6    0.93    0.46
   2  17   6   -0.97    0.43
  17   2  -6   -0.71    0.40
 -17  19   6    0.43    0.44
  19  -2   6    0.27    0.24
  19 -17  -6    0.98    0.47
  17 -19   6    0.50    0.32
 -19  17   6    0.52    0.43
  19  -2  -6    0.44    0.46
  -2  19   6   -0.22    0.59
  17 -19  -6    0.94    0.42
   2  17  -6    0.84    0.48
  17   2   6    0.18    0.22
  19 -17   6    0.67    0.40
   1  18   6    0.87    0.54
  19  -1   6    0.57    0.30
  18   1  -6   -0.60    0.46
  19 -18  -6    0.21    0.50
  -1  19  -6   -0.06    0.45
  18 -19   6    0.97    0.45
 -18  19   6    1.29    0.61
   1  18  -6    0.38    0.47
  18   1   6    0.78    0.28
  -1  19   6    1.33    0.71
  18 -19  -6    0.18    0.38
 -19  18   6    0.70    0.54
  19 -18   6    1.08    0.46
  19  -1  -6    0.64    0.60
  19   0  -6    0.65    0.54
  19 -19   6    0.23    0.37
  19   0   6    1.40    0.36
 -19  19   6    1.15    0.58
  19 -19  -6    0.46    0.47
   0  19  -6    0.70    0.52
   0  19   6   -0.17    0.57
 -10  20  -6    0.49    0.53
 -10  20   6   -0.15    0.65
 -20  10   6    1.33    0.66
  10  10  -6    0.61    0.46
  10  10   6    1.22    0.59
  20 -10   6    1.18    0.51
  10 -20  -6    0.71    0.39
  20 -10  -6    0.90    0.40
  20  -9   6    1.65    0.58
  20 -11  -6    2.23    0.62
  11   9  -6    2.64    0.77
 -11  20   6    3.31    1.00
  -9  20  -6    2.44    0.77
   9  11   6    1.95    0.59
  20 -11   6    2.07    0.61
  -9  20   6    1.15    0.69
  20  -9  -6    3.30    0.86
  11   9   6    1.13    0.49
  11 -20  -6    1.71    0.55
 -11  20  -6    2.62    0.69
  20  -9  -6    2.05    0.60
   9  11  -6    1.61    0.61
 -20  11   6    2.33    0.74
  20  -8   6    3.41    0.68
  20 -12  -6    2.89    0.70
 -12  20   6    1.73    0.71
  12   8  -6    2.38    0.71
  -8  20  -6    2.98    0.92
  20  -8  -6    3.55    0.89
  12 -20  -6    2.50    0.65
 -12  20  -6    2.99    0.79
 -20  12   6    3.00    0.79
  -8  20   6    2.03    0.91
  20 -12   6    2.29    0.63
  20  -8  -6    1.57    0.52
   8  12  -6    2.39    0.71
  20 -13  -6   -0.05    0.33
 -13  20   6    0.41    0.58
  20  -7   6    0.05    0.24
   7  13   6    0.35    0.43
  13   7  -6   -0.12    0.44
  -7  20  -6    0.85    0.51
  -7  20   6    0.29    0.62
 -20  13   6   -0.26    0.39
  20 -13   6    0.74    0.46
   7  13  -6   -0.58    0.33
  20  -7  -6    1.25    0.48
  13 -20  -6    1.77    0.61
  20  -7  -6    0.76    0.47
  -6  20  -6   -0.28    0.36
  14   6  -6    0.79    0.50
  20 -14  -6   -0.02    0.38
  20  -6   6    0.47    0.30
   6  14   6    0.76    0.43
 -14  20   6    0.06    0.43
  14 -20  -6   -0.46    0.35
  20 -14   6    0.52    0.39
   6  14  -6    0.08    0.38
  20  -6  -6    0.36    0.49
  -6  20   6    0.42    0.64
  20  -6  -6    0.59    0.32
 -20  14   6   -0.10    0.43
  15   5  -6    0.43    0.55
  -5  20  -6    0.50    0.44
  20 -15  -6    0.14    0.33
  20  -5   6    0.41    0.31
 -15  20   6    0.10    0.48
   5  15   6    0.05    0.44
  20 -15   6    0.44    0.30
  15 -20  -6    0.24    0.37
  -5  20   6    0.23    0.62
   5  15  -6    0.34    0.42
 -20  15   6    0.14    0.45
  20  -5  -6    0.68    0.53
  20  -5  -6    0.49    0.34
  20  -4   6   -0.05    0.21
   4  16   6    0.58    0.46
  16   4  -6   -0.36    0.45
  -4  20  -6   -0.21    0.39
 -16  20   6    0.16    0.51
  20 -16  -6   -0.01    0.37
  16 -20  -6    0.04    0.36
  20  -4  -6   -0.18    0.43
 -20  16   6    0.93    0.47
  16   4   6   -0.08    0.19
  20 -16   6    0.17    0.31
 -17  20   6    0.84    0.59
  -3  20  -6    1.25    0.61
  20  -3   6    0.53    0.31
  17   3  -6    1.71    0.71
  20 -17  -6    1.10    0.55
   3  17   6    0.60    0.57
  17   3   6    1.25    0.37
  20 -17   6    1.81    0.55
 -20  17   6    0.68    0.51
  20  -3  -6    1.25    0.65
  -3  20   6    0.72    0.59
   3  17  -6    0.45    0.60
  17 -20  -6    1.56    0.61
  18   2  -6    0.06    0.52
  20  -2   6    0.41    0.24
 -18  20   6    0.04    0.50
  -2  20  -6    0.29    0.47
  20 -18  -6   -0.31    0.39
   2  18   6    0.63    0.62
   2  18  -6   -0.28    0.36
  20 -18   6    0.54    0.43
  18   2   6    0.30    0.26
 -20  18   6    0.51    0.44
  18 -20  -6    0.81    0.43
  -2  20   6   -1.14    0.54
  20  -2  -6    0.58    0.54
  20  -1   6    0.63    0.27
   1  19   6   -0.82    0.47
  20 -19  -6    0.39    0.40
  19   1  -6    1.54    0.66
 -19  20   6   -0.14    0.54
  19 -20   6    0.79    0.43
  -1  20  -6    0.51    0.49
  -1  20   6    1.81    0.62
   1  19  -6    0.29    0.47
  19 -20  -6    0.27    0.39
  20  -1  -6    0.08    0.50
  20 -19   6    0.03    0.39
 -20  19   6    0.72    0.48
  19   1   6    0.11    0.26
 -20  20   6    5.16    1.13
  20 -20   6    3.07    0.71
  20   0   6    3.05    0.57
  20   0  -6    2.04    0.72
   0  20  -6    1.18    0.64
  20 -20  -6    2.74    0.82
   0  20   6    2.59    0.89
 -11  21   6    0.54    0.60
  21 -11  -6    0.64    0.43
  21 -10   6    0.35    0.35
  11  10  -6   -0.79    0.39
 -10  21  -6    0.18    0.51
 -21  10   6   -0.02    0.54
  10  11   6   -0.12    0.40
  11  10   6   -0.23    0.41
  21 -11   6    0.35    0.42
 -11  21  -6    1.30    0.55
  21 -10  -6    0.58    0.44
 -21  11   6    0.12    0.51
 -10  21   6    2.27    0.68
  10  11  -6   -0.01    0.41
  11 -21  -6    0.37    0.40
   9  12   6    1.17    0.50
 -12  21   6    1.12    0.54
  -9  21  -6   -0.13    0.56
  12   9  -6    1.68    0.65
  21  -9   6    1.15    0.46
  21 -12  -6    1.55    0.60
  12 -21  -6    1.72    0.58
  21 -12   6    1.83    0.63
  21  -9  -6    2.57    0.84
 -21  12   6    2.25    0.72
  21  -9  -6    1.47    0.51
   9  12  -6    1.07    0.55
  -9  21   6    1.92    0.68
  21  -8   6    0.40    0.42
   8  13   6   -0.60    0.41
  -8  21  -6    1.53    0.53
  21 -13  -6   -0.18    0.30
 -13  21   6   -0.12    0.57
  13   8  -6    0.64    0.59
  21  -8  -6    0.43    0.34
  -8  21   6   -0.61    0.53
  13 -21  -6    0.88    0.41
 -21  13   6    0.16    0.45
  21 -13   6   -0.09    0.32
  21  -8  -6   -0.06    0.51
   8  13  -6    0.12    0.38
  -7  21  -6    0.21    0.44
  14   7  -6    0.33    0.53
  21  -7   6    1.14    0.48
 -14  21   6    0.27    0.56
   7  14   6   -0.06    0.41
  21 -14  -6    0.74    0.43
  21  -7  -6    1.69    0.66
 -21  14   6    0.73    0.58
  21 -14   6    0.26    0.36
   7  14  -6    0.51    0.49
  21  -7  -6    0.24    0.35
  -7  21   6    0.38    0.63
  14 -21  -6    0.94    0.52
   6  15   6    0.25    0.48
  15   6  -6    0.23    0.43
  -6  21  -6   -0.70    0.37
  21 -15  -6    0.20    0.34
 -15  21   6   -0.30    0.48
  21  -6   6    0.35    0.32
  21 -15   6   -0.36    0.31
  15 -21  -6   -0.11    0.38
  21  -6  -6    0.44    0.34
  -6  21   6   -0.74    0.62
   6  15  -6    0.03    0.38
 -21  15   6   -0.31    0.39
  21  -6  -6   -0.86    0.42
   5  16   6    0.15    0.48
 -16  21   6    0.88    0.60
  -5  21  -6    0.91    0.52
  21 -16  -6    0.68    0.45
  21  -5   6    0.09    0.27
  16   5  -6   -0.26    0.54
   5  16  -6    0.69    0.45
  21  -5  -6    0.86    0.62
  -5  21   6    1.43    0.73
 -21  16   6    0.27    0.48
  16 -21  -6    1.08    0.54
  21 -16   6    0.88    0.44
  21  -4   6   -0.08    0.22
   4  17   6    0.45    0.46
 -17  21   6    0.03    0.55
  17   4  -6    0.77    0.54
  21 -17  -6   -0.14    0.32
  -4  21  -6   -0.36    0.47
  -4  21   6    0.32    0.69
  17 -21  -6    0.32    0.38
  21 -17   6    0.29    0.39
 -21  17   6    0.33    0.51
  21  -4  -6   -0.13    0.48
   4  17  -6   -0.18    0.36
  21  -3   6   -0.04    0.24
   3  18   6    0.41    0.52
  21 -18  -6    0.53    0.41
  -3  21  -6   -0.12    0.46
  18   3  -6   -0.10    0.52
 -18  21   6    0.44    0.60
  21  -3  -6   -0.40    0.50
   3  18  -6    0.53    0.48
 -21  18   6    0.01    0.50
  18 -21  -6    0.14    0.41
  -3  21   6    0.23    0.60
  21 -18   6    0.64    0.37
  21  -2   6    1.52    0.42
 -19  21   6    2.14    0.80
  -2  21  -6   -0.15    0.49
   2  19   6    1.73    0.73
  19   2  -6    0.75    0.70
  21 -19  -6    0.92    0.56
  21 -19   6    0.95    0.50
  19 -21  -6    1.71    0.63
 -21  19   6    1.22    0.61
  21  -2  -6    0.15    0.56
   2  19  -6    0.43    0.51
  -2  21   6    1.38    0.75
   1  20   6    0.16    0.55
  -1  21  -6    0.96    0.49
 -20  21   6    0.71    0.56
  20   1  -6   -0.08    0.54
  -1  21   6    0.09    0.57
 -21  20   6    0.07    0.51
  21  -1  -6    0.57    0.65
   1  20  -6    0.52    0.58
  22 -11   6    0.22    0.41
  22 -11  -6    0.82    0.41
 -11  22   6   -0.70    0.63
 -11  22  -6    0.70    0.56
 -22  11   6   -0.16    0.44
  22 -12  -6   -0.31    0.36
  22 -10   6   -0.58    0.28
 -10  22  -6    0.37    0.53
 -22  10   6    0.58    0.61
  10  12   6    0.31    0.51
  12  10  -6   -0.08    0.43
 -12  22   6   -0.40    0.59
 -22  12   6    0.50    0.51
 -10  22   6   -0.36    0.59
  22 -12   6    0.56    0.42
  22 -10  -6    0.58    0.39
  10  12  -6   -0.58    0.36
  13   9  -6    0.96    0.51
  22  -9   6    0.88    0.43
   9  13   6    0.29    0.52
 -13  22   6    0.43    0.57
  22 -13  -6    0.69    0.48
  -9  22  -6   -0.53    0.56
   9  13  -6   -0.09    0.39
  -9  22   6    0.91    0.66
  22  -9  -6   -0.13    0.36
 -22  13   6   -0.21    0.39
  22  -9  -6    1.18    0.66
  22 -13   6    0.55    0.39
  13 -22  -6    0.28    0.46
 -14  22   6   -0.05    0.57
  22  -8   6    0.41    0.36
  22 -14  -6    0.16    0.32
  14   8  -6    0.05    0.44
  -8  22  -6    0.75    0.59
   8  14   6   -0.48    0.44
  -8  22   6    1.33    0.74
  22  -8  -6    0.59    0.40
  22 -14   6   -0.53    0.25
 -22  14   6    0.52    0.45
   8  14  -6    0.32    0.45
  22  -8  -6   -0.26    0.57
  14 -22  -6    0.53    0.43
 -15  22   6    0.34    0.62
  -7  22  -6    0.99    0.55
  15   7  -6   -0.09    0.52
  22 -15  -6    0.77    0.49
   7  15   6    0.40    0.49
  22  -7   6    0.20    0.48
  15 -22  -6    0.72    0.45
  22 -15   6    0.49    0.39
   7  15  -6   -0.03    0.42
  22  -7  -6   -0.83    0.55
  22  -7  -6    0.87    0.44
  -7  22   6   -0.47    0.60
 -22  15   6    0.64    0.54
  22 -16  -6    0.91    0.50
   6  16   6    0.02    0.46
  -6  22  -6   -0.60    0.43
  16   6  -6   -0.85    0.44
 -16  22   6    0.86    0.70
  22  -6   6    0.45    0.47
 -22  16   6    0.57    0.52
   6  16  -6    0.13    0.46
  22  -6  -6   -0.18    0.51
  22 -16   6   -0.74    0.33
  22  -6  -6    0.31    0.35
  -6  22   6   -0.30    0.62
  16 -22  -6    0.03    0.40
  22 -17  -6    0.47    0.43
  -5  22  -6   -0.90    0.41
 -17  22   6   -0.10    0.57
   5  17   6    0.46    0.47
  17   5  -6    0.85    0.58
  22  -5   6   -0.24    0.39
  17 -22  -6    0.49    0.45
  -5  22   6    0.47    0.66
  22 -17   6    0.18    0.41
 -22  17   6   -0.05    0.44
   5  17  -6   -0.53    0.41
  22  -5  -6    0.55    0.62
   4  18   6    0.36    0.57
  -4  22  -6    0.00    0.49
 -18  22   6    0.31    0.61
  22 -18  -6    0.10    0.45
  18   4  -6    0.68    0.55
  22  -4   6    0.22    0.36
 -22  18   6    1.05    0.63
  22 -18   6    0.69    0.39
   4  18  -6    0.36    0.48
  -4  22   6    2.32    0.99
  18 -22  -6    0.32    0.46
  22  -4  -6   -0.42    0.54
 -11  23  -6    0.19    0.58
 -23  11   6    0.09    0.59
 -12  23   6   -0.79    0.63
  23 -12  -6    0.21    0.39
  12  11  -6    1.35    0.54
  23 -11   6   -0.21    0.35
 -11  23   6   -0.64    0.68
 -23  12   6    0.47    0.56
  23 -12   6    0.06    0.37
  23 -11  -6    0.21    0.37
  11  12  -6    0.50    0.53
 -23  10   6    0.22    0.67
  13  10  -6   -0.17    0.51
  23 -13  -6    0.01    0.38
 -13  23   6   -0.05    0.64
 -10  23  -6    0.97    0.58
  10  13   6   -0.68    0.44
  23 -10   6    0.46    0.40
  23 -10  -6    0.12    0.34
 -10  23   6    0.47    0.67
 -23  13   6   -0.36    0.44
  23 -13   6   -0.26    0.39
  10  13  -6    0.23    0.48
  14   9  -6   -0.78    0.44
 -14  23   6   -1.02    0.60
   9  14   6   -0.01    0.44
  -9  23  -6    0.43    0.63
  23  -9   6    0.20    0.41
  23 -14  -6    0.09    0.37
 -23  14   6   -0.79    0.44
  23  -9  -6   -0.37    0.57
   9  14  -6    0.40    0.48
  23 -14   6   -0.19    0.31
  -9  23   6    1.19    0.80
  23  -9  -6    0.11    0.39
   8  15   6   -0.57    0.46
  23  -8   6    0.61    0.44
 -15  23   6   -0.32    0.62
  15   8  -6    0.08    0.54
  23 -15  -6    0.37    0.43
  -8  23  -6    1.41    0.71
 -23  15   6    0.63    0.49
  15 -23  -6   -0.03    0.44
  23  -8  -6   -0.34    0.54
  23  -8  -6    0.64    0.39
   8  15  -6    0.28    0.48
  -8  23   6   -0.55    0.69
  23 -15   6    0.65    0.41
  23  -7   6    1.05    0.42
  -7  23  -6    1.24    0.71
  16   7  -6    0.49    0.51
   7  16   6    1.32    0.57
  23 -16   6    0.18    0.37
  -7  23   6    0.99    0.66
   7  16  -6   -0.34    0.45
 -23  16   6    0.43    0.55
  23  -7  -6    0.49    0.61
  16 -23  -6    0.96    0.53
  23  -7  -6    1.02    0.42
   0   0  -7    0.00    0.10
   0   0   7   -0.12    0.12
   0   1   7    0.11    0.14
   1   0  -7   -0.05    0.11
   0   1  -7    0.02    0.10
   1   0   7    0.15    0.13
   1  -1   7   -0.15    0.10
   1  -1  -7    0.24    0.20
   1  -1  -7   -0.01    0.11
   0   1   7    0.01    0.12
   1   0  -7   -0.19    0.13
   1   0   7   -0.06    0.11
  -1   1  -7    0.03    0.08
   0  -1   7    0.14    0.13
   1  -2  -7  192.75    7.19
   1   1  -7  190.32    7.27
   2  -1  -7  187.92    7.09
   2  -1  -7  186.79    7.30
   2  -1   7  192.61    7.00
  -1   2  -7  191.80    7.13
   1   1   7  194.17    7.07
  -1   2   7  190.11    7.21
   1  -2   7  184.73    6.91
   2  -1   7  187.87    6.99
   1   1   7  195.33    7.14
   2  -2  -7   -0.08    0.14
   0   2   7   -0.06    0.14
   0   2  -7    0.00    0.09
   0  -2   7   -0.02    0.10
  -2   2  -7    0.03    0.07
   2   0  -7    0.21    0.16
   2  -2   7    0.15    0.14
   2   0  -7    0.05    0.13
   0   2   7    0.08    0.11
   2   0   7   -0.02    0.14
   2   0   7    0.04    0.09
   1   2   7    9.05    0.59
   1   2   7    7.13    0.63
  -1   3  -7    7.46    0.51
   2   1  -7    7.20    0.57
   3  -2  -7    5.78    0.62
   2  -3   7    7.23    0.52
   1  -3  -7    7.48    0.78
  -2   3   7    7.95    0.60
   2   1  -7    6.31    0.57
   3  -2  -7    7.16    0.71
   3  -1   7    7.18    0.58
  -1  -2   7    8.09    0.54
   3  -1  -7    6.87    0.60
  -1   3   7    8.01    0.59
  -2   3  -7    7.44    0.45
   2  -3  -7    7.44    0.77
   1   2  -7    6.19    0.55
   2   1   7    7.69    0.51
   1  -3   7    7.02    0.51
   3  -2   7    7.17    0.56
   2   1   7    7.36    0.62
   3  -1  -7    6.15    0.64
   0  -3   7   -0.12    0.09
  -3   3   7    0.18    0.18
   0   3   7    0.07    0.15
   3  -3   7   -0.06    0.10
  -3   3  -7   -0.03    0.06
   0   3   7    0.07    0.14
   3   0  -7   -0.03    0.12
   3   0   7    0.21    0.11
   3   0  -7    0.05    0.15
   0   3  -7    0.01    0.10
   3   0   7    0.13    0.16
   3  -3  -7   -0.05    0.15
  -2   4  -7   93.58    3.68
   2   2  -7   94.82    3.63
   2   2   7   94.92    3.83
   4  -2  -7   92.34    3.96
   2   2  -7   94.42    3.90
   2  -4   7   94.40    3.53
   2   2   7   91.14    3.77
  -2   4   7   93.05    3.89
   2  -4  -7  100.02    3.97
   4  -2   7   90.70    3.66
   4  -2  -7   93.72    3.79
   4  -3  -7   11.62    0.86
   1  -4  -7   11.30    0.92
   3  -4   7   13.41    0.73
   1   3   7   11.79    0.86
  -1  -3   7   12.39    0.67
   4  -1   7   11.80    0.79
  -3   4   7   12.00    0.84
  -1   4  -7   11.60    0.74
   4  -3  -7   12.15    0.89
   3   1  -7   13.51    0.79
   3   1  -7   11.08    0.85
   1   3   7   15.25    0.91
   1   3  -7   12.26    0.82
   4  -3   7   12.63    0.76
  -3   4  -7   11.91    0.63
  -1   4   7   12.22    0.85
   1  -4   7   12.55    0.67
   3   1   7   11.63    0.83
   3  -4  -7   13.23    0.95
   3   1   7   13.21    0.75
   4  -1  -7   10.87    0.79
   4  -1  -7   11.34    0.88
  -4   4  -7   -0.07    0.06
   0   4  -7    0.19    0.13
   4  -4  -7   -0.24    0.14
   4   0  -7    0.01    0.17
   0  -4   7    0.06    0.09
   4   0   7    0.03    0.14
   0   4   7   -0.12    0.14
   4   0   7    0.00    0.09
   4  -4   7   -0.04    0.11
  -4   4   7   -0.03    0.19
   0   4   7    0.02    0.21
   4   0  -7    0.04    0.11
   2   3   7    7.14    0.72
   2  -5  -7    8.17    0.87
   3  -5   7    7.24    0.49
  -2   5  -7    8.26    0.59
   3   2  -7    7.72    0.69
   5  -3  -7    7.86    0.67
   3   2  -7    7.63    0.55
   5  -3  -7    8.04    0.80
   5  -2   7    7.17    0.59
   2   3   7    7.78    0.68
  -3   5   7    7.50    0.67
  -2   5   7    7.28    0.67
   3   2   7    8.56    0.64
  -3   5  -7    8.24    0.54
   2   3  -7    7.34    0.66
   5  -2  -7    7.71    0.64
   2  -5   7    7.80    0.48
   5  -2  -7    7.58    0.78
   3  -5  -7    8.99    0.88
   5  -3   7    7.19    0.57
   3   2   7    7.63    0.66
   5  -1   7    3.35    0.47
   4   1  -7    2.38    0.45
   4   1  -7    2.44    0.36
  -4   5   7    2.74    0.46
   5  -4  -7    2.58    0.47
  -1  -4   7    2.56    0.27
   1   4   7    2.74    0.50
   1   4   7    2.19    0.42
   4  -5   7    2.45    0.32
   1  -5  -7    1.98    0.46
  -1   5  -7    2.67    0.39
   5  -4  -7    2.15    0.43
   1   4  -7    2.51    0.41
   1  -5   7    3.07    0.28
  -4   5  -7    2.23    0.27
  -1   5   7    3.03    0.50
   4   1   7    2.65    0.44
   5  -1  -7    2.00    0.36
   5  -1  -7    2.74    0.49
   4   1   7    3.11    0.34
   5  -4   7    2.84    0.38
   4  -5  -7    2.83    0.51
   5  -5  -7   -0.03    0.18
  -5   5   7   -0.05    0.18
   5   0  -7    0.02    0.13
   5   0  -7   -0.33    0.15
   0   5  -7    0.11    0.13
   5  -5   7    0.03    0.12
   5   0   7   -0.06    0.09
   0  -5   7   -0.04    0.07
   0   5   7    0.17    0.24
  -5   5  -7    0.07    0.08
   0   5   7   -0.05    0.15
   5   0   7    0.00    0.15
   3   3  -7   79.52    3.52
   3  -6   7   82.69    3.01
  -3   6  -7   79.57    3.30
   3   3   7   81.32    3.37
   3  -6  -7   74.64    3.48
   6  -3  -7   76.50    3.33
   3   3  -7   82.16    3.09
  -3   6   7   82.10    3.59
   6  -3   7   79.58    3.21
   3   3   7   84.66    3.50
   6  -3  -7   77.64    3.60
  -2   6  -7    1.50    0.30
   4  -6   7    1.67    0.26
   2   4   7    1.92    0.44
  -4   6   7    1.83    0.41
   4   2  -7    1.26    0.25
   2  -6  -7    1.63    0.44
   6  -4  -7    1.32    0.40
   6  -2   7    1.18    0.30
  -2  -4   7    1.64    0.22
   6  -4  -7    1.28    0.36
   2   4   7    2.66    0.46
   4   2  -7    1.90    0.44
   4  -6  -7    1.58    0.40
   2   4  -7    1.72    0.39
   6  -4   7    1.77    0.33
  -4   6  -7    1.47    0.27
   4   2   7    1.90    0.35
   4   2   7    1.93    0.39
   6  -2  -7    0.89    0.28
   6  -2  -7    1.51    0.41
   2  -6   7    2.23    0.23
  -2   6   7    1.92    0.44
  -1  -5   7    8.45    0.43
  -5   6   7    8.14    0.81
   1   5   7    7.68    0.78
   5   1  -7    7.80    0.84
  -6   5  -7    8.13    0.47
   6  -1   7    8.61    0.44
   5  -6   7    8.23    0.54
   1   5   7    8.01    0.88
   6  -5  -7    8.28    0.82
   1  -6  -7    7.19    0.88
  -1   6  -7    8.12    0.65
   5   1  -7    7.53    0.57
   6  -1   7    7.58    0.64
   5   1   7    8.31    0.55
   5  -6  -7    7.62    0.83
   6  -5   7    7.90    0.57
  -1   6   7    8.01    0.87
  -6   5   7    7.55    0.79
  -5   6  -7    7.70    0.55
   6  -1  -7    7.16    0.84
   1   5  -7    7.28    0.68
   1  -6   7    8.96    0.44
   6  -1  -7    6.92    0.60
   5   1   7    8.97    0.70
  -6   6   7    0.01    0.19
  -6   6  -7   -0.12    0.11
   6   0   7   -0.13    0.13
   6   0  -7    0.03    0.21
   6   0   7    0.07    0.10
   6  -6  -7   -0.13    0.16
   6   0  -7    0.07    0.12
   6  -6   7   -0.07    0.11
   0   6   7    0.07    0.27
   0   6   7   -0.06    0.16
   0  -6   7   -0.05    0.06
   0   6  -7    0.16    0.17
   4  -7   7    3.39    0.31
   3  -7  -7    3.20    0.61
   3   4   7    3.02    0.54
   4   3  -7    3.76    0.60
  -4   7   7    2.16    0.49
   7  -4  -7    2.96    0.49
   7  -4  -7    3.81    0.63
   3   4   7    3.10    0.52
   4   3  -7    3.66    0.36
   7  -3   7    2.93    0.44
  -3   7  -7    3.44    0.48
   7  -3  -7    3.55    0.61
   7  -4   7    2.91    0.42
   4   3   7    3.65    0.54
   7  -3  -7    4.06    0.55
   4   3   7    3.90    0.54
   3   4  -7    3.73    0.57
   4  -7  -7    3.22    0.58
   3   4  -7    3.37    0.32
  -3   7   7    3.58    0.61
  -4   7  -7    3.46    0.45
   3  -7   7    3.47    0.27
  -2  -5   7    9.00    0.45
  -7   5  -7    9.42    0.52
   5  -7   7    8.78    0.54
   7  -2   7    8.74    0.69
   2  -7  -7   10.32    1.02
  -2   7  -7    7.83    0.68
   7  -2   7    8.75    0.47
   5   2  -7    9.81    0.87
   5   2  -7    9.54    0.61
   7  -5  -7    8.96    0.94
   2   5   7    9.40    0.78
   7  -5  -7    9.05    0.79
   2   5   7    8.28    0.94
  -5   7   7    8.99    0.82
   7  -2  -7    8.71    0.95
   5  -7  -7    9.34    0.95
   5   2   7    9.55    0.68
  -5   7  -7    9.19    0.69
   2   5  -7   11.67    0.88
   7  -5   7    8.94    0.64
   7  -2  -7    9.57    0.72
   5   2   7    8.86    0.73
  -2   7   7    8.64    0.97
   2  -7   7    8.44    0.44
   1   6   7    8.02    0.82
   6   1  -7    9.84    0.97
  -7   6  -7    8.73    0.58
   7  -1   7    7.94    0.50
   1  -7  -7    8.55    0.97
   7  -6  -7    9.61    0.82
   1   6   7    7.71    0.97
   6   1  -7    8.22    0.59
  -6   7   7    8.55    0.88
   7  -1   7    8.14    0.68
   6  -7   7    7.29    0.51
  -1   7  -7    9.09    0.74
   6  -7  -7    7.83    0.89
   6   1   7    8.29    0.58
  -1   7   7    8.81    1.03
   1  -7   7    8.21    0.39
   1   6  -7    8.65    0.76
  -7   6   7    7.02    0.81
   6   1   7    8.11    0.68
   7  -1  -7    8.55    0.95
  -6   7  -7    8.91    0.66
   7  -6   7    7.68    0.57
   7  -1  -7    8.19    0.64
   7   0  -7   -0.06    0.20
   7  -7   7   -0.03    0.13
   7   0  -7    0.06    0.12
   7  -7  -7    0.15    0.23
   7   0   7   -0.15    0.16
   7   0   7    0.07    0.12
   0   7  -7    0.21    0.19
  -7   7   7   -0.07    0.21
  -7   7  -7    0.08    0.14
   0   7   7   -0.13    0.26
   0   7   7   -0.07    0.15
   4   4   7   15.58    1.06
   4  -8   7   15.76    0.74
   4   4   7   17.43    1.17
  -4   8   7   16.75    1.27
   4   4  -7   16.60    1.19
   8  -4  -7   16.71    1.26
  -4   8  -7   14.39    1.01
   8  -4   7   16.27    0.96
   4  -8  -7   15.01    1.17
  -8   4  -7   17.04    0.74
   4   4  -7   16.41    0.80
   8  -4  -7   16.10    1.06
  -5   8   7    3.70    0.66
   5   3  -7    3.33    0.61
   8  -5  -7    3.26    0.61
   8  -5  -7    3.41    0.56
  -3   8  -7    3.99    0.56
   3   5   7    3.42    0.63
   5   3  -7    3.83    0.38
  -8   5  -7    3.38    0.28
   8  -3   7    3.91    0.52
   3  -8  -7    4.06    0.70
  -3  -5   7    3.74    0.24
   5  -8   7    3.89    0.31
   3   5   7    3.55    0.54
   8  -5   7    3.40    0.45
   3  -8   7    3.54    0.25
   3   5  -7    2.88    0.55
  -5   8  -7    3.91    0.53
   5   3   7    4.07    0.55
   5  -8  -7    4.12    0.67
  -3   8   7    4.25    0.74
   8  -3  -7    3.66    0.66
   5   3   7    3.93    0.56
   8  -3  -7    3.39    0.53
   6   2  -7   11.54    1.02
   6   2  -7   10.92    0.69
   8  -2   7    9.94    0.77
   6  -8   7   10.42    0.61
  -2   8  -7   10.36    0.84
  -6   8   7   10.94    0.98
   8  -6  -7   10.98    0.89
   2  -8  -7   12.27    1.04
  -8   6  -7   10.93    0.66
   2   6   7   11.85    1.07
   8  -2   7   11.13    0.63
   2   6   7   10.94    0.88
   2  -8   7   11.15    0.51
   6   2   7   10.72    0.76
  -6   8  -7   11.57    0.84
   8  -2  -7   11.60    1.04
   6   2   7   11.92    0.86
   8  -2  -7   12.03    0.82
  -2   8   7   10.18    1.15
   2   6  -7   11.72    0.93
   6  -8  -7    9.20    1.00
  -8   6   7   11.99    1.02
   8  -6   7   10.50    0.71
   7  -8   7    6.83    0.49
   1  -8  -7    6.52    0.89
   7   1  -7    5.51    0.82
   1   7   7    7.35    1.01
   1   7   7    8.15    0.83
   8  -7  -7    4.94    0.72
   8  -1   7    7.42    0.50
   8  -1   7    6.88    0.69
   7   1  -7    5.87    0.51
  -8   7  -7    6.87    0.55
  -7   8   7    8.35    0.92
  -1   8  -7    5.90    0.72
   7   1   7    7.94    0.67
   8  -1  -7    5.68    0.62
   8  -7   7    6.46    0.52
  -1   8   7    6.22    0.99
  -8   7   7    6.61    0.82
   7   1   7    7.39    0.56
   1   7  -7    5.65    0.76
   8  -1  -7    5.94    0.87
  -7   8  -7    6.67    0.67
   7  -8  -7    4.70    0.73
   8  -8   7   -0.05    0.14
   8   0   7   -0.06    0.18
   8  -8  -7   -0.08    0.19
   0   8   7   -0.20    0.28
   0   8  -7   -0.17    0.20
   0   8   7    0.08    0.20
   8   0  -7   -0.04    0.11
   8   0  -7    0.00    0.27
  -8   8  -7   -0.05    0.17
   8   0   7   -0.17    0.13
  -8   8   7    0.24    0.23
  -4   9  -7    6.55    0.75
   5   4  -7    6.96    0.89
   9  -5  -7    7.54    0.80
   9  -5  -7    7.41    0.95
   9  -4   7    7.31    0.62
   5   4  -7    7.28    0.47
  -5   9   7    7.23    0.96
  -9   5  -7    6.45    0.43
   4   5   7    7.00    0.77
   5  -9   7    7.54    0.45
   4   5   7    7.52    0.88
   4  -9  -7    6.42    0.89
  -5   9  -7    7.06    0.78
   5   4   7    6.90    0.76
   9  -5   7    7.17    0.59
   4   5  -7    7.10    0.87
   5   4   7    7.33    0.77
  -9   4  -7    7.38    0.43
   9  -4  -7    7.29    0.76
   4  -9   7    7.24    0.44
  -4   9   7    8.15    1.05
   9  -4  -7    7.25    0.96
   5  -9  -7    7.08    0.91
   6   3  -7    8.67    0.59
   3   6   7    9.14    0.80
   6  -9   7    9.74    0.56
   3  -9  -7    7.74    0.99
  -3   9  -7    9.51    0.83
   6   3  -7    9.66    1.03
   3   6   7   10.66    1.11
  -9   6  -7   10.20    0.61
   9  -3   7    9.18    0.72
   9  -6  -7    8.81    0.89
   9  -6  -7    7.96    1.01
  -6   9   7    9.34    1.06
   6   3   7    9.68    0.79
   6  -9  -7    8.71    0.99
  -3   9   7   10.32    1.18
   9  -6   7    8.55    0.65
   3  -9   7    9.83    0.51
   6   3   7    9.77    0.76
  -6   9  -7   10.76    0.86
   9  -3  -7    8.90    1.07
   3   6  -7    7.98    0.91
   9  -3  -7    9.56    0.77
  -9   7  -7    5.96    0.51
   7   2  -7    7.32    0.53
   9  -7  -7    6.64    0.81
   9  -2   7    6.32    0.67
  -2   9  -7    6.44    0.77
   2   7   7    6.15    0.75
   7   2  -7    5.17    0.84
  -7   9   7    5.60    0.84
   2  -9  -7    6.64    0.91
   2   7   7    7.19    1.01
   7  -9   7    5.81    0.45
   9  -2  -7    7.38    0.72
   2   7  -7    6.26    0.81
   9  -7   7    6.32    0.53
   9  -2  -7    6.74    0.94
  -2   9   7    5.70    0.98
  -7   9  -7    6.29    0.73
   7  -9  -7    7.28    0.91
   7   2   7    5.85    0.68
   7   2   7    7.05    0.60
  -9   7   7    5.45    0.80
  -8   9   7   11.76    1.07
   1   8   7   11.39    0.93
   1   8   7    9.69    1.26
  -9   8  -7   10.83    0.80
   8   1  -7   11.60    0.77
   1  -9  -7   11.33    1.17
   8  -9   7   10.79    0.67
   9  -1   7   12.42    0.76
   9  -1   7   11.25    0.84
  -1   9  -7    9.72    0.90
   9  -8  -7   10.05    1.03
   8   1  -7   10.00    1.14
  -8   9  -7   11.48    0.89
   8   1   7   12.18    0.81
  -1   9   7   10.84    1.33
   9  -8   7   11.84    0.73
   1   8  -7   11.09    1.02
   8   1   7   12.37    0.88
   9  -1  -7   12.47    0.85
   8  -9  -7   10.32    1.10
  -9   8   7    9.18    1.03
   9  -1  -7   10.44    1.17
   0   9  -7   -0.10    0.19
   0   9   7    0.09    0.21
  -9   9  -7   -0.09    0.20
   9  -9  -7    0.18    0.25
  -9   9   7   -0.03    0.26
   9   0  -7   -0.38    0.23
   9   0   7    0.06    0.20
   9   0  -7    0.04    0.14
   0   9   7    0.09    0.34
   9  -9   7   -0.05    0.13
   9   0   7    0.27    0.19
   5   5  -7   11.37    1.03
  -5  10  -7   10.66    0.96
   5 -10   7   11.32    0.66
   5 -10  -7   11.48    1.16
  10  -5  -7   12.00    1.24
  -5  10   7   13.32    1.34
   5   5   7   11.52    0.90
  10  -5  -7   11.85    0.93
  10  -5   7   12.31    0.82
   5   5   7   11.71    0.98
  10  -6  -7   14.20    1.13
   4   6   7   19.84    1.42
   6 -10   7   19.87    0.92
  10  -4   7   18.69    1.08
   4 -10  -7   17.22    1.34
  -4  10  -7   17.59    1.26
   4   6   7   17.66    1.18
  10  -6  -7   17.86    1.43
  -6  10   7   16.07    1.39
   6   4  -7   18.07    1.39
  10  -4  -7   16.80    1.39
  10  -6   7   19.86    1.06
   6 -10  -7   16.88    1.32
   6   4   7   20.12    1.25
  10  -4  -7   16.16    1.15
  -4  10   7   18.47    1.51
   4   6  -7   18.37    1.35
   6   4   7   18.82    1.18
   4 -10   7   19.04    0.87
  -6  10  -7   17.45    1.27
  10  -7  -7    1.65    0.44
  -3  10  -7    1.58    0.42
   3   7   7    1.28    0.38
   7 -10   7    1.18    0.25
   3   7   7    1.53    0.52
   3 -10  -7    1.68    0.50
  -7  10   7    1.22    0.46
   7   3  -7    1.63    0.29
  10  -3   7    1.49    0.36
   7   3  -7    1.13    0.46
   7 -10  -7    1.56    0.45
  -7  10  -7    1.34    0.40
  10  -3  -7    2.17    0.60
   7   3   7    1.60    0.38
 -10   7   7    1.34    0.51
   3   7  -7    2.03    0.49
  10  -7   7    1.37    0.31
  -3  10   7    1.73    0.58
   7   3   7    1.69    0.38
  10  -3  -7    1.83    0.40
  10  -8  -7   26.07    1.60
   8   2  -7   25.90    1.30
   2   8   7   23.70    1.81
   8 -10   7   24.65    1.22
  10  -2   7   27.82    1.43
   8   2  -7   24.54    1.76
   2   8   7   23.62    1.49
  -8  10   7   26.47    1.78
   2 -10  -7   24.52    1.68
  -2  10  -7   26.92    1.65
   8   2   7   25.54    1.43
   8 -10  -7   25.27    1.66
  10  -2  -7   25.28    1.42
  10  -2  -7   27.00    1.82
   2   8  -7   24.76    1.64
  -2  10   7   25.77    1.97
  -8  10  -7   27.57    1.64
  10  -8   7   27.12    1.29
 -10   8   7   24.58    1.69
   8   2   7   24.80    1.44
  10  -9  -7   20.37    1.47
 -10   9  -7   23.44    1.38
   9 -10   7   21.99    1.15
   1   9   7   22.63    1.81
   9   1  -7   25.47    1.76
  10  -1   7   22.71    1.31
  -1  10  -7   22.68    1.52
   9   1  -7   23.88    1.26
   1 -10  -7   23.70    1.62
  -9  10   7   20.19    1.60
   1   9   7   21.81    1.42
  10  -1  -7   21.90    1.67
   9   1   7   24.09    1.35
  -1  10   7   22.87    1.88
   9   1   7   21.48    1.28
  -9  10  -7   23.21    1.49
  10  -9   7   23.37    1.18
  10  -1  -7   22.70    1.31
   9 -10  -7   26.08    1.63
 -10   9   7   23.95    1.65
   1   9  -7   25.05    1.59
  10   0   7    0.27    0.22
  10 -10   7    0.00    0.15
  10   0  -7    0.01    0.14
   0  10  -7   -0.33    0.20
   0  10   7   -0.23    0.39
  10 -10  -7   -0.04    0.27
 -10  10   7   -0.11    0.34
 -10  10  -7    0.14    0.23
   0  10   7   -0.04    0.19
  10   0  -7    0.06    0.25
  -5  11  -7    1.64    0.45
  11  -5   7    1.95    0.38
   5 -11  -7    2.19    0.54
  11  -6  -7    1.25    0.51
  -6  11   7    1.81    0.55
  11  -6  -7    1.80    0.46
   5   6   7    1.18    0.36
   5   6   7    2.11    0.53
   6   5  -7    1.90    0.55
   6 -11   7    1.95    0.30
   6   5   7    1.77    0.47
   6   5   7    1.40    0.38
   5   6  -7    1.55    0.48
  11  -5  -7    2.27    0.62
   6 -11  -7    1.70    0.50
  11  -5  -7    1.48    0.38
  -6  11  -7    1.11    0.42
  -5  11   7    1.69    0.59
  11  -6   7    1.48    0.35
   4 -11  -7    6.88    0.98
   4   7   7    8.61    0.87
   7   4  -7    7.51    1.03
  11  -4   7    8.21    0.68
   4   7   7    7.76    1.04
  -7  11   7    9.68    1.21
  -4  11  -7    6.80    0.89
  11  -7  -7    7.12    0.88
  11  -7  -7    8.19    1.10
   7 -11   7    7.32    0.57
  11  -7   7    7.28    0.62
   7 -11  -7    9.36    1.07
   7   4   7    8.45    0.85
  11  -4  -7    7.51    0.82
   7   4   7    8.98    0.85
   4   7  -7    8.33    1.01
  11  -4  -7    8.70    1.12
  -7  11  -7    7.75    0.96
  -4  11   7   10.29    1.35
  11  -3   7    3.59    0.52
   3   8   7    3.64    0.77
  -3  11  -7    3.85    0.67
  -8  11   7    4.64    0.86
   3 -11  -7    2.83    0.65
   8   3  -7    4.17    0.79
  11  -8  -7    2.85    0.61
   3   8   7    2.16    0.49
   8 -11   7    2.10    0.39
  -3  11   7    2.92    0.81
   8 -11  -7    3.56    0.69
  -8  11  -7    3.72    0.65
   3   8  -7    3.33    0.65
   8   3   7    3.27    0.54
 -11   8   7    3.25    0.68
  11  -3  -7    3.54    0.56
  11  -8   7    2.89    0.43
  11  -3  -7    3.55    0.73
   8   3   7    3.39    0.55
   9 -11   7    2.81    0.43
  11  -9  -7    2.94    0.61
  11  -2   7    3.08    0.51
  -2  11  -7    2.37    0.58
  -9  11   7    2.97    0.70
   2   9   7    2.69    0.74
   9   2  -7    3.41    0.77
   9   2  -7    2.83    0.42
   2   9   7    2.69    0.53
   2 -11  -7    2.49    0.61
  -2  11   7    2.41    0.76
  11  -2  -7    3.09    0.70
   9   2   7    2.58    0.49
  11  -9   7    2.89    0.43
 -11   9   7    2.74    0.67
   9   2   7    3.26    0.53
  -9  11  -7    2.59    0.57
  11  -2  -7    2.88    0.51
   9 -11  -7    3.71    0.71
   2   9  -7    3.22    0.63
  11  -1   7   36.52    1.82
  10   1  -7   39.72    2.41
  10 -11   7   34.58    1.68
  -1  11  -7   32.58    2.08
   1  10   7   35.44    1.97
  10   1  -7   34.52    1.75
 -10  11   7   40.56    2.38
  11 -10  -7   36.63    2.10
   1  10   7   35.61    2.47
   1  10  -7   33.97    2.12
  -1  11   7   36.94    2.60
  11  -1  -7   35.73    1.84
  11 -10   7   35.64    1.69
  10   1   7   35.52    1.83
  11  -1  -7   35.71    2.31
  10 -11  -7   35.95    2.12
 -11  10   7   38.56    2.29
 -10  11  -7   35.64    2.07
  11 -11  -7   -0.15    0.22
 -11  11   7    0.12    0.34
  11   0   7    0.03    0.16
  11   0  -7   -0.06    0.16
   0  11  -7    0.27    0.26
   0  11   7    0.28    0.23
  11 -11   7    0.28    0.20
   0  11   7    0.37    0.41
  11   0  -7   -0.51    0.24
  12  -6  -7   10.78    0.96
  12  -6  -7   14.44    1.30
  12  -6   7   13.06    0.87
   6 -12  -7   13.23    1.30
   6   6   7   11.99    0.94
  -6  12  -7   10.75    1.20
   6   6  -7   12.61    1.29
   6   6   7   11.65    1.07
  -6  12   7   13.88    1.52
   5 -12  -7    1.95    0.53
  -7  12   7    2.60    0.66
  12  -7  -7    3.80    0.79
   7   5  -7    1.68    0.53
  -5  12  -7    2.06    0.54
  12  -5   7    2.34    0.42
  12  -7  -7    1.73    0.47
   5   7   7    1.23    0.44
   7 -12   7    1.67    0.32
   5   7   7    1.83    0.42
  12  -7   7    1.83    0.37
  -7  12  -7    2.45    0.61
   7   5   7    2.12    0.50
   7   5   7    2.07    0.46
   5   7  -7    2.13    0.57
  12  -5  -7    2.56    0.52
  12  -5  -7    2.77    0.67
   7 -12  -7    2.71    0.64
  -5  12   7    1.01    0.49
   8   4  -7    2.60    0.65
  -8  12   7    2.21    0.65
   4   8   7    3.14    0.55
  12  -4   7    3.60    0.53
   4   8   7    1.95    0.60
  -4  12  -7    2.55    0.57
   8 -12   7    3.15    0.45
   4 -12  -7    3.17    0.70
  12  -8  -7    3.24    0.65
   8 -12  -7    2.50    0.61
   4   8  -7    2.99    0.64
   8   4   7    3.02    0.55
  -4  12   7    3.85    0.86
  12  -8   7    3.40    0.47
   8   4   7    3.00    0.53
 -12   8   7    2.83    0.70
  12  -4  -7    3.86    0.77
  12  -4  -7    2.25    0.50
  -8  12  -7    2.67    0.60
   9   3  -7    1.27    0.50
   9 -12   7    0.86    0.29
   3 -12  -7    0.79    0.44
  -3  12  -7    0.69    0.35
  -9  12   7    0.49    0.42
  12  -3   7    0.88    0.30
   3   9   7    1.20    0.36
  12  -9  -7    0.54    0.31
   3   9   7    1.02    0.51
   9   3   7    1.41    0.34
  12  -9   7    0.52    0.24
 -12   9   7    0.82    0.45
  -9  12  -7    0.91    0.42
  12  -3  -7    0.32    0.32
   3   9  -7    0.35    0.29
  12  -3  -7    0.93    0.34
   9 -12  -7    0.80    0.40
  -3  12   7    1.03    0.56
   9   3   7    0.70    0.30
  10 -12   7    5.31    0.62
  10   2  -7    6.88    1.05
   2  10   7    4.11    0.67
  -2  12  -7    5.62    0.89
 -10  12   7    6.13    1.02
   2 -12  -7    5.04    0.84
  12  -2   7    5.75    0.67
   2  10   7    5.43    1.01
  12 -10  -7    6.99    0.96
  12  -2  -7    4.55    0.64
  -2  12   7    6.73    1.20
 -10  12  -7    6.78    0.93
   2  10  -7    5.14    0.90
  10   2   7    5.58    0.71
  12  -2  -7    5.66    0.94
 -12  10   7    7.15    1.03
  12 -10   7    5.06    0.59
  10 -12  -7    5.57    0.89
  12 -11  -7    0.63    0.36
  11   1  -7    0.83    0.45
 -11  12   7    0.69    0.42
   1  11   7    1.14    0.46
  -1  12  -7    0.53    0.35
   1  11   7    0.97    0.31
  11   1  -7    1.15    0.31
  11 -12   7    0.67    0.33
  12  -1   7    0.61    0.28
  -1  12   7   -0.11    0.35
  11   1   7    0.53    0.26
  12  -1  -7    0.52    0.24
  -1  12   7    0.78    0.36
   1  11  -7    0.75    0.37
 -12  11   7    0.32    0.37
  12 -11   7    0.72    0.29
  12  -1  -7    0.02    0.28
  11 -12  -7    0.35    0.33
  12   0  -7   -0.27    0.26
   0  12   7    0.04    0.41
   0  12   7    0.58    0.28
  12 -12  -7   -0.09    0.22
  12 -12   7   -0.26    0.24
   0  12  -7   -0.35    0.23
  12   0   7    0.11    0.18
  12   0  -7    0.02    0.16
 -12  12   7   -0.15    0.29
   7   6  -7    0.25    0.32
  13  -7  -7    0.34    0.30
  -7  13   7    0.34    0.36
  13  -6   7    0.27    0.21
   6   7   7    0.27    0.32
  13  -7  -7   -0.16    0.33
   6   7   7    0.38    0.24
  -6  13  -7    0.73    0.38
   6 -13  -7    0.59    0.34
  13  -7   7    0.45    0.23
   6   7  -7    0.34    0.31
  -7  13  -7    0.51    0.36
   7 -13  -7    0.26    0.31
  13  -6  -7    0.30    0.26
   7   6   7    0.67    0.37
  13  -6  -7    0.89    0.46
  -6  13   7    0.70    0.43
   7   6   7    0.06    0.17
  13  -8  -7    3.91    0.70
   5   8   7    3.80    0.63
   5   8   7    3.91    0.77
   8 -13   7    5.08    0.55
   5 -13  -7    3.99    0.79
  13  -5   7    4.54    0.59
   8   5  -7    3.56    0.78
  -5  13  -7    3.75    0.73
  -8  13   7    4.32    0.88
  13  -8   7    4.17    0.53
   8 -13  -7    3.61    0.74
  13  -5  -7    3.72    0.78
  13  -5  -7    4.26    0.70
  -5  13   7    4.90    0.99
   8   5   7    4.20    0.69
   5   8  -7    3.79    0.77
  -8  13  -7    4.82    0.87
   8   5   7    5.22    0.69
   9   4  -7    6.28    1.03
   4   9   7    7.65    1.11
   9 -13   7    6.64    0.65
  -9  13   7    4.80    0.96
   4   9   7    6.46    0.81
   4 -13  -7    7.00    1.01
  13  -9  -7    8.82    1.05
  -4  13  -7    5.39    0.88
  13  -4   7    6.23    0.69
  -9  13  -7    6.96    1.00
   9 -13  -7    7.69    1.07
  13  -4  -7    5.93    0.99
  13  -9   7    5.96    0.64
  -4  13   7    7.86    1.30
  13  -4  -7    5.27    0.76
   9   4   7    6.62    0.76
 -13   9   7    5.04    0.87
   9   4   7    8.60    0.92
   4   9  -7    6.88    1.01
  10   3  -7    4.36    0.87
  -3  13  -7    2.65    0.62
  13 -10  -7    3.70    0.73
   3  10   7    2.77    0.75
  10 -13   7    3.59    0.53
  13  -3   7    4.09    0.58
   3  10   7    4.10    0.66
   3 -13  -7    2.70    0.66
 -10  13   7    3.31    0.81
   3  10  -7    4.47    0.79
 -10  13  -7    3.34    0.71
  13 -10   7    3.46    0.51
  10 -13  -7    3.48    0.75
  13  -3  -7    2.33    0.50
  13  -3  -7    3.66    0.80
 -13  10   7    3.65    0.76
  -3  13   7    3.19    0.82
  10   3   7    4.05    0.59
   2  11   7    9.47    1.37
   2 -13  -7   11.08    1.26
  11   2  -7    9.83    1.32
 -11  13   7    8.88    1.29
  11 -13   7    9.11    0.78
   2  11   7    9.52    0.99
  13 -11  -7   10.43    1.20
  -2  13  -7    7.95    1.10
  13  -2   7    9.34    0.79
  11 -13  -7   11.26    1.28
   2  11  -7    8.85    1.16
  -2  13   7   10.83    1.63
  11   2   7    9.59    0.81
  13  -2  -7    8.91    0.93
  13 -11   7   10.10    0.80
  13  -2  -7    9.95    1.31
 -13  11   7    8.18    1.16
  12   1  -7    4.49    0.89
  13  -1   7    4.79    0.62
  -1  13  -7    2.88    0.65
   1  12   7    2.84    0.83
  12 -13   7    4.83    0.65
 -12  13   7    4.44    0.94
  13 -12  -7    4.86    0.85
   1  12   7    4.20    0.68
  13  -1  -7    3.13    0.56
  -1  13   7    5.04    1.06
  13  -1  -7    3.55    0.81
  12   1   7    3.68    0.57
 -13  12   7    3.61    0.79
   1  12  -7    4.03    0.79
  13 -12   7    4.27    0.65
  -1  13   7    3.08    0.61
  12 -13  -7    4.34    0.80
 -13  13   7    0.23    0.31
  13   0   7   -0.14    0.16
  13 -13   7    0.11    0.31
   0  13   7    0.48    0.51
  13   0  -7   -0.02    0.31
  13   0  -7    0.14    0.19
  13 -13  -7   -0.11    0.29
   0  13  -7    0.05    0.28
   0  13   7    0.13    0.23
  14  -7   7    0.98    0.31
  14  -7  -7    0.82    0.46
   7   7   7    0.99    0.42
  -7  14   7    1.57    0.59
   7   7  -7    0.42    0.37
   7 -14  -7    1.06    0.38
   7   7   7    0.76    0.30
  14  -7  -7    0.81    0.36
  -7  14  -7    0.29    0.34
  -8  14   7    1.30    0.53
   8   6  -7    0.65    0.37
  14  -8  -7    0.92    0.35
  -6  14  -7    0.00    0.35
   6 -14  -7    0.68    0.43
   6   8   7    0.52    0.43
  14  -6   7    0.53    0.26
   6   8   7    0.54    0.29
  14  -8  -7    0.87    0.49
   6   8  -7    1.23    0.46
  -6  14   7   -0.53    0.35
   8   6   7    0.75    0.37
  -8  14  -7    0.81    0.47
  14  -6  -7    1.04    0.46
   8   6   7    0.51    0.26
  14  -6  -7    1.16    0.38
  14  -8   7    0.77    0.27
   8 -14  -7    0.36    0.37
  -5  14  -7    1.03    0.46
  14  -9  -7    0.83    0.37
  -9  14   7    0.93    0.50
   5   9   7    0.30    0.28
  14  -5   7    0.49    0.27
   5   9   7    1.63    0.50
   9   5  -7    1.29    0.53
   5 -14  -7    0.90    0.43
 -14   9   7    1.88    0.61
  -9  14  -7    0.90    0.44
   9   5   7    0.67    0.34
   5   9  -7    0.69    0.37
  14  -5  -7    1.25    0.50
  14  -5  -7    0.50    0.29
   9   5   7    1.06    0.34
   9 -14  -7    0.82    0.46
  -5  14   7    0.20    0.44
  14  -9   7    0.72    0.28
   4 -14  -7    0.90    0.46
 -10  14   7    0.84    0.52
  -4  14  -7    0.20    0.33
   4  10   7    0.87    0.35
   4  10   7    0.93    0.43
  10   4  -7    0.92    0.47
  10 -14   7    1.15    0.32
  14  -4   7    1.03    0.35
  14 -10  -7    0.71    0.37
  10   4   7    0.98    0.31
  14  -4  -7    0.95    0.33
 -10  14  -7    0.78    0.43
  10 -14  -7    0.84    0.43
 -14  10   7    0.90    0.44
   4  10  -7    0.63    0.39
  14  -4  -7    0.84    0.46
  14 -10   7    1.04    0.33
  -4  14   7    0.33    0.46
  10   4   7    0.56    0.36
  14  -3   7    2.82    0.50
  11 -14   7    2.67    0.46
 -11  14   7    4.37    0.94
  14 -11  -7    3.17    0.67
   3  11   7    2.39    0.51
   3  11   7    3.18    0.78
   3 -14  -7    2.23    0.61
  11   3  -7    3.58    0.83
  -3  14  -7    3.78    0.77
  14 -11   7    2.62    0.50
  14  -3  -7    3.27    0.61
   3  11  -7    1.67    0.56
  11 -14  -7    2.96    0.70
  11   3   7    3.47    0.57
 -14  11   7    2.72    0.69
  -3  14   7    2.80    0.80
  14  -3  -7    2.33    0.66
  14  -2   7    1.34    0.36
  12   2  -7    1.78    0.64
  -2  14  -7    1.80    0.56
  14 -12  -7    2.16    0.62
   2  12   7    1.65    0.43
 -12  14   7    2.03    0.66
  12 -14   7    1.66    0.42
   2  12   7    2.01    0.65
 -14  12   7    1.42    0.51
  -2  14   7    1.76    0.46
  14 -12   7    2.16    0.53
  12   2   7    1.63    0.41
  12 -14  -7    2.58    0.67
   2  12  -7    2.67    0.65
  14  -2  -7    1.77    0.59
  14  -2  -7    1.80    0.43
  -2  14   7    1.72    0.68
  13 -14   7    2.19    0.48
  -1  14  -7    1.26    0.49
  13   1  -7    2.03    0.66
 -13  14   7    1.12    0.55
  14  -1   7    1.65    0.40
  14 -13  -7    1.25    0.50
   1  13   7    1.67    0.43
   1  13   7    2.98    0.86
  13   1   7    1.96    0.41
   1  13  -7    1.63    0.54
  -1  14   7    1.34    0.61
  -1  14   7    2.09    0.52
  13 -14  -7    1.64    0.55
  14  -1  -7    1.50    0.39
 -14  13   7    1.70    0.60
  14 -13   7    1.77    0.47
  14  -1  -7    1.53    0.60
   0  14   7    0.06    0.43
   0  14  -7   -0.28    0.26
 -14  14   7    0.02    0.34
  14 -14  -7   -0.31    0.24
  14   0  -7   -0.25    0.29
  14   0   7   -0.18    0.19
   0  14   7    0.28    0.26
  14 -14   7    0.16    0.30
   7 -15  -7    1.31    0.49
  -7  15  -7    1.29    0.46
   7   8   7    1.46    0.48
  15  -8  -7    1.13    0.55
   8   7  -7    0.86    0.47
  15  -8  -7    0.58    0.32
  -8  15   7    1.06    0.54
  15  -7   7    0.92    0.33
   7   8   7    0.68    0.30
   8   7   7    1.25    0.36
   8   7   7    1.54    0.47
   7   8  -7    0.32    0.39
  -8  15  -7    0.23    0.34
  15  -7  -7    1.05    0.38
  15  -8   7    0.62    0.30
   8 -15  -7    1.65    0.53
  -7  15   7    0.24    0.47
  15  -7  -7    1.20    0.56
   6   9   7    4.49    0.68
  -9  15   7    4.07    0.92
  -6  15  -7    3.51    0.80
  15  -9  -7    4.18    0.76
   6   9   7    3.82    0.77
   9   6  -7    3.65    0.84
   6 -15  -7    3.42    0.77
  15  -6   7    4.63    0.61
  15  -6  -7    3.31    0.64
   9 -15  -7    5.67    0.96
  -6  15   7    3.82    0.95
   6   9  -7    2.69    0.71
  15  -9   7    4.54    0.63
   9   6   7    3.20    0.69
   9   6   7    4.98    0.67
  -9  15  -7    3.49    0.85
 -15   9   7    4.29    0.90
  15  -6  -7    4.13    0.90
   5 -15  -7    1.57    0.49
 -10  15   7    1.90    0.67
   5  10   7    2.34    0.50
  15  -5   7    1.46    0.38
  10   5  -7    1.45    0.57
  15 -10  -7    2.09    0.58
   5  10   7    1.94    0.57
  -5  15  -7    1.68    0.57
  10   5   7    1.52    0.37
   5  10  -7    2.24    0.62
  10   5   7    1.96    0.54
  15  -5  -7    1.06    0.38
 -15  10   7    1.61    0.59
  -5  15   7    1.84    0.71
  15  -5  -7    2.17    0.66
  15 -10   7    1.98    0.46
 -10  15  -7    2.55    0.67
  10 -15  -7    2.10    0.63
  11 -15   7    0.27    0.28
  15 -11  -7   -0.04    0.31
  15  -4   7    0.04    0.21
   4 -15  -7    1.05    0.41
   4  11   7    0.42    0.25
  -4  15  -7    0.48    0.42
  11   4  -7    0.08    0.45
 -11  15   7    0.12    0.35
   4  11   7    0.69    0.43
  11   4   7    0.50    0.27
  11 -15  -7    0.16    0.40
  -4  15   7    0.30    0.47
   4  11  -7    0.58    0.39
 -15  11   7   -0.26    0.31
  15  -4  -7    0.17    0.23
  15 -11   7    0.72    0.28
  15  -4  -7   -0.04    0.37
  12   3  -7    2.29    0.67
  -3  15  -7    2.21    0.64
  15  -3   7    1.86    0.41
 -12  15   7    2.23    0.75
  12 -15   7    2.80    0.51
   3  12   7    3.29    0.85
   3 -15  -7    1.77    0.53
   3  12   7    1.04    0.40
  15 -12  -7    1.58    0.53
  15  -3  -7    1.57    0.44
  15  -3  -7    2.29    0.68
  15 -12   7    1.40    0.49
  12   3   7    1.60    0.40
  -3  15   7    1.44    0.70
  12 -15  -7    1.76    0.62
   3  12  -7    2.20    0.63
 -15  12   7    1.41    0.57
   2  13   7   -0.02    0.25
   2  13   7    0.84    0.52
  13   2  -7    0.31    0.42
  -2  15  -7    0.11    0.36
  13 -15   7    0.58    0.29
 -13  15   7   -0.55    0.28
  15 -13  -7    0.42    0.40
  15  -2   7    0.31    0.24
   2  13  -7    0.66    0.42
  15  -2  -7   -0.59    0.31
  -2  15   7    0.06    0.26
  13 -15  -7   -0.05    0.36
  13   2   7    0.61    0.28
  -2  15   7    0.64    0.50
  15  -2  -7    0.25    0.23
 -15  13   7   -0.12    0.31
  15 -13   7    0.31    0.31
 -14  15   7    1.34    0.64
  15 -14  -7    1.30    0.53
  14 -15   7    0.82    0.32
   1  14   7    1.85    0.78
   1  14   7    1.98    0.50
  15  -1   7    1.25    0.36
  -1  15  -7    0.15    0.40
  14   1  -7    1.19    0.54
 -15  14   7    1.42    0.55
  14   1   7    1.33    0.37
  15  -1  -7    0.91    0.51
  -1  15   7    2.06    0.78
  15 -14   7    1.74    0.47
  14 -15  -7    1.36    0.57
   1  14  -7    1.64    0.57
  -1  15   7    1.37    0.43
  15 -15   7    0.11    0.27
   0  15   7    0.58    0.51
  15   0   7   -0.13    0.22
 -15  15   7    0.27    0.39
   0  15  -7    0.71    0.42
  15 -15  -7   -0.07    0.34
   0  15   7    0.04    0.27
   8   8  -7    4.72    0.91
   8   8   7    2.84    0.53
   8 -16  -7    2.95    0.70
  16  -8  -7    3.98    0.93
  -8  16   7    5.32    1.16
  -8  16  -7    3.51    0.80
  16  -8  -7    4.14    0.75
   8   8   7    4.15    0.77
  16  -8   7    3.78    0.59
   7 -16  -7    1.35    0.54
  -9  16   7    1.58    0.63
   7   9   7    1.08    0.36
  16  -9  -7    1.59    0.51
  -7  16  -7    1.19    0.51
  16  -7   7    1.70    0.41
   9   7  -7    1.38    0.59
   7   9   7    1.33    0.45
  16  -9   7    1.43    0.39
  -7  16   7    2.27    0.75
   9 -16  -7    1.27    0.51
  16  -7  -7    1.18    0.58
  -9  16  -7    2.33    0.63
   9   7   7    1.91    0.44
   7   9  -7    1.25    0.57
  16  -7  -7    1.53    0.47
   9   7   7    0.57    0.38
   6 -16  -7    0.31    0.35
   6  10   7   -0.18    0.33
 -10  16   7   -0.40    0.32
  10   6  -7    0.14    0.33
   6  10   7    0.03    0.25
  -6  16  -7    1.11    0.45
  16 -10  -7    0.33    0.38
  16  -6   7    0.21    0.19
 -16  10   7    0.54    0.46
  16  -6  -7   -0.07    0.37
 -10  16  -7    1.08    0.46
   6  10  -7    0.19    0.36
  10   6   7    0.30    0.21
  16 -10   7    0.24    0.25
  16  -6  -7    0.29    0.27
  10 -16  -7    0.29    0.38
  10   6   7    0.09    0.29
  -6  16   7    0.56    0.44
 -11  16   7   -0.03    0.43
  16 -11  -7   -0.04    0.27
  16  -5   7   -0.10    0.21
  11   5  -7    0.21    0.42
   5  11   7    0.25    0.24
   5  11   7    0.03    0.33
   5 -16  -7   -0.01    0.34
  -5  16  -7    0.39    0.36
   5  11  -7   -0.17    0.28
  16 -11   7    0.26    0.28
  11 -16  -7    0.27    0.37
  16  -5  -7    0.22    0.38
 -16  11   7    0.08    0.34
  -5  16   7    0.19    0.43
  11   5   7   -0.08    0.16
  16  -5  -7    0.33    0.29
   4  12   7    0.59    0.43
  -4  16  -7    1.05    0.48
   4  12   7    1.16    0.37
  16 -12  -7    0.62    0.44
   4 -16  -7    1.47    0.56
  16  -4   7    0.72    0.31
  12   4  -7    0.95    0.55
 -12  16   7    1.28    0.61
  16  -4  -7    1.29    0.51
  16 -12   7    1.04    0.44
  12   4   7    0.83    0.33
  12 -16  -7    1.19    0.52
  16  -4  -7    0.54    0.30
 -16  12   7    0.85    0.47
   4  12  -7    1.33    0.51
  -4  16   7    1.02    0.65
  16  -3   7    0.46    0.27
 -13  16   7    0.23    0.41
  13 -16   7    1.13    0.33
  -3  16  -7    0.19    0.39
  13   3  -7    0.01    0.42
  16 -13  -7    0.14    0.32
   3  13   7    0.77    0.51
   3  13   7    0.80    0.33
  16 -13   7    1.16    0.44
  13   3   7    0.29    0.23
   3  13  -7    0.33    0.37
  16  -3  -7    0.16    0.41
  13 -16  -7   -0.48    0.33
  16  -3  -7    0.25    0.26
  -3  16   7   -0.12    0.51
 -16  13   7    0.17    0.40
  14 -16   7   -0.05    0.24
  16 -14  -7    0.06    0.29
  16  -2   7    0.01    0.22
  -2  16  -7    0.22    0.35
  14   2  -7   -0.08    0.34
 -14  16   7   -0.37    0.35
   2  14   7    0.70    0.52
  16  -2  -7    0.17    0.25
   2  14  -7    0.39    0.36
  16 -14   7   -0.15    0.29
 -16  14   7    0.24    0.35
  -2  16   7    0.07    0.26
  14 -16  -7    0.53    0.41
  14   2   7   -0.20    0.21
  -2  16   7   -0.49    0.44
  16  -2  -7    1.33    0.53
  16  -1   7    0.35    0.27
   1  15   7   -0.35    0.45
 -15  16   7    0.58    0.49
  15   1  -7   -0.14    0.45
  -1  16  -7    0.40    0.39
  16 -15  -7    0.94    0.46
  15 -16   7    0.78    0.33
  -1  16   7   -0.72    0.41
   1  15  -7    0.53    0.45
  16  -1  -7    0.47    0.44
  16 -15   7    0.55    0.35
 -16  15   7    0.46    0.48
  15   1   7    0.17    0.23
  15 -16  -7    0.04    0.32
 -16  16   7   -0.05    0.37
   0  16   7   -0.17    0.47
   0  16  -7    0.28    0.33
  16   0   7   -0.12    0.19
  16 -16   7   -0.46    0.23
  16 -16  -7    0.50    0.38
  16   0  -7   -0.27    0.43
  -8  17  -7    0.47    0.42
   9   8  -7   -0.09    0.35
   8   9   7    0.09    0.30
  17  -9  -7    0.10    0.29
  17  -8   7    0.11    0.23
   8 -17  -7   -0.26    0.30
   8   9   7    0.02    0.23
  -9  17   7    0.41    0.50
   9 -17  -7   -0.04    0.31
  17  -9   7   -0.24    0.22
   9   8   7    0.12    0.21
   9   8   7    0.30    0.49
   8   9  -7    0.17    0.32
  17  -8  -7    0.31    0.32
  -9  17  -7   -0.30    0.35
  17  -8  -7   -0.51    0.34
  -8  17   7   -0.17    0.44
  17 -10  -7    0.54    0.36
 -10  17   7   -0.38    0.46
  -7  17  -7   -0.76    0.30
  10   7  -7   -0.08    0.34
   7 -17  -7   -0.36    0.35
   7  10   7    0.68    0.44
  17  -7   7   -0.02    0.21
   7  10   7   -0.04    0.19
  10   7   7   -0.26    0.26
   7  10  -7    0.43    0.43
  17 -10   7   -0.29    0.21
  17  -7  -7   -0.17    0.36
  -7  17   7   -0.31    0.41
  17  -7  -7    0.07    0.30
 -10  17  -7    0.60    0.46
 -17  10   7    0.27    0.43
  10 -17  -7   -0.24    0.31
  10   7   7    0.29    0.22
  17 -11  -7    2.70    0.67
   6 -17  -7    1.99    0.60
  -6  17  -7    1.59    0.59
   6  11   7    1.87    0.45
  17  -6   7    1.94    0.45
 -11  17   7    2.15    0.76
  11   6  -7    1.91    0.72
   6  11   7    1.41    0.55
  17  -6  -7    1.67    0.64
  11   6   7    1.58    0.39
  17  -6  -7    1.44    0.47
 -17  11   7    1.13    0.56
  17 -11   7    1.59    0.52
  -6  17   7    2.49    0.92
  11 -17  -7    1.23    0.52
   6  11  -7    0.55    0.46
  17 -12  -7    0.36    0.39
  -5  17  -7    0.31    0.42
   5  12   7    0.63    0.31
   5  12   7    0.86    0.50
   5 -17  -7    0.58    0.44
  12   5  -7    1.06    0.57
 -12  17   7    0.13    0.79
  17  -5   7    0.40    0.29
  17 -12   7    0.56    0.36
  17  -5  -7    0.53    0.31
  12   5   7    0.30    0.26
  -5  17   7   -0.01    0.53
 -17  12   7    1.03    0.52
   5  12  -7    0.66    0.45
  12 -17  -7    0.72    0.46
  17  -5  -7    0.69    0.44
  17 -13  -7    3.29    0.76
   4  13   7    3.84    0.85
  17  -4   7    3.14    0.53
  13   4  -7    3.61    0.89
  -4  17  -7    1.83    0.64
 -13  17   7    4.83    1.06
   4 -17  -7    3.30    0.72
 -17  13   7    2.81    0.76
  13   4   7    3.30    0.56
  13 -17  -7    2.84    0.72
  -4  17   7    2.87    0.88
  17 -13   7    3.67    0.70
   4  13  -7    2.50    0.73
  17  -4  -7    2.67    0.75
  17  -4  -7    3.21    0.64
  17  -3   7    1.55    0.38
  17 -14  -7    0.59    0.44
 -14  17   7    1.54    0.68
   3  14   7    0.54    0.53
  -3  17  -7    1.37    0.57
  14   3  -7    1.95    0.61
  -3  17   7    1.29    0.67
  17  -3  -7    1.39    0.43
  17 -14   7    1.70    0.51
  14   3   7    1.36    0.37
 -17  14   7    0.71    0.47
   3  14  -7    1.77    0.58
  14 -17  -7    0.73    0.47
  -3  17   7    1.75    0.48
  17  -3  -7    1.19    0.64
  15   2  -7    0.94    0.52
  17 -15  -7    1.24    0.51
   2  15   7    0.77    0.58
  -2  17  -7    1.57    0.52
 -15  17   7    1.57    0.57
  15 -17   7    1.21    0.42
  17  -2   7    0.90    0.33
   2  15  -7    0.93    0.48
 -17  15   7    0.98    0.57
  15 -17  -7    1.78    0.62
  17 -15   7    1.02    0.39
  15   2   7    1.65    0.37
  17  -2  -7    1.16    0.52
  -2  17   7    1.55    0.72
  17  -1   7    2.25    0.46
  17 -16  -7    2.54    0.72
   1  16   7    2.68    0.84
  16 -17   7    3.65    0.67
  -1  17  -7    2.77    0.75
  16   1  -7    2.28    0.74
 -16  17   7    0.89    0.54
  17  -1  -7    1.77    0.64
  16 -17  -7    2.44    0.70
  -1  17   7    2.20    0.86
  17 -16   7    2.07    0.55
 -17  16   7    2.73    0.80
   1  16  -7    1.86    0.65
  16   1   7    2.75    0.52
  17   0   7    0.05    0.23
  17 -17   7   -0.16    0.27
   0  17  -7   -0.04    0.35
  17 -17  -7   -0.56    0.31
 -17  17   7    0.55    0.49
  17   0  -7    0.11    0.43
   0  17   7    0.13    0.53
   9   9   7    1.21    0.62
  18  -9  -7    0.13    0.46
   9   9  -7   -0.58    0.30
   9   9   7    0.43    0.26
   9 -18  -7    0.36    0.42
  -9  18  -7   -0.10    0.44
  18  -9   7    0.41    0.28
  -9  18   7    0.82    0.54
  18  -9  -7   -0.12    0.31
   8  10   7    4.99    0.90
  18 -10  -7    6.09    0.98
  10   8  -7    4.30    0.98
   8  10   7    5.12    0.73
 -10  18   7    6.76    1.37
   8 -18  -7    5.46    0.99
  18  -8   7    4.36    0.68
  -8  18  -7    4.63    1.02
  18 -10   7    3.81    0.65
  18  -8  -7    5.36    1.10
  18  -8  -7    4.79    0.86
   8  10  -7    4.63    0.97
  10   8   7    4.39    0.65
 -10  18  -7    5.73    1.09
  10 -18  -7    4.82    0.98
 -18  10   7    3.19    0.86
  -8  18   7    4.40    1.15
   7  11   7    2.27    0.65
  11   7  -7    2.71    0.81
  18 -11  -7    2.79    0.68
  18  -7   7    2.34    0.51
  -7  18  -7    2.16    0.72
   7 -18  -7    2.20    0.68
 -11  18   7    3.13    0.91
  -7  18   7    3.33    1.05
  11   7   7    3.51    0.58
  11 -18  -7    2.66    0.70
  18  -7  -7    2.33    0.63
   7  11  -7    2.60    0.71
  18 -11   7    2.09    0.61
 -18  11   7    3.26    0.82
  18  -7  -7    2.65    0.82
  18  -6   7    1.29    0.38
 -12  18   7    3.34    0.93
   6 -18  -7    0.85    0.53
  12   6  -7    1.23    0.61
  -6  18  -7    1.94    0.58
   6  12   7    1.36    0.53
  18 -12  -7    1.08    0.54
  18  -6  -7    2.95    0.84
 -18  12   7    1.80    0.65
  -6  18   7    2.34    0.96
  18 -12   7    2.86    0.64
  12 -18  -7    1.65    0.65
  18  -6  -7    1.59    0.52
   6  12  -7    1.41    0.58
  12   6   7    1.87    0.44
  18  -5   7    0.97    0.34
  13   5  -7    0.60    0.51
  -5  18  -7    1.20    0.55
  18 -13  -7    0.91    0.49
   5  13   7    2.02    0.56
 -13  18   7    1.50    0.62
  18  -5  -7    0.06    0.28
  13   5   7    0.41    0.30
  13 -18  -7    0.68    0.46
  18 -13   7    0.72    0.42
   5  13  -7    0.73    0.44
  18  -5  -7    1.21    0.62
  -5  18   7    1.11    0.68
 -18  13   7    0.71    0.53
  14   4  -7   -0.08    0.45
  18 -14  -7    0.95    0.42
  -4  18  -7    0.59    0.47
   4  14   7   -0.29    0.46
  18  -4   7    0.21    0.21
 -14  18   7    0.38    0.43
  18 -14   7   -0.05    0.34
 -18  14   7    0.05    0.38
  18  -4  -7   -0.06    0.40
  -4  18   7    0.28    0.54
  18  -4  -7   -0.17    0.26
  14 -18  -7    0.49    0.45
   4  14  -7   -0.03    0.33
  14   4   7    0.15    0.24
  18  -3   7    2.56    0.47
  15   3  -7    2.77    0.78
  -3  18  -7    2.36    0.75
   3  15   7    2.30    0.80
  18 -15  -7    2.94    0.78
 -15  18   7    2.36    0.74
  -3  18   7    3.79    1.07
  15   3   7    1.81    0.43
 -18  15   7    2.81    0.78
  18  -3  -7    2.02    0.69
  15 -18  -7    2.03    0.66
   3  15  -7    1.49    0.59
  18 -15   7    1.93    0.53
  16   2  -7    1.76    0.66
  18  -2   7    0.77    0.32
 -16  18   7    0.63    0.49
  -2  18  -7    1.37    0.56
  18 -16  -7    1.53    0.59
   2  16   7    2.02    0.72
  16 -18  -7    0.86    0.47
 -18  16   7    0.53    0.47
  18  -2  -7    1.68    0.68
  -2  18   7    0.91    0.63
   2  16  -7    1.24    0.68
  16   2   7    0.57    0.30
  18 -16   7    0.70    0.36
  18 -17  -7    1.33    0.60
  17   1  -7    0.40    0.49
 -17  18   7    0.76    0.47
  -1  18  -7    0.63    0.50
  18  -1   7    1.14    0.33
  17 -18   7    1.53    0.50
   1  17   7    1.85    0.77
 -18  17   7    2.00    0.75
  -1  18   7    2.25    0.78
  18 -17   7    0.40    0.35
  17 -18  -7    1.14    0.56
   1  17  -7    1.10    0.52
  18  -1  -7    0.75    0.54
  17   1   7    1.52    0.36
  18   0  -7   -0.22    0.41
   0  18  -7   -0.51    0.36
  18 -18  -7    0.14    0.35
 -18  18   7    0.66    0.49
  18   0   7    0.24    0.22
   0  18   7   -0.34    0.55
  18 -18   7   -0.42    0.27
  19 -10  -7    2.07    0.64
   9  10   7    3.21    0.90
  -9  19  -7    4.80    0.96
  10   9  -7    3.09    0.85
  19  -9   7    3.63    0.67
   9 -19  -7    2.54    0.74
 -10  19   7    2.21    0.78
  19  -9  -7    2.58    0.66
  19  -9  -7    3.68    0.97
 -10  19  -7    4.89    1.01
  -9  19   7    2.13    0.85
   9  10  -7    3.09    0.80
  10 -19  -7    2.88    0.76
  19 -10   7    3.82    0.74
 -19  10   7    3.85    0.95
  -8  19  -7    1.61    0.54
   8  11   7    2.63    0.68
   8 -19  -7    1.91    0.59
  19 -11  -7    1.06    0.49
  19  -8   7    1.21    0.39
 -11  19   7    1.73    0.72
  11   8  -7    1.87    0.70
   8  11  -7    1.33    0.58
 -19  11   7    0.92    0.58
  11 -19  -7    1.58    0.57
  11   8   7    1.88    0.44
  -8  19   7    1.49    0.81
  19  -8  -7    1.08    0.50
  19 -11   7    1.30    0.54
  19  -8  -7    2.07    0.74
  19 -12  -7    0.50    0.34
  19  -7   7    0.36    0.27
  -7  19  -7    0.92    0.58
  12   7  -7    0.29    0.43
 -12  19   7   -0.13    0.51
   7  12   7    0.80    0.46
   7 -19  -7    0.71    0.51
   7  12  -7    0.56    0.44
  -7  19   7    1.26    0.61
  19 -12   7    0.98    0.42
  19  -7  -7    0.88    0.38
  12 -19  -7    1.14    0.51
  19  -7  -7    0.03    0.45
 -19  12   7    0.74    0.54
  12   7   7    0.76    0.30
  13   6  -7    0.86    0.54
  19 -13  -7    1.12    0.44
  19  -6   7    0.90    0.34
 -13  19   7    0.36    0.45
   6  13   7    0.72    0.47
  -6  19  -7   -0.29    0.42
   6  13  -7    1.01    0.54
  13   6   7    0.81    0.30
  -6  19   7    0.24    0.58
  19  -6  -7    1.58    0.68
  19  -6  -7    0.56    0.33
  13 -19  -7    0.36    0.42
  19 -13   7    2.05    0.61
 -19  13   7    1.34    0.61
   5  14   7   -0.25    0.45
  -5  19  -7    0.33    0.43
 -14  19   7    0.32    0.45
  19 -14  -7   -0.41    0.29
  19  -5   7    0.44    0.26
  14   5  -7   -0.19    0.41
   5  14  -7    0.41    0.37
  14 -19  -7   -0.13    0.33
  14   5   7    0.33    0.20
  19  -5  -7    0.26    0.31
  19  -5  -7   -0.01    0.40
  19 -14   7   -0.37    0.31
  -5  19   7   -0.37    0.51
 -19  14   7   -0.25    0.35
 -15  19   7    0.64    0.81
  19 -15  -7    0.80    0.47
   4  15   7    2.17    0.73
  -4  19  -7    0.28    0.49
  19  -4   7    0.85    0.33
  15   4  -7    1.03    0.54
  15 -19  -7    1.42    0.54
   4  15  -7    0.41    0.45
  15   4   7    1.06    0.34
  19 -15   7    0.62    0.42
  -4  19   7    0.76    0.72
 -19  15   7    0.48    0.47
  19  -4  -7    0.56    0.50
 -16  19   7   -0.04    0.41
   3  16   7    0.46    0.49
  19 -16  -7   -0.16    0.39
  -3  19  -7    0.74    0.38
  16   3  -7    0.37    0.54
  19  -3   7    0.47    0.29
  19 -16   7    0.73    0.38
   3  16  -7   -0.03    0.38
  -3  19   7    0.04    0.62
  16   3   7   -0.22    0.18
 -19  16   7   -0.15    0.40
  16 -19  -7    0.32    0.40
   2  17   7    0.01    0.50
  -2  19  -7   -0.70    0.37
  19 -17  -7   -0.56    0.34
  17   2  -7   -0.28    0.44
  19  -2   7   -0.13    0.21
 -17  19   7    0.02    0.44
  17   2   7   -0.15    0.19
  -2  19   7    0.55    0.55
  19 -17   7   -0.74    0.29
 -19  17   7    0.14    0.41
  17 -19  -7    0.12    0.44
   2  17  -7    0.72    0.77
  19  -2  -7   -0.05    0.46
  18   1  -7    2.95    0.84
  18 -19   7    1.28    0.49
 -18  19   7    2.77    0.89
   1  18   7    3.46    0.97
  19 -18  -7    2.30    0.72
  -1  19  -7    2.58    0.67
  19  -1   7    3.35    0.56
  19  -1  -7    4.43    0.98
  18   1   7    2.36    0.46
  19 -18   7    1.08    0.43
 -19  18   7    1.94    0.70
  -1  19   7    0.75    0.71
  18 -19  -7    2.43    0.70
   1  18  -7    2.40    0.68
 -19  19   7   -0.31    0.48
   0  19   7    0.83    0.65
  19 -19  -7    0.68    0.48
   0  19  -7   -0.15    0.41
  19 -19   7    0.17    0.38
  19   0   7    0.32    0.25
  19   0  -7    0.05    0.44
 -20  10   7    1.27    0.69
 -10  20   7    1.16    0.75
  20 -10   7    2.12    0.65
  20 -10  -7    1.70    0.60
  10 -20  -7    1.12    0.43
 -10  20  -7    2.61    0.72
  10  10  -7    1.61    0.64
  -9  20  -7   -0.11    0.51
  20  -9   7    0.33    0.32
 -11  20   7   -0.06    0.54
   9 -20  -7    0.52    0.46
   9  11   7    1.13    0.76
  11   9  -7   -0.11    0.43
  20 -11  -7    0.35    0.32
  20  -9  -7    0.26    0.30
  20  -9  -7    0.27    0.50
  20 -11   7    0.51    0.47
   9  11  -7    0.96    0.50
  -9  20   7    1.88    0.76
  11 -20  -7    0.77    0.44
 -20  11   7   -0.24    0.41
  20  -8   7   -0.09    0.28
 -12  20   7   -0.31    0.53
  20 -12  -7    0.27    0.34
  -8  20  -7   -0.10    0.43
   8  12   7    0.46    0.40
  12   8  -7    0.09    0.43
 -20  12   7    0.56    0.50
  20  -8  -7   -0.49    0.48
  20  -8  -7    0.30    0.33
  20 -12   7    0.61    0.45
  12 -20  -7    0.81    0.45
  -8  20   7    1.81    0.66
   8  12  -7   -0.05    0.38
  -7  20  -7    1.06    0.50
  13   7  -7   -0.55    0.39
   7  13   7    0.22    0.43
  20  -7   7    0.10    0.25
  20 -13  -7    0.38    0.36
 -13  20   7   -0.55    0.47
  20 -13   7    0.60    0.42
  13 -20  -7    0.03    0.34
  -7  20   7   -0.65    0.53
 -20  13   7   -0.06    0.38
  20  -7  -7   -0.28    0.44
   7  13  -7   -0.35    0.35
  20  -7  -7    0.10    0.27
  14   6  -7    0.59    0.45
  -6  20  -7   -0.32    0.40
  20 -14  -7    0.87    0.44
  20  -6   7    0.54    0.32
   6  14   7   -0.53    0.36
 -14  20   7   -0.38    0.45
 -20  14   7    0.33    0.44
  20  -6  -7   -0.26    0.44
  -6  20   7    0.65    0.68
  20  -6  -7    0.69    0.31
  20 -14   7    0.07    0.32
   6  14  -7    0.75    0.46
  14 -20  -7   -0.26    0.34
  20 -15  -7    0.50    0.38
  15   5  -7    0.23    0.44
 -15  20   7   -0.12    0.44
   5  15   7   -0.13    0.40
  20  -5   7    0.50    0.29
  -5  20  -7    0.14    0.41
  20  -5  -7   -0.07    0.43
   5  15  -7    0.45    0.43
  15   5   7    0.34    0.22
  15 -20  -7    0.19    0.39
  -5  20   7   -0.75    0.58
  20  -5  -7    0.59    0.34
  20 -15   7    0.02    0.33
 -20  15   7    0.36    0.48
   4  16   7    0.82    0.49
  -4  20  -7    0.66    0.49
  20 -16  -7    0.10    0.40
  20  -4   7    0.57    0.30
 -16  20   7   -0.06    0.52
  16   4  -7    1.15    0.61
  -4  20   7   -0.13    0.54
  20 -16   7    0.22    0.39
  16   4   7   -0.04    0.23
  16 -20  -7    1.12    0.51
  20  -4  -7   -0.33    0.43
 -20  16   7    0.04    0.43
   4  16  -7    0.58    0.41
  20  -3   7   -0.23    0.22
  -3  20  -7    0.14    0.41
   3  17   7   -0.03    0.51
 -17  20   7   -0.19    0.52
  20 -17  -7   -0.04    0.41
  17   3  -7   -0.55    0.43
   3  17  -7   -0.75    0.34
 -20  17   7    0.00    0.41
  -3  20   7   -0.18    0.56
  20 -17   7   -0.52    0.26
  17   3   7    0.28    0.25
  17 -20  -7    0.08    0.40
  20  -3  -7    0.23    0.46
  20  -2   7    0.52    0.29
  18   2  -7    0.56    0.55
   2  18   7   -0.06    0.53
 -18  20   7   -0.01    0.50
  -2  20  -7    0.17    0.40
  20 -18  -7   -0.17    0.38
  18   2   7    0.19    0.24
  20 -18   7   -0.06    0.35
  -2  20   7    0.60    0.59
  20  -2  -7    0.15    0.51
 -20  18   7    0.50    0.51
  18 -20  -7   -0.30    0.35
   2  18  -7   -0.37    0.37
 -19  20   7   -0.10    0.57
   1  19   7   -0.53    0.49
  -1  20  -7    0.03    0.46
  19   1  -7    0.35    0.46
  20 -19  -7    0.42    0.42
  20  -1   7    0.55    0.29
 -20  19   7   -0.03    0.50
  19   1   7    0.50    0.28
  19 -20  -7    0.67    0.49
  -1  20   7    1.00    0.61
  20  -1  -7    1.39    0.61
  20 -19   7    0.55    0.39
   1  19  -7   -0.43    0.38
   0  20   7    1.74    0.65
  20 -20  -7    0.48    0.48
  20   0  -7    0.01    0.55
  20 -20   7    0.50    0.40
  20   0   7    0.04    0.25
 -20  20   7   -0.65    0.52
 -11  21   7    1.30    0.69
  21 -10   7    1.63    0.58
 -21  10   7    2.16    0.85
  21 -11  -7    1.44    0.57
  11  10  -7    1.47    0.64
 -10  21  -7    0.31    0.56
  11 -21  -7    2.68    0.65
 -21  11   7    1.72    0.73
  21 -11   7    2.73    0.69
 -10  21   7    1.81    0.85
  21 -10  -7    0.85    0.41
  10  11  -7    0.73    0.56
  12   9  -7   -0.36    0.45
  -9  21  -7    0.71    0.51
 -12  21   7    0.24    0.59
   9  12   7    1.16    0.73
  21 -12  -7   -0.03    0.33
  21  -9   7   -0.17    0.35
 -21  12   7    0.02    0.46
  21  -9  -7    0.67    0.41
  21  -9  -7    0.19    0.50
   9  12  -7    0.27    0.43
  -9  21   7    0.90    0.65
  12 -21  -7    0.70    0.46
  21 -12   7    0.18    0.41
  21 -13  -7    0.20    0.38
  13   8  -7   -0.07    0.46
  -8  21  -7    0.01    0.44
  21  -8   7    0.64    0.36
 -13  21   7   -0.62    0.53
   8  13   7    0.97    0.46
  13 -21  -7    0.74    0.51
   8  13  -7    0.38    0.44
 -21  13   7   -0.04    0.48
  21  -8  -7   -0.39    0.44
  21  -8  -7    1.64    0.43
  21 -13   7    0.20    0.42
  -8  21   7   -0.52    0.60
  21 -14  -7    0.71    0.40
 -14  21   7    0.46    0.53
  -7  21  -7    0.65    0.48
   7  14   7    0.22    0.46
  21  -7   7   -0.34    0.23
  14   7  -7    0.82    0.55
  21 -14   7    0.01    0.30
 -21  14   7   -0.44    0.41
   7  14  -7   -0.58    0.39
  -7  21   7   -0.52    0.60
  21  -7  -7    0.58    0.62
  14 -21  -7    0.36    0.48
  21  -7  -7    0.59    0.37
  15   6  -7   -0.18    0.46
  21  -6   7   -0.20    0.23
  -6  21  -7    0.12    0.42
  21 -15  -7   -0.61    0.30
   6  15   7    0.81    0.42
 -15  21   7    0.43    0.56
   6  15  -7   -0.31    0.39
  21 -15   7   -0.31    0.33
  15 -21  -7   -0.52    0.38
  -6  21   7    1.04    0.62
  21  -6  -7    0.48    0.37
  21  -6  -7    1.19    0.60
 -21  15   7   -0.31    0.41
 -16  21   7    1.77    0.62
  21  -5   7    0.15    0.26
  -5  21  -7   -0.09    0.41
  21 -16  -7   -0.58    0.33
   5  16   7    0.31    0.46
  16   5  -7    0.49    0.46
  -5  21   7    0.87    0.74
 -21  16   7    0.67    0.52
  21  -5  -7    1.20    0.58
  21 -16   7    0.04    0.34
   5  16  -7    1.31    0.56
  16 -21  -7    0.69    0.45
   4  17   7    0.84    0.51
  -4  21  -7    0.94    0.50
 -17  21   7    1.49    0.72
  21  -4   7    0.92    0.32
  17   4  -7    0.47    0.55
  21 -17  -7    0.59    0.46
 -21  17   7    1.03    0.60
  17 -21  -7   -0.20    0.42
  -4  21   7   -0.05    0.62
   4  17  -7    1.30    0.45
  21 -17   7   -0.11    0.37
  21  -4  -7    1.52    0.55
  18   3  -7    0.62    0.50
  21 -18  -7   -0.24    0.41
   3  18   7   -0.18    0.56
 -18  21   7    0.45    1.04
  21  -3   7    0.32    0.26
  -3  21  -7    0.96    0.57
  18 -21  -7    0.53    0.42
  -3  21   7   -0.02    0.59
   3  18  -7    0.24    0.49
 -21  18   7   -0.89    0.47
  21  -3  -7   -0.33    0.48
  18   3   7    0.04    0.20
  21 -18   7   -0.26    0.35
  21 -19  -7    0.80    0.59
  19   2  -7    1.81    0.62
  21  -2   7    2.35    0.49
   2  19   7    0.38    0.67
 -19  21   7    0.66    0.61
  -2  21  -7    0.46    0.56
  19 -21  -7    0.85    0.55
  19   2   7    1.26    0.36
 -21  19   7    1.54    0.68
  21  -2  -7    1.29    0.65
  21 -19   7    0.94    0.50
  -2  21   7    0.65    0.69
   2  19  -7    2.38    0.76
  22 -11  -7    0.43    0.38
 -11  22   7    1.90    0.89
  11  11  -7    0.29    0.55
  22 -11   7    1.13    0.51
 -22  11   7    0.80    0.60
 -12  22   7    0.18    0.68
  22 -10   7    0.19    0.37
  22 -12  -7    0.11    0.37
 -22  10   7    0.45    0.64
  12  10  -7   -0.09    0.41
  22 -12   7    0.19    0.44
  22 -10  -7    0.29    0.39
 -22  12   7    0.17    0.50
  10  12  -7   -0.34    0.41
 -10  22   7    0.64    0.68
  -9  22  -7    1.06    0.59
  13   9  -7    0.97    0.60
  22 -13  -7    1.97    0.67
 -13  22   7    1.27    0.72
   9  13   7    0.32    0.45
  22  -9   7    1.26    0.52
  -9  22   7    0.06    0.78
 -22  13   7    1.13    0.63
  22 -13   7    2.19    0.68
  22  -9  -7    0.89    0.45
  22  -9  -7    2.09    0.68
  13 -22  -7    1.48    0.56
   9  13  -7    1.47    0.55
   8  14   7   -0.30    0.43
  22  -8   7    0.22    0.44
 -14  22   7    0.69    0.68
  -8  22  -7    0.43    0.53
  22 -14  -7   -0.48    0.35
  14   8  -7    0.23    0.48
  22  -8  -7   -0.93    0.50
  22 -14   7   -0.02    0.28
  -8  22   7   -0.32    0.64
  14 -22  -7    0.03    0.37
 -22  14   7    0.04    0.44
  22  -8  -7   -0.14    0.33
   8  14  -7   -0.23    0.46
   7  15   7    0.35    0.51
  22  -7   7    0.04    0.44
  15   7  -7    0.28    0.50
  22 -15  -7    0.67    0.44
 -15  22   7    0.75    0.62
  -7  22  -7   -0.05    0.45
  22 -15   7    0.05    0.31
 -22  15   7    0.63    0.49
   7  15  -7   -0.80    0.39
  22  -7  -7   -0.54    0.55
  -7  22   7    0.59    0.61
  22  -7  -7   -0.70    0.31
  15 -22  -7   -0.09    0.43
   6  16   7   -0.17    0.45
  22  -6   7   -0.19    0.23
  22 -16  -7    0.59    0.46
 -16  22   7    0.28    0.59
  16   6  -7   -0.58    0.48
  -6  22  -7   -0.47    0.48
  22 -16   7    0.20    0.33
 -22  16   7    0.30    0.46
  22  -6  -7    0.13    0.53
  16 -22  -7    0.37    0.46
   6  16  -7   -0.48    0.41
  -6  22   7    0.05    0.68
  22 -17  -7    0.10    0.40
   5  17   7   -0.78    0.41
 -17  22   7    0.04    0.59
  22  -5   7    0.21    0.33
  17   5  -7    0.87    0.58
  -5  22  -7    0.37    0.47
  22 -17   7   -0.43    0.31
  17 -22  -7    0.26    0.46
  -5  22   7   -0.84    0.60
   5  17  -7    0.48    0.47
 -22  17   7   -0.01    0.49
  22  -5  -7    0.70    0.56
   4  18   7    0.37    0.57
  -4  22  -7    0.71    0.56
   4  18  -7    0.38    0.46
  -4  22   7    0.83    0.73
 -23  11   7    0.22    0.57
 -12  23   7    0.06    0.66
  23 -11   7   -0.28    0.34
  12  11  -7    0.36    0.58
  23 -12  -7    0.60    0.40
 -11  23   7    0.02    0.64
  23 -11  -7    0.01    0.41
 -23  12   7    0.23    0.51
  23 -12   7   -0.49    0.36
  11  12  -7   -0.48    0.46
  23 -10   7    0.48    0.39
  23 -13  -7    0.05    0.43
 -13  23   7    0.15    0.68
 -23  10   7    0.29    0.64
  13  10  -7   -0.19    0.47
  23 -13   7    0.24    0.41
  10  13  -7   -0.26    0.48
  23 -10  -7   -0.29    0.40
 -10  23   7   -0.02    0.72
 -23  13   7    0.37    0.51
  -9  23  -7    1.01    0.52
  14   9  -7    0.65    0.55
 -14  23   7    1.01    0.71
  23 -14  -7   -0.71    0.41
  23  -9   7    0.25    0.39
  -9  23   7   -0.83    0.66
 -23  14   7   -0.07    0.47
  23  -9  -7    0.02    0.40
   9  14  -7    1.03    0.56
  23  -9  -7   -0.61    0.52
  23 -14   7   -0.52    0.35
  14 -23  -7    0.47    0.51
  -8  23  -7    0.36    0.54
   8  15   7   -0.42    0.42
 -23  15   7    0.49    0.53
  23 -15   7    0.28    0.33
  23  -8  -7    0.40    0.40
  15 -23  -7    0.55    0.45
  23  -8  -7    0.24    0.65
   0   0  -8  202.21    8.06
   0   0   8  229.29    7.96
   0   1  -8   11.57    0.72
   0   1   8   11.91    0.70
   1   0   8   11.79    0.64
   1  -1   8   12.30    0.80
   1  -1  -8   10.82    0.74
  -1   1  -8   11.76    0.66
   0   1   8   12.73    0.86
   1   0   8   13.10    0.85
   1  -1  -8   11.83    0.90
   0  -1   8   11.89    0.78
   1   0  -8   11.38    0.75
   2  -1  -8   87.25    3.72
   2  -1   8   88.84    3.60
   1  -2  -8   92.95    3.82
  -1  -1   8   88.96    3.56
   1   1   8   91.37    3.55
   1  -2   8   91.97    3.56
  -1   2  -8   88.92    3.55
   1   1  -8   89.74    3.69
   2  -1  -8   90.36    3.73
   2  -1   8   90.26    3.42
   1   1   8   91.41    3.68
  -1   2   8   91.14    3.64
   2   0   8   12.82    0.87
  -2   2  -8   12.48    0.64
   2   0  -8   13.37    0.89
   2   0  -8   13.00    0.86
   2  -2   8   12.80    0.81
   0   2   8   12.36    0.90
   0   2  -8   12.95    0.78
   0   2   8   12.29    0.76
   2   0   8   12.45    0.65
   2  -2  -8   13.25    0.96
   0  -2   8   12.61    0.78
  -1   3  -8   14.26    0.81
   1   2   8   13.18    0.83
   1   2   8   12.47    0.93
   3  -2  -8   15.24    0.97
  -2   3   8   13.36    0.87
   2   1  -8   14.69    0.91
   1  -3  -8   15.15    1.08
   3  -2  -8   14.46    0.99
  -1  -2   8   12.73    0.80
   2   1  -8   13.33    0.91
   3  -1   8   13.98    0.90
   2  -3   8   12.26    0.79
   3  -1  -8   14.21    0.95
   1   2  -8   14.69    0.90
   3  -1  -8   15.52    0.99
   3  -2   8   13.79    0.86
   2   1   8   12.78    0.91
   2   1   8   14.68    0.79
   2  -3  -8   15.97    1.08
   1  -3   8   14.64    0.83
  -1   3   8   13.48    0.87
  -2   3  -8   15.49    0.76
   3   0   8   59.79    2.41
   0  -3   8   59.36    2.44
   3   0  -8   59.10    2.72
   3   0  -8   58.23    2.61
  -3   3  -8   61.70    2.35
   0   3   8   62.81    2.73
   3  -3   8   60.06    2.50
   3  -3  -8   61.89    2.77
  -3   3   8   61.81    2.68
   3   0   8   58.23    2.61
   0   3  -8   61.28    2.61
   0   3   8   61.01    2.64
   2   2   8   14.27    0.99
   2  -4  -8   15.71    1.11
   2   2  -8   13.89    0.88
   4  -2   8   13.98    0.90
  -2   4  -8   15.65    0.82
   2   2   8   13.97    0.90
  -2   4   8   14.52    0.96
   4  -2  -8   16.83    1.07
   2   2  -8   15.47    0.99
   2  -4   8   14.25    0.82
   4  -2  -8   16.17    1.03
   3   1  -8    0.27    0.18
   1   3   8    0.62    0.26
   1   3   8    0.42    0.21
  -1  -3   8    0.21    0.12
   4  -3  -8    0.26    0.20
   4  -1   8    0.28    0.21
   1  -4  -8    0.21    0.24
   3   1  -8    0.31    0.16
  -1   4  -8    0.41    0.16
   4  -3  -8    0.37    0.24
   3  -4   8    0.32    0.15
  -3   4   8    0.32    0.22
   3  -4  -8    0.20    0.20
   1  -4   8    0.43    0.15
   1   3  -8    0.16    0.15
   3   1   8    0.29    0.16
   4  -1  -8    0.03    0.18
  -1   4   8    0.51    0.22
   3   1   8    0.36    0.23
   4  -1  -8    0.24    0.18
  -3   4  -8    0.15    0.09
   4  -3   8    0.59    0.21
   0   4   8    1.44    0.35
   4   0  -8    0.73    0.24
  -4   4   8    1.41    0.36
   4   0  -8    1.14    0.35
   0  -4   8    1.71    0.27
   4  -4   8    1.47    0.30
  -4   4  -8    1.23    0.16
   4   0   8    1.84    0.20
   0   4  -8    1.04    0.25
   4   0   8    1.69    0.36
   0   4   8    1.95    0.42
   4  -4  -8    1.04    0.34
  -2  -3   8   13.86    0.78
   3   2  -8   14.96    1.04
   5  -3  -8   14.99    1.02
   2   3   8   13.21    0.98
   3   2  -8   16.25    0.90
   5  -3  -8   14.56    1.06
  -3   5   8   12.99    0.97
   2   3   8   13.51    0.96
   5  -2   8   15.87    0.95
   2  -5  -8   14.78    1.12
   3  -5   8   14.22    0.80
  -2   5  -8   15.43    0.86
   5  -2  -8   14.21    1.05
   2  -5   8   13.82    0.77
   5  -2  -8   14.84    0.99
   2   3  -8   14.71    1.00
   5  -3   8   14.38    0.90
  -2   5   8   14.42    1.01
  -3   5  -8   14.80    0.80
   3   2   8   15.22    0.95
   3  -5  -8   13.52    1.07
   3   2   8   13.50    0.97
   1   4   8    5.67    0.69
   5  -1   8    6.38    0.65
   1   4   8    6.02    0.71
   4  -5   8    5.62    0.46
  -1   5  -8    5.55    0.55
   4   1  -8    4.90    0.54
   1  -5  -8    5.97    0.80
   5  -4  -8    6.22    0.74
  -1  -4   8    4.64    0.38
  -4   5   8    5.46    0.65
   4   1  -8    5.12    0.68
  -4   5  -8    5.08    0.37
   5  -4   8    5.97    0.56
   5  -1  -8    4.42    0.57
  -1   5   8    6.22    0.72
   5  -1  -8    4.59    0.67
   1   4  -8    5.47    0.61
   4   1   8    5.61    0.45
   4   1   8    5.54    0.66
   1  -5   8    5.02    0.39
   4  -5  -8    5.16    0.73
  -5   5  -8    6.76    0.38
   0  -5   8    5.35    0.39
   5   0  -8    6.85    0.58
   5  -5  -8    6.57    0.80
   5   0  -8    6.85    0.79
  -5   5   8    6.31    0.71
   5  -5   8    5.89    0.50
   0   5  -8    6.01    0.62
   5   0   8    6.06    0.67
   0   5   8    5.86    0.73
   0   5   8    5.28    0.71
  -3   6  -8   32.85    1.58
   3   3  -8   33.66    1.52
   6  -3  -8   34.85    1.76
   3  -6   8   34.44    1.45
   3   3   8   32.94    1.75
  -3   6   8   34.54    1.86
   6  -3   8   34.15    1.63
   6  -3  -8   33.36    1.89
   3   3  -8   31.02    1.78
   3   3   8   33.41    1.76
   3  -6  -8   31.21    1.87
   2   4   8    4.67    0.66
   2   4   8    4.62    0.64
   6  -4  -8    4.60    0.69
   4   2  -8    4.80    0.68
  -2   6  -8    5.20    0.53
   6  -4  -8    4.43    0.63
   4   2  -8    4.71    0.49
   2  -6  -8    4.65    0.73
   4  -6   8    4.90    0.41
   6  -2   8    3.62    0.53
  -4   6   8    4.93    0.67
  -2  -4   8    4.69    0.37
   6  -4   8    4.65    0.53
   4   2   8    5.50    0.56
   4   2   8    4.33    0.61
   2   4  -8    4.08    0.60
   2  -6   8    4.31    0.35
  -2   6   8    4.64    0.69
  -4   6  -8    5.23    0.42
   6  -2  -8    5.97    0.77
   4  -6  -8    4.68    0.72
   6  -2  -8    4.54    0.60
  -1  -5   8    5.50    0.36
  -1   6  -8    4.13    0.54
   1  -6  -8    5.14    0.78
   1   5   8    5.32    0.70
   5   1  -8    5.20    0.54
   5   1  -8    5.10    0.73
   6  -5  -8    4.84    0.69
  -5   6   8    5.08    0.68
   5  -6   8    5.39    0.45
   6  -1   8    5.20    0.62
   1   5   8    4.85    0.73
   5   1   8    4.83    0.64
   6  -1  -8    5.36    0.75
  -1   6   8    5.47    0.76
   1  -6   8    5.39    0.36
  -5   6  -8    5.54    0.40
   5  -6  -8    4.88    0.73
   6  -1  -8    5.87    0.62
   5   1   8    5.18    0.41
   6  -5   8    4.81    0.51
  -6   5   8    4.35    0.65
   1   5  -8    4.31    0.59
   0   6  -8   24.41    1.41
   0   6   8   25.98    1.64
  -6   6  -8   26.36    1.14
   0  -6   8   25.97    1.04
   6   0  -8   23.38    1.30
   6   0   8   24.40    1.11
  -6   6   8   21.54    1.45
   6   0   8   23.02    1.36
   6   0  -8   23.83    1.56
   6  -6   8   25.82    1.23
   6  -6  -8   24.47    1.51
   0   6   8   25.81    1.52
   3  -7  -8    8.68    1.00
   7  -4  -8    8.43    0.94
   4   3  -8    7.16    0.54
  -3   7  -8    8.23    0.65
   7  -4  -8    8.30    0.85
   3   4   8    8.45    0.85
   4  -7   8    8.18    0.52
  -4   7   8    8.94    0.94
   4   3  -8    8.04    0.88
   3   4   8    9.00    0.82
   7  -3   8    8.49    0.68
   3   4  -8    8.34    0.87
   7  -3  -8    7.75    0.79
   7  -4   8    8.14    0.66
   4  -7  -8    8.31    0.97
  -3   7   8    8.50    0.93
   7  -3  -8    7.83    0.92
   3  -7   8    7.63    0.48
  -4   7  -8    8.60    0.63
   4   3   8    7.61    0.80
   4   3   8    7.48    0.69
   5   2  -8   43.59    2.00
  -5   7   8   45.09    2.38
   7  -2   8   47.58    2.14
   7  -5  -8   45.16    2.43
   5   2  -8   44.29    2.40
   2   5   8   44.22    2.42
   5  -7   8   46.55    1.90
   7  -5  -8   50.11    2.34
   2  -7  -8   43.52    2.40
  -2   7  -8   44.61    2.17
  -2  -5   8   48.25    1.81
   2   5   8   47.02    2.28
  -2   7   8   43.73    2.48
  -5   7  -8   48.03    2.07
   7  -2  -8   47.93    2.48
   2  -7   8   48.13    1.80
   7  -5   8   43.89    2.02
   2   5  -8   47.92    2.34
   7  -2  -8   41.53    2.13
   5   2   8   47.38    2.11
   5  -7  -8   47.02    2.40
   5   2   8   47.79    2.21
  -1  -6   8    3.64    0.24
  -7   6  -8    3.03    0.28
   1   6   8    3.98    0.62
   6   1  -8    3.10    0.60
  -1   7  -8    2.57    0.46
   1   6   8    2.90    0.62
  -6   7   8    3.11    0.58
   1  -7  -8    2.83    0.62
   7  -6  -8    3.26    0.61
   7  -1   8    3.06    0.50
   6   1  -8    3.42    0.45
   6  -7   8    3.22    0.39
   6   1   8    2.61    0.48
  -7   6   8    2.81    0.57
   7  -6   8    3.23    0.44
  -6   7  -8    3.21    0.38
  -1   7   8    3.71    0.70
   7  -1  -8    2.82    0.59
   1  -7   8    3.09    0.24
   6  -7  -8    3.38    0.62
   7  -1  -8    3.08    0.48
   6   1   8    3.28    0.39
   1   6  -8    3.01    0.51
   7   0  -8   25.60    1.73
   0   7   8   28.08    1.65
  -7   7   8   29.39    1.73
   0   7   8   28.33    1.86
   7   0  -8   27.35    1.44
   7   0   8   26.66    1.50
   7  -7  -8   27.74    1.68
   7  -7   8   29.04    1.33
   0   7  -8   26.78    1.57
   7   0   8   28.67    1.28
  -7   7  -8   27.04    1.35
   4  -8  -8   11.02    1.15
   4  -8   8   12.54    0.64
   8  -4  -8   11.35    1.15
   8  -4  -8   13.10    0.95
   8  -4   8   12.24    0.84
   4   4  -8   10.78    0.66
   4   4   8   12.62    0.96
   4   4   8   13.07    0.99
  -4   8  -8   11.13    0.83
   4   4  -8   12.70    1.03
  -4   8   8   12.77    1.09
   5  -8   8    4.61    0.38
   8  -5  -8    4.34    0.73
   3  -8  -8    5.15    0.80
   5   3  -8    4.81    0.75
   5   3  -8    6.22    0.46
  -3   8  -8    4.36    0.57
  -5   8   8    5.18    0.79
   8  -5  -8    3.10    0.57
   8  -3   8    5.38    0.62
   3   5   8    5.37    0.78
   3   5   8    4.54    0.65
   3   5  -8    5.31    0.73
   3  -8   8    5.10    0.34
  -3   8   8    4.81    0.79
   8  -5   8    4.59    0.55
   5  -8  -8    4.13    0.70
   5   3   8    4.62    0.64
   8  -3  -8    5.10    0.64
  -5   8  -8    5.36    0.57
   8  -3  -8    5.40    0.81
   5   3   8    4.99    0.60
   2   6   8    3.94    0.72
   2   6   8    4.26    0.65
  -2   8  -8    4.24    0.58
   8  -2   8    3.66    0.54
   8  -6  -8    3.85    0.64
   6   2  -8    4.31    0.72
  -6   8   8    4.47    0.71
   6   2  -8    3.92    0.46
   6  -8   8    4.15    0.40
   2  -8  -8    4.05    0.74
   2   6  -8    4.29    0.66
  -2   8   8    3.50    0.71
  -8   6   8    3.81    0.68
   8  -6   8    3.23    0.45
   2  -8   8    3.99    0.26
   6   2   8    4.14    0.48
   8  -2  -8    3.13    0.51
   6  -8  -8    3.11    0.62
   6   2   8    4.93    0.65
  -6   8  -8    3.84    0.49
   8  -2  -8    5.00    0.79
   1  -8  -8    5.13    0.82
   1   7   8    5.47    0.88
   8  -1   8    5.95    0.69
   7  -8   8    6.13    0.48
  -1   8  -8    5.29    0.68
   1   7   8    5.91    0.76
   7   1  -8    4.85    0.80
   8  -7  -8    6.13    0.83
  -7   8   8    6.00    0.83
   7   1  -8    4.85    0.55
   7   1   8    6.50    0.72
   1   7  -8    5.49    0.73
  -7   8  -8    5.66    0.58
   8  -1  -8    4.79    0.78
  -8   7   8    5.55    0.78
   8  -1  -8    5.45    0.63
  -1   8   8    5.86    0.96
   7   1   8    5.31    0.47
   8  -7   8    6.42    0.52
   7  -8  -8    4.44    0.73
   8  -8   8    6.06    0.49
   8   0  -8    3.33    0.69
   8   0   8    4.85    0.64
   0   8  -8    4.96    0.70
   8   0  -8    4.48    0.56
   0   8   8    4.37    0.68
  -8   8   8    4.87    0.77
  -8   8  -8    4.76    0.53
   8  -8  -8    4.49    0.74
   0   8   8    5.07    0.91
   9  -4   8    1.25    0.34
   5  -9   8    1.07    0.20
   9  -5  -8    0.98    0.34
   5   4  -8    1.07    0.21
   4   5   8    1.35    0.37
  -5   9   8    1.96    0.51
   4   5   8    1.11    0.42
   5   4  -8    0.86    0.36
   4  -9  -8    0.83    0.39
   9  -5  -8    1.56    0.48
  -4   9  -8    0.94    0.29
  -5   9  -8    1.49    0.35
   5  -9  -8    0.70    0.37
   5   4   8    1.55    0.40
   9  -5   8    0.99    0.31
   4   5  -8    0.44    0.30
   4  -9   8    1.39    0.20
   5   4   8    1.41    0.40
   9  -4  -8    1.01    0.41
   9  -4  -8    1.30    0.36
  -4   9   8    1.37    0.46
   9  -6  -8   33.01    1.84
   9  -6  -8   33.03    2.04
   6   3  -8   33.44    2.02
   3   6   8   31.51    1.80
   6   3  -8   36.61    1.55
   3  -9  -8   32.63    1.99
   6  -9   8   33.16    1.41
   9  -3   8   32.34    1.66
   3   6   8   30.75    1.98
  -6   9   8   29.57    1.97
  -3   9  -8   34.15    1.81
  -3   9   8   32.37    2.09
   6   3   8   32.73    1.76
   9  -6   8   30.62    1.56
   6   3   8   35.82    1.74
   9  -3  -8   34.07    1.76
   9  -3  -8   32.08    2.03
  -6   9  -8   32.68    1.74
   3   6  -8   32.97    1.92
   6  -9  -8   30.99    1.94
   2  -9  -8   10.88    1.18
  -7   9   8   10.16    1.11
   2   7   8   10.30    1.20
   9  -2   8    9.38    0.80
   7   2  -8    8.66    0.67
   7   2  -8   11.55    1.19
   2   7   8    9.78    0.97
   7  -9   8   10.81    0.64
  -2   9  -8   11.41    0.92
   9  -7  -8   11.45    0.98
   7   2   8   10.88    0.77
  -7   9  -8   10.41    0.83
   2   7  -8   10.93    0.97
   9  -7   8   10.81    0.73
   7   2   8   10.75    0.86
   9  -2  -8    9.71    0.79
   9  -2  -8   11.71    1.22
  -9   7   8    9.27    1.03
   7  -9  -8   11.12    1.14
  -2   9   8   10.95    1.29
   1   8   8    5.07    0.90
  -8   9   8    4.34    0.76
   8   1  -8    4.88    0.55
   1  -9  -8    3.60    0.72
   8  -9   8    3.93    0.42
  -1   9  -8    3.90    0.65
   1   8   8    3.43    0.62
   8   1  -8    4.77    0.83
   9  -1   8    3.91    0.57
   9  -8  -8    3.39    0.68
   9  -1  -8    4.01    0.76
  -8   9  -8    3.68    0.54
   1   8  -8    3.14    0.60
   9  -8   8    4.26    0.49
  -9   8   8    4.11    0.71
   8  -9  -8    3.86    0.72
  -1   9   8    3.13    0.75
   9  -1  -8    3.50    0.53
   8   1   8    4.06    0.61
   0   9   8   27.74    2.04
  -9   9   8   28.99    1.86
   9  -9   8   26.83    1.32
   9   0  -8   26.42    1.46
   9   0  -8   26.98    1.89
   0   9  -8   27.03    1.68
   9  -9  -8   29.47    1.81
   0   9   8   28.98    1.72
   9   0   8   28.00    1.54
  10  -5   8    7.15    0.70
  -5  10   8    8.58    1.13
   5   5   8    7.67    0.85
  -5  10  -8    7.65    0.81
   5   5  -8    6.57    0.93
   5   5   8    8.49    0.90
  10  -5  -8    7.07    1.01
   5 -10  -8    8.62    1.08
   5 -10   8    7.97    0.50
  10  -5  -8    7.60    0.86
   6   4  -8    6.42    0.92
   4   6   8    5.39    0.84
  10  -6  -8    5.70    0.91
  -6  10   8    4.70    0.85
   4 -10  -8    5.70    0.89
  10  -6  -8    5.93    0.78
   4   6   8    6.04    0.76
  10  -4   8    4.44    0.60
   6 -10   8    5.52    0.41
  -4  10  -8    4.77    0.68
   6   4   8    5.38    0.69
  10  -6   8    4.49    0.56
   6 -10  -8    6.12    0.90
   6   4   8    5.45    0.72
  10  -4  -8    4.91    0.85
  -6  10  -8    5.14    0.69
  -4  10   8    5.93    0.99
   4   6  -8    5.02    0.79
  10  -4  -8    5.46    0.72
   7   3  -8    4.09    0.76
   3   7   8    4.20    0.65
  -7  10   8    5.55    0.90
   7 -10   8    4.77    0.40
   3   7   8    4.45    0.83
  -3  10  -8    5.49    0.73
  10  -3   8    5.11    0.64
  10  -7  -8    4.70    0.73
   7   3  -8    5.26    0.51
   3 -10  -8    5.48    0.90
  10  -3  -8    5.53    0.92
   7   3   8    5.59    0.64
   7   3   8    5.01    0.68
   7 -10  -8    4.98    0.86
 -10   7   8    4.17    0.79
  10  -3  -8    5.12    0.68
  -3  10   8    4.28    0.89
  10  -7   8    5.34    0.57
   3   7  -8    4.44    0.75
  -7  10  -8    4.66    0.66
   8 -10   8    3.18    0.39
  10  -2   8    3.51    0.54
  10  -8  -8    2.87    0.60
   2   8   8    1.93    0.60
  -8  10   8    3.30    0.68
   2   8   8    3.21    0.58
   8   2  -8    1.16    0.46
   8   2  -8    2.95    0.42
   2 -10  -8    2.51    0.63
  -2  10  -8    2.90    0.55
  -2  10   8    3.32    0.84
   2   8  -8    2.88    0.59
  10  -8   8    3.29    0.46
  -8  10  -8    2.73    0.53
 -10   8   8    3.02    0.67
   8 -10  -8    3.12    0.67
  10  -2  -8    2.54    0.64
   8   2   8    2.84    0.53
  10  -2  -8    2.18    0.45
   9   1  -8    0.92    0.43
   9 -10   8    1.09    0.26
  -1  10  -8    1.00    0.36
   1   9   8    1.48    0.43
  10  -1   8    1.05    0.32
  -9  10   8    1.16    0.51
  10  -9  -8    0.70    0.37
   1   9   8    0.98    0.53
   9   1  -8    0.96    0.29
  -1  10   8    1.21    0.57
   9 -10  -8    1.55    0.52
   1   9  -8    1.33    0.44
 -10   9   8    1.31    0.51
   9   1   8    1.44    0.36
  10  -1  -8    0.87    0.29
  10  -1  -8    1.05    0.46
  10  -9   8    1.38    0.31
  10   0  -8    3.55    0.54
  10   0  -8    3.61    0.78
   0  10   8    2.37    0.74
   0  10   8    3.01    0.59
  10   0   8    2.89    0.52
   0  10  -8    3.54    0.65
 -10  10   8    4.09    0.81
  10 -10  -8    3.58    0.75
  10 -10   8    3.25    0.44
   6   5  -8    6.31    0.96
  -6  11   8    5.87    0.99
  11  -5   8    6.43    0.68
   5   6   8    6.81    0.83
  -5  11  -8    6.12    0.79
  11  -6  -8    5.78    0.81
   6 -11   8    6.36    0.52
   5 -11  -8    5.81    0.93
  11  -6  -8    6.50    0.99
   5   6   8    6.88    0.90
  11  -5  -8    6.99    0.84
   5   6  -8    5.68    0.88
   6 -11  -8    5.64    0.89
  -6  11  -8    6.85    0.83
  -5  11   8    6.36    1.05
   6   5   8    6.57    0.80
   6   5   8    6.97    0.84
  11  -6   8    7.51    0.63
  11  -5  -8    7.31    1.06
   7   4  -8    3.74    0.75
  -7  11   8    5.01    0.90
  11  -4   8    4.75    0.60
   4   7   8    3.48    0.60
  -4  11  -8    5.07    0.74
   4   7   8    5.46    0.88
  11  -7  -8    4.75    0.74
  11  -7  -8    4.07    0.79
   7 -11   8    4.32    0.44
   4 -11  -8    4.53    0.83
  11  -4  -8    3.91    0.64
   7   4   8    3.80    0.62
   7 -11  -8    4.95    0.85
  -4  11   8    4.00    0.88
  -7  11  -8    4.83    0.73
  11  -7   8    5.01    0.57
   7   4   8    4.84    0.66
  11  -4  -8    3.38    0.73
   4   7  -8    3.38    0.71
  11  -8  -8    8.51    1.01
   8 -11   8    7.66    0.58
   3   8   8    8.97    1.17
   8   3  -8    7.62    1.10
   3   8   8    7.24    0.88
  11  -3   8    7.86    0.79
   3 -11  -8   10.37    1.22
  -8  11   8    7.51    1.10
  -3  11  -8    8.68    0.95
   3   8  -8   10.43    1.10
  11  -8   8    8.49    0.66
  -8  11  -8    8.70    0.95
   8 -11  -8    9.60    1.14
  11  -3  -8    6.91    0.82
   8   3   8    8.82    0.76
 -11   8   8    8.53    1.08
  -3  11   8    7.66    1.29
  11  -3  -8    9.54    1.20
   8   3   8    8.03    0.86
  11  -9  -8    2.14    0.55
   9   2  -8    3.21    0.71
   2   9   8    1.88    0.65
   2 -11  -8    2.54    0.65
   9 -11   8    2.97    0.41
  -2  11  -8    2.06    0.51
  11  -2   8    2.62    0.48
   2   9   8    2.91    0.57
  -9  11   8    2.81    0.70
   9   2   8    2.40    0.47
  11  -9   8    2.61    0.41
  11  -2  -8    3.66    0.60
   9 -11  -8    2.68    0.64
  11  -2  -8    2.54    0.65
  -2  11   8    2.84    0.78
   2   9  -8    3.15    0.65
 -11   9   8    2.57    0.63
  10   1  -8    4.50    0.84
  10   1  -8    5.38    0.63
   1  10   8    4.94    0.74
 -10  11   8    5.65    0.94
  10 -11   8    4.94    0.55
  11  -1   8    4.20    0.60
  -1  11  -8    3.69    0.69
   1  10   8    4.72    1.00
  11 -10  -8    5.16    0.84
  11  -1  -8    4.36    0.63
 -11  10   8    5.09    0.90
   1  10  -8    4.21    0.74
  10   1   8    5.43    0.69
  10 -11  -8    3.62    0.74
  11  -1  -8    3.74    0.79
  -1  11   8    3.84    0.68
  -1  11   8    4.47    0.96
  11 -10   8    5.11    0.55
  11 -11  -8    9.97    1.21
  11   0  -8   10.79    0.86
  11 -11   8   10.50    0.76
   0  11  -8   11.30    1.18
   0  11   8   10.30    1.45
   0  11   8   11.46    1.12
 -11  11   8    9.97    1.28
  11   0  -8    8.66    1.25
  11   0   8   10.40    0.86
  12  -6  -8    6.76    0.88
   6   6   8    5.20    0.74
  12  -6  -8    6.11    0.98
   6 -12  -8    5.93    0.96
   6   6  -8    6.00    0.94
  12  -6   8    5.86    0.65
  -6  12  -8    5.57    0.82
   6   6   8    4.79    0.78
  -6  12   8    6.73    1.10
  -5  12  -8    6.20    0.85
   5   7   8    6.04    0.82
  12  -5   8    6.33    0.69
   7   5  -8    5.52    0.92
  12  -7  -8    6.31    0.88
   5   7   8    6.15    0.91
   5 -12  -8    6.62    1.01
  12  -7  -8    6.03    0.99
  -7  12   8    6.82    1.08
  12  -5  -8    5.02    0.91
  12  -5  -8    7.82    0.91
  -7  12  -8    5.11    0.80
   7   5   8    6.62    0.81
   7   5   8    7.39    0.84
  -5  12   8    6.40    1.08
   5   7  -8    7.00    1.00
  12  -7   8    6.23    0.66
   7 -12  -8    6.90    1.03
  -4  12  -8    0.13    0.23
  12  -4   8   -0.01    0.20
   4   8   8    0.29    0.27
   4   8   8    0.15    0.35
  -8  12   8   -0.06    0.30
   8 -12   8    0.11    0.19
   4 -12  -8    0.46    0.38
  12  -8  -8   -0.22    0.19
   8   4  -8    0.64    0.39
  12  -4  -8    0.25    0.30
  -8  12  -8   -0.15    0.25
 -12   8   8    0.07    0.41
   4   8  -8    0.20    0.29
  -4  12   8   -0.22    0.30
   8   4   8   -0.06    0.19
  12  -8   8    0.01    0.19
   8 -12  -8    0.24    0.33
  12  -4  -8   -0.33    0.16
   8   4   8    0.24    0.34
  -9  12   8    4.52    0.87
  12  -9  -8    3.45    0.69
   3   9   8    4.45    0.87
  12  -3   8    5.23    0.65
   3   9   8    4.54    0.71
  -3  12  -8    2.30    0.54
   9   3  -8    3.96    0.81
   9 -12   8    4.09    0.54
   3 -12  -8    3.99    0.79
   9   3   8    3.88    0.61
   9 -12  -8    3.82    0.74
  12  -3  -8    3.45    0.60
  12  -3  -8    2.18    0.59
 -12   9   8    3.23    0.74
  -3  12   8    4.78    0.97
   3   9  -8    4.09    0.75
  12  -9   8    3.78    0.50
   2 -12  -8    1.43    0.48
  10 -12   8    0.56    0.32
  12 -10  -8    0.45    0.36
  -2  12  -8    0.95    0.41
  10   2  -8    1.16    0.47
   2  10   8    1.44    0.40
  12  -2   8    0.91    0.34
   2  10   8    1.28    0.60
 -10  12   8    0.65    0.46
  -2  12   8    2.04    0.65
  12  -2  -8    0.99    0.33
 -12  10   8    0.58    0.44
  10 -12  -8    0.80    0.43
  12  -2  -8    0.99    0.47
  12 -10   8    0.66    0.26
   2  10  -8    1.22    0.45
  10   2   8    0.98    0.30
  11   1  -8    1.26    0.50
  -1  12  -8    1.33    0.43
  11 -12   8    1.79    0.41
  12  -1   8    1.17    0.36
   1  11   8    2.22    0.68
   1  11   8    1.86    0.47
  12 -11  -8    2.72    0.65
 -11  12   8    0.83    0.50
 -12  11   8    1.25    0.56
  -1  12   8    1.19    0.39
  12 -11   8    2.27    0.42
  11 -12  -8    2.16    0.63
  12  -1  -8    1.75    0.41
  12  -1  -8    2.26    0.63
  -1  12   8    2.91    0.77
  11   1   8    1.31    0.37
   1  11  -8    1.93    0.64
 -12  12   8   10.89    1.41
  12   0  -8   10.52    0.88
   0  12  -8   10.26    1.23
  12   0  -8   11.79    1.48
   0  12   8   12.90    1.10
  12   0   8   11.37    0.91
  12 -12  -8   11.43    1.32
  12 -12   8   11.78    0.85
   0  12   8   14.72    1.77
  13  -6   8    8.94    0.74
   6   7   8    7.44    1.00
   6 -13  -8    6.34    1.00
  13  -7  -8    6.73    1.09
  -7  13   8    6.97    1.18
  13  -7  -8    7.16    0.96
   7   6  -8    5.19    0.94
  -6  13  -8    6.66    0.96
   6   7   8    8.24    0.92
   7 -13  -8    7.91    1.09
   7   6   8    8.67    0.98
   6   7  -8    7.87    1.10
  -7  13  -8    7.31    1.00
  13  -6  -8    9.56    1.28
   7   6   8    6.80    0.83
  13  -6  -8    8.02    0.98
  13  -7   8    7.36    0.73
  -6  13   8    7.81    1.24
  13  -5   8    2.84    0.49
   5   8   8    3.16    0.71
   8   5  -8    3.16    0.72
   5   8   8    2.62    0.55
  13  -8  -8    2.03    0.57
  -5  13  -8    2.72    0.59
  -8  13   8    2.65    0.72
   5 -13  -8    3.09    0.73
   8   5   8    3.49    0.58
  13  -8   8    3.10    0.48
  -8  13  -8    2.72    0.61
   8 -13  -8    2.34    0.64
  -5  13   8    3.23    0.81
   5   8  -8    2.43    0.62
   8   5   8    2.70    0.56
  13  -5  -8    1.86    0.49
  13  -5  -8    2.23    0.64
  -4  13  -8    1.73    0.52
  13  -4   8    1.76    0.39
   4   9   8    1.86    0.60
   4   9   8    1.68    0.43
  -9  13   8    1.74    0.61
  13  -9  -8    1.00    0.41
   9   4  -8    1.51    0.54
   4 -13  -8    1.05    0.48
   9 -13   8    1.51    0.34
  -4  13   8    0.37    0.53
  13  -4  -8    1.20    0.53
   9 -13  -8    1.09    0.48
 -13   9   8    1.57    0.58
  13  -4  -8    1.46    0.41
  13  -9   8    1.93    0.39
  -9  13  -8    1.55    0.47
   9   4   8    1.82    0.45
   4   9  -8    1.38    0.50
   3  10   8    1.48    0.41
  10 -13   8    1.10    0.34
   3 -13  -8    1.18    0.49
   3  10   8    0.98    0.45
  -3  13  -8    1.26    0.46
  13  -3   8    1.46    0.39
  13 -10  -8    1.73    0.51
 -10  13   8    1.98    0.63
  10   3  -8    0.95    0.52
  13 -10   8    1.13    0.32
  10 -13  -8    0.88    0.46
  10   3   8    1.46    0.39
 -13  10   8    1.97    0.64
  13  -3  -8    0.75    0.47
   3  10  -8    0.87    0.43
  -3  13   8    0.80    0.52
  13  -3  -8    1.36    0.41
   2  11   8    5.89    1.08
 -11  13   8    4.15    0.91
  11   2  -8    3.58    0.82
  -2  13  -8    4.35    0.81
  13  -2   8    3.85    0.59
  11 -13   8    6.43    0.70
  13 -11  -8    3.88    0.78
   2  11   8    4.73    0.75
  11   2   8    3.67    0.59
   2  11  -8    4.59    0.83
  -2  13   8    4.40    0.99
  11 -13  -8    4.78    0.89
  13 -11   8    4.24    0.58
 -13  11   8    4.35    0.89
  13  -2  -8    4.99    0.73
  13  -2  -8    3.56    0.83
  12 -13   8    0.93    0.33
  13 -12  -8    1.53    0.56
  12   1  -8    1.33    0.52
   1  12   8    2.60    0.73
  13  -1   8    0.62    0.27
 -12  13   8    0.95    0.52
  -1  13  -8    1.77    0.51
   1  12   8    0.56    0.30
  13 -12   8    0.75    0.28
   1  12  -8    1.89    0.52
  12 -13  -8    0.35    0.37
 -13  12   8    1.07    0.53
  -1  13   8    0.49    0.31
  13  -1  -8    0.51    0.28
  -1  13   8    0.39    0.45
  12   1   8    0.33    0.26
  13  -1  -8    1.08    0.47
   0  13   8    0.58    0.49
  13 -13  -8    1.22    0.52
  13 -13   8    0.72    0.35
 -13  13   8    1.21    0.56
  13   0  -8    1.70    0.62
  13   0   8    0.69    0.28
   0  13   8    1.37    0.45
   0  13  -8    0.35    0.35
   7   7   8   15.28    1.15
  14  -7  -8   15.21    1.64
  14  -7   8   16.13    1.05
  -7  14  -8   16.48    1.40
   7   7  -8   14.77    1.55
  -7  14   8   16.70    1.86
   7 -14  -8   17.33    1.47
  14  -7  -8   15.51    1.28
   6 -14  -8    1.80    0.59
  14  -8  -8    2.11    0.55
  -6  14  -8    1.72    0.56
   6   8   8    2.92    0.55
  -8  14   8    2.82    0.76
   8   6  -8    2.15    0.63
   6   8   8    2.56    0.65
  14  -8  -8    2.41    0.69
  14  -6   8    2.85    0.49
   8 -14  -8    2.47    0.64
  14  -6  -8    2.17    0.54
  14  -8   8    2.89    0.48
  -6  14   8    2.71    0.83
  14  -6  -8    1.97    0.63
   8   6   8    2.32    0.57
   8   6   8    2.71    0.52
   6   8  -8    2.49    0.66
  -8  14  -8    2.41    0.62
  -9  14   8    3.06    0.80
  14  -9  -8    2.86    0.65
   5 -14  -8    3.55    0.76
  14  -5   8    3.30    0.54
  -5  14  -8    3.30    0.67
   5   9   8    3.29    0.70
   9   5  -8    3.99    0.86
   5   9   8    2.22    0.51
   9 -14  -8    3.17    0.74
   5   9  -8    2.88    0.71
  14  -5  -8    3.13    0.77
  14  -9   8    3.96    0.55
   9   5   8    2.96    0.56
  14  -5  -8    3.75    0.68
  -9  14  -8    3.90    0.80
 -14   9   8    3.34    0.78
  -5  14   8    3.88    0.98
  10   4  -8    0.35    0.41
 -10  14   8    0.55    0.42
  14 -10  -8    0.86    0.43
   4  10   8    0.04    0.25
   4  10   8    0.11    0.38
  -4  14  -8    0.88    0.38
  14  -4   8    0.62    0.29
   4 -14  -8    1.41    0.50
   4  10  -8    1.13    0.45
  14 -10   8    0.34    0.24
  -4  14   8    0.90    0.56
  10   4   8    0.63    0.30
 -14  10   8    0.22    0.35
  10 -14  -8    0.87    0.46
  14  -4  -8    0.73    0.33
  14  -4  -8    0.72    0.42
  11 -14   8    4.12    0.59
  11   3  -8    4.35    0.93
   3 -14  -8    3.66    0.81
 -11  14   8    2.90    0.79
   3  11   8    3.94    0.69
  -3  14  -8    3.49    0.73
  14 -11  -8    3.20    0.71
   3  11   8    2.84    0.74
  14  -3   8    4.10    0.60
  14  -3  -8    3.07    0.77
 -14  11   8    2.74    0.71
  -3  14   8    5.21    1.11
   3  11  -8    4.96    0.86
  11 -14  -8    4.10    0.83
  11   3   8    3.56    0.60
  14 -11   8    3.82    0.58
  14  -3  -8    3.87    0.66
  14  -2   8    1.15    0.35
   2  12   8    2.28    0.75
  -2  14  -8    0.81    0.47
  14 -12  -8    1.54    0.53
  12 -14   8    2.18    0.48
 -12  14   8    1.59    0.64
  12   2  -8    1.94    0.67
   2  12   8    1.19    0.42
  -2  14   8    0.97    0.39
  12 -14  -8    2.07    0.64
  -2  14   8    1.16    0.58
  14  -2  -8    1.66    0.59
  12   2   8    0.81    0.31
  14  -2  -8    1.32    0.38
  14 -12   8    1.10    0.33
 -14  12   8    1.59    0.58
   2  12  -8    1.21    0.51
   1  13   8    2.14    0.51
  14  -1   8    2.17    0.46
 -13  14   8    2.41    0.72
  14 -13  -8    1.66    0.55
  -1  14  -8    2.07    0.59
  13   1  -8    2.35    0.67
   1  13   8    2.01    0.75
  13 -14   8    2.54    0.51
  13 -14  -8    1.35    0.55
  -1  14   8    2.42    0.78
  14 -13   8    2.49    0.56
  14  -1  -8    2.75    0.75
  -1  14   8    2.78    0.60
 -14  13   8    2.82    0.73
  13   1   8    2.33    0.49
   1  13  -8    2.26    0.61
   0  14   8   10.74    1.63
   0  14   8    8.18    1.01
  14 -14   8    8.80    0.93
  14 -14  -8    7.73    1.18
   0  14  -8    7.42    1.14
  14   0  -8    9.96    1.44
 -14  14   8    8.73    1.35
  14   0   8    7.08    0.82
   8   7  -8    2.29    0.67
   7   8   8    2.25    0.55
  -8  15   8    1.59    0.63
  15  -8  -8    1.64    0.52
   7   8   8    1.34    0.40
  15  -7   8    1.58    0.37
  -7  15  -8    1.59    0.49
   7 -15  -8    1.48    0.51
  15  -8  -8    2.96    0.80
   8   7   8    2.29    0.56
  -7  15   8    1.64    0.73
  15  -8   8    1.47    0.38
  -8  15  -8    1.69    0.56
  15  -7  -8    2.17    0.68
   8   7   8    1.93    0.45
   8 -15  -8    2.08    0.64
  15  -7  -8    1.64    0.51
   7   8  -8    1.10    0.50
   6   9   8    5.30    0.87
  -6  15  -8    4.88    0.87
  -9  15   8    5.25    1.08
   6 -15  -8    6.40    1.06
   6   9   8    5.68    0.77
  15  -6   8    4.79    0.64
   9   6  -8    4.69    0.95
  15  -9  -8    5.57    0.92
  -9  15  -8    6.31    1.02
 -15   9   8    5.07    1.00
   9   6   8    4.79    0.70
  15  -9   8    5.31    0.66
  15  -6  -8    4.13    0.93
  -6  15   8    4.78    1.08
   6   9  -8    4.31    0.88
   9 -15  -8    5.57    0.98
  15  -6  -8    3.58    0.71
  10   5  -8    1.25    0.55
   5  10   8    0.55    0.33
  15 -10  -8    0.77    0.38
   5 -15  -8    0.67    0.47
  -5  15  -8    0.82    0.37
 -10  15   8    1.81    0.59
  15  -5   8    0.90    0.34
   5  10   8    0.72    0.47
  15  -5  -8    1.06    0.51
  10 -15  -8    1.41    0.55
  15 -10   8    0.72    0.30
 -15  10   8    0.59    0.45
  -5  15   8    0.95    0.50
  15  -5  -8    0.47    0.32
  10   5   8    0.67    0.34
   5  10  -8    0.89    0.48
   4  11   8    0.94    0.35
   4  11   8    0.92    0.48
   4 -15  -8    0.41    0.44
  -4  15  -8    0.63    0.38
  15  -4   8    0.98    0.34
  15 -11  -8    1.49    0.52
 -11  15   8    0.75    0.54
  11   4  -8    1.61    0.61
  15 -11   8    0.98    0.35
  11   4   8    0.36    0.26
  15  -4  -8    1.49    0.55
  -4  15   8    2.08    0.72
 -15  11   8    1.91    0.63
  15  -4  -8    0.44    0.31
  11 -15  -8    1.13    0.47
   4  11  -8    0.61    0.37
  12   3  -8    1.04    0.45
   3 -15  -8    0.53    0.44
  15  -3   8    0.53    0.26
 -12  15   8    0.44    0.47
   3  12   8    1.48    0.54
  15 -12  -8    1.17    0.47
  -3  15  -8    0.36    0.35
  12 -15   8    0.71    0.30
   3  12   8    0.61    0.30
 -15  12   8    0.36    0.38
  12   3   8    0.76    0.31
  15 -12   8    0.49    0.30
   3  12  -8    0.66    0.40
  15  -3  -8    0.46    0.29
  15  -3  -8    0.30    0.39
  -3  15   8    1.02    0.65
  12 -15  -8    0.47    0.38
  13 -15   8    7.32    0.83
 -13  15   8    7.96    1.33
  -2  15  -8    5.31    0.97
   2  13   8    4.72    0.78
   2  13   8    6.11    1.14
  13   2  -8    7.25    1.22
  15  -2   8    5.92    0.75
  15 -13  -8    6.24    1.04
  13 -15  -8    7.05    1.13
  15  -2  -8    5.96    0.83
   2  13  -8    5.21    0.95
 -15  13   8    6.04    1.12
  -2  15   8    8.05    1.48
  15 -13   8    4.21    0.72
  13   2   8    6.40    0.80
  -2  15   8    7.52    1.02
  15  -2  -8    5.86    1.11
   1  14   8    1.75    0.47
  -1  15  -8    1.10    0.49
 -14  15   8    0.59    0.47
   1  14   8    1.88    0.73
  14   1  -8    0.62    0.49
  15 -14  -8    1.08    0.49
  15  -1   8    1.27    0.36
  14 -15   8    1.08    0.36
  15  -1  -8    1.00    0.58
 -15  14   8    1.11    0.55
  14   1   8    0.90    0.36
  -1  15   8    0.59    0.50
  15 -14   8    1.33    0.46
  14 -15  -8    1.01    0.49
  -1  15   8    0.89    0.40
   1  14  -8    0.61    0.38
  15 -15  -8    2.32    0.68
   0  15   8    2.44    0.55
   0  15   8    1.95    0.72
  15 -15   8    2.43    0.56
  15   0  -8    2.95    0.78
   0  15  -8    2.04    0.63
  15   0   8    1.66    0.43
 -15  15   8    1.70    0.65
  16  -8  -8    1.20    0.47
  -8  16  -8    1.11    0.50
  -8  16   8    0.57    0.52
  16  -8  -8    1.37    0.60
   8   8   8    1.47    0.45
  16  -8   8    1.18    0.35
   8   8   8    0.89    0.36
   8   8  -8    1.43    0.50
   8 -16  -8    1.83    0.59
   7 -16  -8    0.18    0.40
   7   9   8    0.96    0.34
   9   7  -8    0.60    0.44
  -9  16   8    0.75    0.49
  16  -7   8    0.83    0.31
   7   9   8    1.49    0.46
  -7  16  -8    0.65    0.38
  16  -9  -8    1.49    0.49
  16  -7  -8    0.62    0.45
  16  -9   8    0.51    0.31
  16  -7  -8    0.93    0.39
   9   7   8    0.70    0.34
   9 -16  -8    0.47    0.42
  -9  16  -8    1.12    0.40
   7   9  -8    1.33    0.50
  -7  16   8    1.73    0.70
  -6  16  -8    2.24    0.64
  16 -10  -8    2.09    0.60
   6  10   8    2.07    0.56
  10   6  -8    1.62    0.65
   6 -16  -8    2.40    0.64
   6  10   8    2.18    0.51
 -10  16   8    2.46    0.76
  16  -6   8    2.44    0.49
  16  -6  -8    2.12    0.66
   6  10  -8    2.45    0.66
  -6  16   8    1.26    0.68
  10 -16  -8    2.11    0.64
  16  -6  -8    2.54    0.61
 -16  10   8    2.82    0.78
  16 -10   8    2.13    0.47
  10   6   8    2.11    0.46
   5  11   8    1.85    0.46
  -5  16  -8    1.26    0.48
  16  -5   8    0.92    0.35
  11   5  -8    0.62    0.51
   5 -16  -8    2.79    0.70
  16 -11  -8    0.91    0.47
   5  11   8    2.24    0.65
 -11  16   8    1.66    0.67
  11   5   8    1.48    0.41
 -16  11   8    1.39    0.61
  16  -5  -8    1.28    0.56
   5  11  -8    0.95    0.45
  -5  16   8    2.95    0.90
  11 -16  -8    0.99    0.48
  16 -11   8    1.95    0.47
  16  -5  -8    0.61    0.32
   4 -16  -8    2.13    0.65
 -12  16   8    0.70    0.56
   4  12   8    1.26    0.57
  16  -4   8    0.84    0.33
   4  12   8    1.73    0.49
  12   4  -8    1.16    0.55
  16 -12  -8    0.98    0.46
  -4  16  -8    0.81    0.45
  16  -4  -8    1.55    0.62
  12 -16  -8    2.07    0.61
   4  12  -8    1.20    0.52
  12   4   8    1.49    0.41
  16  -4  -8    1.05    0.37
  16 -12   8    1.49    0.48
 -16  12   8    1.82    0.60
  -4  16   8    1.40    0.62
  -3  16  -8    1.83    0.53
  16  -3   8    1.02    0.35
 -13  16   8    0.00    0.46
   3  13   8    0.48    0.55
   3  13   8    1.37    0.40
  16 -13  -8    0.39    0.40
  13   3  -8    1.42    0.59
  13   3   8    0.31    0.27
  -3  16   8    1.21    0.47
  16  -3  -8    0.84    0.34
  16 -13   8    0.76    0.40
  16  -3  -8    0.80    0.53
   3  13  -8    0.76    0.44
  13 -16  -8    1.17    0.54
 -16  13   8    1.15    0.52
  -3  16   8    0.52    0.71
   2  14   8    3.30    0.64
 -14  16   8    3.40    0.87
  16  -2   8    3.52    0.59
  -2  16  -8    3.53    0.83
  16 -14  -8    3.15    0.77
   2  14   8    4.67    1.03
  14   2  -8    4.26    0.93
  14 -16   8    2.78    0.55
  16 -14   8    3.41    0.66
  14   2   8    2.52    0.49
  -2  16   8    1.63    0.75
 -16  14   8    2.51    0.77
   2  14  -8    3.13    0.75
  -2  16   8    2.56    0.58
  16  -2  -8    4.02    0.92
  14 -16  -8    2.31    0.69
  15   1  -8    1.03    0.51
  -1  16  -8    0.33    0.33
 -15  16   8   -0.19    0.33
  15 -16   8    0.75    0.34
   1  15   8    1.15    0.64
  16 -15  -8    0.68    0.45
  16  -1   8    0.86    0.33
   1  15   8    1.53    0.47
  16  -1  -8    0.06    0.45
  16 -15   8    0.37    0.32
  -1  16   8    0.35    0.32
  -1  16   8    1.10    0.65
  15   1   8    0.62    0.30
   1  15  -8   -0.09    0.32
 -16  15   8    0.61    0.42
  15 -16  -8    0.78    0.48
  16 -16   8    1.43    0.48
   0  16  -8    0.95    0.48
  16   0  -8    1.72    0.61
  16 -16  -8    1.10    0.56
   0  16   8    1.71    0.71
  16   0   8    1.61    0.42
 -16  16   8    1.98    0.71
  -8  17  -8    2.02    0.67
   8   9   8    1.70    0.44
  17  -8   8    1.80    0.44
   8 -17  -8    1.42    0.56
  -9  17   8    1.62    0.68
  17  -9  -8    1.78    0.58
   9   8  -8    0.68    0.53
   8   9   8    1.61    0.45
  17  -8  -8    2.90    0.81
  -9  17  -8    3.58    0.77
   9   8   8    1.60    0.44
   8   9  -8    1.73    0.62
   9 -17  -8    0.86    0.52
  -8  17   8    2.19    0.78
  17  -9   8    1.18    0.39
  17  -8  -8    1.97    0.55
 -10  17   8    0.08    0.40
   7  10   8    1.47    0.50
  -7  17  -8    0.71    0.43
  17 -10  -8    0.91    0.42
   7  10   8    0.70    0.33
   7 -17  -8    0.48    0.47
  10   7  -8    1.69    0.62
  17  -7   8    0.38    0.26
  17  -7  -8    0.45    0.34
  -7  17   8    0.39    0.55
   7  10  -8    0.11    0.39
  10 -17  -8    0.77    0.45
  17 -10   8    0.53    0.31
  17  -7  -8    1.19    0.58
  10   7   8    0.57    0.30
 -17  10   8    0.75    0.51
  11   6  -8    0.59    0.50
  17 -11  -8    1.50    0.53
   6  11   8    1.99    0.48
  17  -6   8    0.77    0.31
   6 -17  -8    1.03    0.53
  -6  17  -8    0.31    0.39
   6  11   8    0.65    0.47
 -11  17   8    1.18    0.61
  11 -17  -8    1.27    0.52
  17  -6  -8    1.90    0.50
 -17  11   8    0.69    0.53
  11   6   8    0.92    0.32
  17  -6  -8    0.36    0.42
  -6  17   8    1.16    0.71
  17 -11   8    1.20    0.41
   6  11  -8    1.78    0.60
  -5  17  -8    0.55    0.45
   5 -17  -8    1.61    0.63
 -12  17   8    1.19    0.69
  17 -12  -8    0.90    0.49
   5  12   8    1.48    0.39
  12   5  -8    1.81    0.67
   5  12   8    1.44    0.55
  17  -5   8    1.42    0.38
  17  -5  -8    1.71    0.63
  -5  17   8   -0.07    0.52
  17 -12   8    0.92    0.46
  12   5   8    1.16    0.37
  17  -5  -8    0.70    0.39
  12 -17  -8    0.88    0.47
   5  12  -8    0.52    0.45
 -17  12   8    1.09    0.54
  17  -4   8    1.39    0.40
   4  13   8    0.73    0.33
  13   4  -8    0.38    0.46
   4 -17  -8    1.56    0.55
   4  13   8    0.69    0.51
  -4  17  -8    0.18    0.38
 -13  17   8    0.95    0.57
  17 -13  -8    1.72    0.58
  17 -13   8    0.81    0.40
   4  13  -8    0.94    0.48
  13   4   8    1.60    0.45
  13 -17  -8    1.69    0.57
  17  -4  -8    0.93    0.58
  17  -4  -8    0.03    0.35
 -17  13   8    1.09    0.53
  -4  17   8    1.04    0.62
  14   3  -8    3.35    0.84
  17  -3   8    2.32    0.48
  -3  17  -8    2.12    0.63
 -14  17   8    2.89    0.83
   3  14   8    4.00    0.85
  17 -14  -8    2.44    0.67
 -17  14   8    3.76    0.87
   3  14  -8    3.65    0.82
  -3  17   8    5.42    1.25
  17 -14   8    3.61    0.70
  17  -3  -8    4.18    0.96
  -3  17   8    2.74    0.65
  14   3   8    2.88    0.54
  14 -17  -8    4.56    0.94
  17 -15  -8    0.69    0.45
  17  -2   8    0.59    0.29
  -2  17  -8    0.23    0.38
  15   2  -8   -0.27    0.37
   2  15   8    1.75    0.67
 -15  17   8    0.36    0.44
   2  15  -8    0.40    0.43
  -2  17   8    0.02    0.54
  17 -15   8    0.74    0.40
 -17  15   8    0.66    0.51
  15 -17  -8    0.54    0.49
  15   2   8    0.14    0.22
  17  -2  -8    0.21    0.42
  17  -1   8   -0.34    0.20
 -16  17   8    0.29    0.45
  -1  17  -8   -0.73    0.33
  17 -16  -8   -0.30    0.32
   1  16   8    0.02    0.55
  16   1  -8   -0.07    0.40
  16 -17   8   -0.14    0.26
  17 -16   8   -0.38    0.27
  16 -17  -8   -0.29    0.40
   1  16  -8    0.12    0.36
 -17  16   8   -0.13    0.42
  -1  17   8    0.32    0.54
  16   1   8    0.04    0.20
  17  -1  -8   -0.40    0.41
   0  17  -8    1.06    0.53
   0  17   8    0.91    0.71
 -17  17   8    3.03    0.81
  17   0   8    2.54    0.51
  17 -17   8    2.79    0.57
  17 -17  -8    1.45    0.57
  17   0  -8    2.50    0.77
   9   9   8    1.05    0.37
   9   9  -8    1.38    0.58
  18  -9  -8    1.79    0.71
  -9  18   8    1.54    0.71
  -9  18  -8    1.28    0.56
   9 -18  -8    1.94    0.60
  18  -9  -8    0.78    0.43
  18  -9   8    0.75    0.34
  10   8  -8    1.15    0.55
   8  10   8    0.52    0.33
 -10  18   8    0.08    0.49
   8 -18  -8    0.88    0.48
   8  10   8    0.87    0.44
  -8  18  -8    0.60    0.45
  18 -10  -8    0.21    0.41
  18  -8   8    0.57    0.29
 -18  10   8    0.05    0.44
  18  -8  -8    0.83    0.64
   8  10  -8    0.30    0.36
  -8  18   8    0.24    0.50
  18 -10   8    0.42    0.32
  18  -8  -8    0.21    0.26
  10   8   8    0.28    0.25
  10 -18  -8    0.38    0.37
  -7  18  -8    1.68    0.57
  18 -11  -8    1.66    0.54
  18  -7   8    1.15    0.38
   7  11   8    1.23    0.41
   7 -18  -8    1.12    0.51
 -11  18   8    1.98    0.75
   7  11   8    2.14    0.60
  11   7  -8    1.52    0.63
  11 -18  -8    0.81    0.48
  11   7   8    0.82    0.34
  18 -11   8    1.29    0.42
 -18  11   8    0.99    0.55
  18  -7  -8    2.33    0.80
   7  11  -8    0.83    0.48
  18  -7  -8    1.03    0.44
  -7  18   8    3.12    0.98
 -12  18   8    0.52    0.51
  12   6  -8    0.45    0.49
  18  -6   8    0.49    0.26
   6 -18  -8    0.73    0.45
  18 -12  -8    1.18    0.47
  -6  18  -8    1.06    0.42
   6  12   8   -0.46    0.35
   6  12  -8   -0.22    0.40
  18  -6  -8   -0.22    0.27
  12 -18  -8    0.69    0.40
  18 -12   8    0.13    0.40
  -6  18   8    0.45    0.58
  18  -6  -8    0.46    0.50
 -18  12   8    0.94    0.51
  12   6   8    0.18    0.25
  18  -5   8    1.06    0.37
 -13  18   8    0.97    0.79
  13   5  -8    2.68    0.73
   5 -18  -8    1.63    0.58
  -5  18  -8    1.99    0.69
   5  13   8    2.05    0.68
  18 -13  -8    2.17    0.71
  13 -18  -8    1.39    0.59
  18  -5  -8    0.81    0.41
  18  -5  -8    2.54    0.74
   5  13  -8    1.44    0.52
  18 -13   8    1.98    0.58
  13   5   8    1.19    0.39
  -5  18   8    1.17    0.71
 -18  13   8    1.45    0.61
  18 -14  -8    0.23    0.40
   4  14   8   -0.35    0.45
  14   4  -8    0.72    0.54
  18  -4   8    0.05    0.20
  -4  18  -8    0.01    0.37
 -14  18   8    0.45    0.47
  18  -4  -8    0.62    0.50
  14 -18  -8    0.08    0.38
  18  -4  -8   -0.12    0.27
  18 -14   8    0.26    0.36
  14   4   8    0.17    0.25
  -4  18   8    0.32    0.54
 -18  14   8    0.10    0.40
   4  14  -8   -0.23    0.33
  -4  18   8    0.41    0.33
   3  15   8    1.88    0.69
  18  -3   8    1.54    0.40
 -15  18   8    1.14    0.74
  15   3  -8    0.89    0.59
  -3  18  -8    1.94    0.62
  18 -15  -8    1.36    0.54
  15   3   8    2.21    0.46
 -18  15   8    2.03    0.66
  15 -18  -8    1.82    0.66
  -3  18   8    0.67    0.61
  18  -3  -8    1.95    0.65
  18 -15   8    2.09    0.55
   3  15  -8    2.60    0.70
  18 -16  -8   -0.02    0.41
  -2  18  -8   -0.24    0.35
  18  -2   8    0.27    0.23
 -16  18   8   -0.92    0.41
  16   2  -8   -0.32    0.44
   2  16   8   -0.35    0.44
  18 -16   8    0.08    0.36
  -2  18   8    1.31    0.71
   2  16  -8   -0.22    0.36
  18  -2  -8   -0.46    0.45
 -18  16   8    0.49    0.54
  16 -18  -8    0.55    0.41
  16   2   8    0.67    0.31
  17 -18   8    0.14    0.31
  18 -17  -8    0.24    0.38
   1  17   8    0.77    0.61
  18  -1   8    0.29    0.30
  17   1  -8    0.56    0.49
  -1  18  -8   -0.23    0.38
 -17  18   8   -0.87    0.41
  17 -18  -8    0.09    0.44
  18  -1  -8    1.47    0.58
 -18  17   8    0.90    0.55
  18 -17   8    0.14    0.30
  17   1   8    0.76    0.34
  -1  18   8    0.33    0.59
   1  17  -8    2.05    0.86
  18 -18   8    0.16    0.33
  18   0  -8   -0.05    0.47
  18   0   8   -0.26    0.19
   0  18   8   -0.53    0.49
 -18  18   8    0.17    0.48
   0  18  -8    0.63    0.43
  18 -18  -8   -0.19    0.36
   9 -19  -8    1.20    0.51
  10   9  -8    0.22    0.48
  19 -10  -8    0.74    0.51
 -10  19   8    1.40    0.75
  19  -9   8    0.79    0.40
  10   9   8    0.92    0.35
 -19  10   8    0.57    0.58
  19  -9  -8    0.99    0.58
  -9  19   8    0.60    0.56
   9  10  -8    0.76    0.44
  19  -9  -8    0.71    0.42
  10 -19  -8    1.11    0.51
  19 -10   8    0.58    0.35
  11   8  -8   -0.34    0.37
   8 -19  -8    0.29    0.44
   8  11   8    0.45    0.40
  -8  19  -8   -0.26    0.38
  19  -8   8   -0.01    0.25
 -11  19   8   -0.71    0.47
  19 -11  -8    0.75    0.37
  19  -8  -8   -1.09    0.39
  11 -19  -8   -0.39    0.37
   8  11  -8   -0.54    0.31
  -8  19   8   -0.07    0.55
  19  -8  -8    0.06    0.31
  11   8   8   -0.15    0.22
 -19  11   8   -0.35    0.36
  19 -11   8    0.35    0.39
  19  -7   8    2.06    0.49
  -7  19  -8    1.09    0.53
  12   7  -8    1.46    0.63
   7  12   8    0.42    0.41
  19 -12  -8    1.37    0.56
   7 -19  -8    2.83    0.72
 -12  19   8    0.28    0.55
   7  12  -8    0.78    0.54
  19  -7  -8    1.72    0.71
  -7  19   8    0.95    0.72
  19  -7  -8    1.11    0.47
  19 -12   8    1.15    0.53
  12 -19  -8    1.53    0.57
 -19  12   8    1.64    0.66
  12   7   8    1.25    0.41
  19  -6   8    0.57    0.30
  19 -13  -8    1.16    0.52
  -6  19  -8    0.62    0.45
   6  13   8   -0.58    0.37
  13   6  -8    0.73    0.53
 -13  19   8    0.41    0.55
  19  -6  -8    0.44    0.32
 -19  13   8    0.90    0.52
  -6  19   8   -0.41    0.53
  19  -6  -8    0.43    0.50
  13   6   8    1.28    0.40
   6  13  -8    0.89    0.54
  19 -13   8    1.19    0.47
  13 -19  -8    1.43    0.57
  14   5  -8    1.78    0.69
  -5  19  -8    1.57    0.66
  19  -5   8    1.93    0.45
  19 -14  -8    3.42    0.81
   5  14   8    3.15    0.72
 -14  19   8    1.38    0.69
  -5  19   8    3.26    1.03
  14 -19  -8    2.58    0.77
  19 -14   8    1.89    0.59
   5  14  -8    2.90    0.75
 -19  14   8    1.86    0.67
  14   5   8    2.77    0.52
  19  -5  -8    1.98    0.52
  19  -5  -8    1.62    0.69
  19 -15  -8    1.18    0.52
  -4  19  -8    0.76    0.46
  19  -4   8    0.74    0.29
   4  15   8   -0.01    0.46
 -15  19   8    0.54    0.57
  15   4  -8    0.72    0.46
 -19  15   8    0.25    0.42
   4  15  -8    0.30    0.42
  15   4   8    0.38    0.25
  15 -19  -8    0.63    0.42
  19  -4  -8    0.48    0.47
  -4  19   8    0.44    0.60
  19 -15   8   -0.51    0.27
  19  -3   8    0.17    0.22
  -3  19  -8    0.12    0.42
   3  16   8    0.58    0.54
 -16  19   8    0.10    0.43
  19 -16  -8   -0.36    0.35
  16   3  -8   -0.93    0.40
  16 -19  -8    0.95    0.49
  19  -3  -8    0.37    0.44
  19 -16   8   -0.02    0.32
  -3  19   8    1.39    0.67
 -19  16   8    0.44    0.48
  16   3   8   -0.02    0.22
   3  16  -8    0.57    0.43
  19 -17  -8    0.38    0.44
  19  -2   8    0.64    0.30
   2  17   8   -0.13    0.46
  -2  19  -8    0.97    0.48
 -17  19   8   -0.39    0.44
  17   2  -8    0.86    0.52
  17 -19  -8    0.48    0.42
  19  -2  -8   -0.49    0.43
  19 -17   8    0.54    0.38
   2  17  -8   -0.09    0.47
  -2  19   8    0.76    0.61
  17   2   8    0.35    0.25
 -19  17   8   -0.26    0.42
  -1  19  -8    0.55    0.47
   1  18   8    0.51    0.55
  19  -1   8    0.50    0.27
 -18  19   8    0.79    0.60
  19 -18  -8   -0.33    0.36
  18   1  -8    0.84    0.54
  18   1   8    0.55    0.26
   1  18  -8    0.99    0.73
  -1  19   8    0.47    0.59
 -19  18   8    0.90    0.59
  19 -18   8    0.44    0.34
  18 -19  -8    0.44    0.40
  19  -1  -8    0.19    0.51
   0  19   8    1.50    0.64
  19   0   8    0.91    0.29
  19 -19  -8    0.87    0.45
  19 -19   8    0.90    0.41
   0  19  -8   -0.16    0.42
  19   0  -8    0.84    0.58
 -19  19   8    0.34    0.53
  10 -20  -8    0.78    0.50
  20 -10  -8    0.45    0.44
 -20  10   8    0.73    0.62
 -10  20   8    0.79    0.72
  10  10  -8    1.13    0.60
  20 -10   8    1.05    0.41
  20  -9   8    1.10    0.41
  11   9  -8    1.28    0.57
 -11  20   8    2.80    0.85
  20 -11  -8    1.05    0.49
   9 -20  -8    1.28    0.57
  20  -9  -8    1.60    0.69
  20  -9  -8    1.18    0.47
   9  11  -8    1.22    0.54
  20 -11   8    1.55    0.63
 -20  11   8    1.51    0.62
  11 -20  -8    1.05    0.54
  -9  20   8    1.48    0.74
  20  -8   8    1.30    0.46
  20 -12  -8    1.22    0.47
   8 -20  -8    1.66    0.62
  -8  20  -8    2.20    0.70
 -12  20   8    0.96    0.71
  12   8  -8    3.40    0.87
  -8  20   8   -0.58    0.59
   8  12  -8    1.85    0.64
  12 -20  -8    0.83    0.53
  20  -8  -8    1.46    0.44
 -20  12   8    2.11    0.68
  20  -8  -8    0.69    0.60
  20 -12   8    2.07    0.63
  20  -7   8    0.42    0.26
 -13  20   8    1.05    0.73
  -7  20  -8    0.32    0.42
  20 -13  -8    0.53    0.50
   7  13   8    0.09    0.41
  13   7  -8    1.11    0.57
   7  13  -8   -0.19    0.40
  -7  20   8   -0.25    0.59
  13   7   8    0.92    0.35
  20  -7  -8    0.45    0.34
  20  -7  -8   -0.48    0.44
  20 -13   8   -0.40    0.30
 -20  13   8   -0.02    0.39
  13 -20  -8   -0.16    0.33
  14   6  -8    1.14    0.54
  20 -14  -8    0.27    0.39
   6  14   8    0.26    0.54
  20  -6   8    0.87    0.35
 -14  20   8    2.10    0.74
  -6  20  -8    0.91    0.53
  20  -6  -8    0.52    0.42
  14 -20  -8    0.78    0.50
  20 -14   8    1.17    0.52
  20  -6  -8    1.49    0.69
  14   6   8    1.85    0.42
 -20  14   8    1.21    0.57
   6  14  -8    0.62    0.49
  -6  20   8    0.84    0.68
 -15  20   8    0.58    0.64
  -5  20  -8    0.84    0.45
  15   5  -8    0.56    0.52
  20 -15  -8   -0.29    0.35
  20  -5   8    0.51    0.29
   5  15   8    0.71    0.50
  20  -5  -8    0.54    0.45
  -5  20   8    0.34    0.55
  15   5   8    0.67    0.28
 -20  15   8    0.30    0.46
   5  15  -8    0.62    0.44
  15 -20  -8    0.22    0.42
  20 -15   8    0.90    0.43
  20 -16  -8   -0.06    0.36
   4  16   8   -0.59    0.42
  -4  20  -8    0.35    0.41
 -16  20   8   -0.47    0.85
  20  -4   8    0.27    0.24
  16   4  -8   -0.03    0.47
  -4  20   8    0.35    0.57
  20  -4  -8    0.74    0.50
  16 -20  -8   -0.09    0.35
 -20  16   8    0.08    0.40
  20 -16   8   -0.41    0.30
   4  16  -8   -0.32    0.36
  16   4   8   -0.15    0.23
  17   3  -8   -0.12    0.53
  20 -17  -8    0.51    0.43
  -3  20  -8    0.60    0.47
  20  -3   8    0.68    0.34
 -17  20   8    1.28    0.70
   3  17   8   -0.42    0.54
  20 -17   8    0.33    0.39
  17   3   8    0.56    0.29
  17 -20  -8    0.94    0.45
  -3  20   8    0.90    0.70
 -20  17   8    0.63    0.58
  20  -3  -8   -0.68    0.46
   3  17  -8    0.88    0.55
  20 -18  -8    0.48    0.50
  20  -2   8   -0.02    0.23
 -18  20   8    0.20    0.55
  18   2  -8    0.13    0.57
  -2  20  -8    0.08    0.40
   2  18   8   -0.60    0.62
  18   2   8    0.40    0.27
  -2  20   8    1.39    0.67
  20  -2  -8    0.80    0.58
  18 -20  -8    0.72    0.47
  20 -18   8    0.33    0.33
 -20  18   8   -0.32    0.50
   2  18  -8   -0.02    0.49
  20  -1   8    0.23    0.27
   1  19   8    0.20    0.53
  19   1  -8   -0.26    0.45
 -19  20   8   -0.45    0.53
  20 -19  -8    0.27    0.42
  -1  20  -8   -0.25    0.46
 -20  19   8    0.93    0.53
  20  -1  -8    0.31    0.55
   1  19  -8   -0.23    0.43
  19   1   8   -0.24    0.23
  20 -19   8   -0.14    0.35
  -1  20   8    0.44    0.62
  19 -20  -8    0.99    0.57
   0  20  -8    0.76    0.50
   0  20   8    0.21    0.63
 -21  10   8   -0.03    0.60
  21 -10   8    0.87    0.51
 -11  21   8   -0.32    0.60
  10 -21  -8    0.75    0.46
  11  10  -8    0.86    0.50
  21 -11  -8    0.34    0.40
 -10  21   8    0.58    0.67
  21 -10  -8    0.14    0.38
 -21  11   8    0.14    0.53
  21 -11   8    0.18    0.44
  11 -21  -8    0.83    0.49
  10  11  -8   -0.77    0.35
 -12  21   8    1.50    0.73
  21 -12  -8    1.75    0.57
  12   9  -8    1.66    0.60
  21  -9   8    1.58    0.44
   9  12  -8    0.38    0.50
  21  -9  -8    1.47    0.72
  21  -9  -8    1.88    0.60
  -9  21   8    0.46    0.62
  21 -12   8    2.65    0.66
  12 -21  -8    1.09    0.49
 -21  12   8    1.13    0.61
  21  -8   8   -0.40    0.23
  13   8  -8   -0.17    0.46
  21 -13  -8    0.39    0.39
  -8  21  -8    0.10    0.42
 -13  21   8   -0.05    0.60
  21 -13   8    0.24    0.45
  21  -8  -8    0.12    0.54
  21  -8  -8    0.34    0.39
   8  13  -8    1.05    0.49
  13 -21  -8    0.80    0.38
  -8  21   8    0.67    0.71
 -21  13   8    0.14    0.53
  21 -14  -8    0.86    0.46
  21  -7   8    0.30    0.31
  -7  21  -8   -0.16    0.48
 -14  21   8    1.07    0.62
   7  14   8   -0.08    0.46
  14   7  -8    0.67    0.55
 -21  14   8    0.27    0.50
  21  -7  -8   -0.71    0.49
   7  14  -8   -0.27    0.41
  14 -21  -8    0.40    0.52
  21 -14   8    0.66    0.45
  -7  21   8    0.58    0.63
  21  -7  -8   -0.09    0.33
  21  -6   8    0.09    0.28
  21 -15  -8    0.01    0.37
  -6  21  -8   -0.44    0.46
   6  15   8    0.40    0.45
 -15  21   8   -0.22    0.56
  15   6  -8   -0.12    0.49
 -21  15   8    1.28    0.55
   6  15  -8   -0.72    0.38
  -6  21   8    1.13    0.65
  15 -21  -8   -0.54    0.38
  21  -6  -8    1.23    0.56
  21 -15   8   -0.23    0.31
  21 -16  -8    1.26    0.52
  -5  21  -8    1.85    0.51
   5  16   8    0.12    0.46
  16   5  -8    1.32    0.57
  21  -5   8    0.93    0.35
 -16  21   8    0.30    0.53
  -5  21   8   -0.49    0.60
 -21  16   8    0.26    0.51
   5  16  -8    0.71    0.50
  21  -5  -8   -0.21    0.54
  16 -21  -8    0.89    0.48
  21 -16   8    0.33    0.35
  -4  21  -8   -0.44    0.44
   4  17   8    1.70    0.59
 -17  21   8   -0.16    0.53
  17   4  -8    0.35    0.51
  21 -17  -8    0.51    0.46
  21  -4   8    0.56    0.26
   4  17  -8   -0.19    0.42
  -4  21   8   -0.49    0.60
 -21  17   8   -0.33    0.42
  17   4   8   -0.08    0.24
  21  -4  -8   -0.51    0.50
  21 -17   8   -0.52    0.27
  17 -21  -8    0.16    0.44
  18   3  -8   -0.63    0.51
 -18  21   8    0.55    1.04
  21  -3   8    0.15    0.28
   3  18   8   -0.70    0.52
  21 -18  -8   -0.28    0.45
  -3  21  -8   -0.81    0.41
  -3  21   8   -0.46    0.60
  21  -3  -8    0.40    0.52
  18   3   8   -0.04    0.24
  18 -21  -8    0.11    0.44
 -21  18   8    0.34    0.48
  21 -18   8    0.39    0.39
   3  18  -8    0.72    0.46
  -2  21  -8    0.74    0.53
   2  19   8    0.57    0.58
   2  19  -8    0.51    0.53
  11  11  -8    0.41    0.50
 -11  22   8   -0.51    0.58
 -22  11   8    0.70    0.58
  22 -11   8   -0.06    0.39
 -22  10   8    0.15    0.60
  22 -10   8    0.31    0.51
  22 -12  -8    0.76    0.42
 -12  22   8    0.09    0.64
  12  10  -8    0.57    0.48
  12 -22  -8    0.58    0.43
  22 -10  -8    0.16    0.40
  22 -12   8    0.82    0.47
  10  12  -8    0.03    0.42
 -22  12   8    0.44    0.55
 -10  22   8    1.42    0.76
  22  -9   8   -0.03    0.38
  22 -13  -8    0.68    0.44
  13   9  -8    0.21    0.46
 -13  22   8   -1.29    0.57
  -9  22   8    0.40    0.67
 -22  13   8    0.00    0.44
   9  13  -8   -0.07    0.47
  13 -22  -8   -0.17    0.42
  22 -13   8   -0.28    0.36
  22  -9  -8   -0.44    0.49
  22  -9  -8   -0.26    0.35
  22  -8   8    0.44    0.35
  14   8  -8    0.28    0.57
 -14  22   8   -1.07    0.63
  22 -14  -8    0.31    0.45
  -8  22  -8    0.18    0.44
  -8  22   8    0.55    0.70
 -22  14   8    0.22    0.50
  22  -8  -8   -0.14    0.36
  22 -14   8    0.42    0.39
  22  -8  -8    0.48    0.60
   8  14  -8    0.86    0.47
  14 -22  -8    0.43    0.52
  22 -15  -8    0.29    0.46
 -15  22   8    1.69    0.72
  22  -7   8    1.09    0.44
  -7  22  -8    0.90    0.52
  15   7  -8    0.82    0.61
   7  15   8    0.74    0.59
 -22  15   8    1.24    0.63
  22  -7  -8   -0.01    0.53
  22 -15   8    0.81    0.41
  22  -7  -8    1.26    0.48
  15 -22  -8    0.69    0.50
  -7  22   8    1.84    0.74
   7  15  -8    0.52    0.53
 -16  22   8    0.49    0.69
  16   6  -8    0.52    0.52
   6  16   8    0.40    0.45
  22  -6   8    0.56    0.34
  -6  22  -8    0.54    0.48
  22 -16  -8    0.76    0.49
  22  -6  -8    1.23    0.56
   6  16  -8   -0.74    0.44
  -6  22   8   -0.36    0.71
  16 -22  -8    0.68    0.54
  22 -16   8   -0.88    0.29
 -22  16   8   -0.24    0.52
  -5  22  -8   -0.26    0.42
   5  17   8   -0.99    0.46
 -22  17   8    0.33    0.58
  -5  22   8    1.49    0.73
   5  17  -8   -0.39    0.41
  22  -5  -8   -0.56    0.50
  23 -12  -8    0.82    0.53
 -23  11   8    0.19    0.60
 -23  12   8    0.64    0.57
  23 -11  -8   -0.42    0.40
 -23  10   8   -0.02    0.67
 -23  13   8   -0.14    0.49
   0   0  -9    0.16    0.12
   0   0   9    0.23    0.18
   1   0   9    0.04    0.11
   0   1   9   -0.02    0.13
  -1   1  -9   -0.07    0.09
   0   1   9   -0.07    0.13
   1  -1  -9   -0.06    0.12
   1   0   9   -0.13    0.15
   0  -1   9    0.16    0.15
   1   0  -9   -0.14    0.10
   1  -1   9   -0.11    0.13
  -1   0   9   -0.01    0.12
   0   1  -9    0.00    0.11
  -1  -1   9    5.78    0.59
   1  -2  -9    5.40    0.74
   1   1  -9    4.48    0.53
   2  -1  -9    3.57    0.51
   1   1   9    5.37    0.43
   2  -1  -9    5.67    0.71
   2  -1   9    5.44    0.61
   2  -1   9    5.98    0.37
   1  -2   9    5.31    0.57
  -1   2   9    5.45    0.49
   1   1   9    6.13    0.68
  -1   2  -9    5.10    0.42
  -2   2   9    0.03    0.20
   0   2  -9    0.09    0.12
   2   0   9    0.05    0.18
   0   2   9    0.10    0.17
   2  -2  -9    0.10    0.19
   0   2   9   -0.27    0.12
   0  -2   9    0.08    0.13
   2   0   9   -0.07    0.09
   2  -2   9    0.00    0.14
   2   0  -9   -0.18    0.15
  -2   2  -9    0.08    0.09
   2   0  -9   -0.20    0.12
  -1   3  -9   27.74    1.31
   2   1  -9   27.73    1.45
   3  -1   9   26.63    1.42
   1  -3  -9   26.81    1.62
   3  -2  -9   23.97    1.42
   2  -3   9   24.36    1.30
  -2   3   9   27.70    1.41
   1   2   9   25.71    1.33
   1   2   9   26.85    1.50
   3  -2  -9   27.06    1.54
   2   1  -9   25.75    1.43
  -1  -2   9   26.55    1.33
   1   2  -9   26.82    1.41
   3  -1  -9   26.27    1.49
  -2   3  -9   25.11    1.21
  -1   3   9   28.22    1.41
   3  -1  -9   25.88    1.46
   2   1   9   25.77    1.46
   2  -3  -9   25.35    1.57
   2   1   9   26.09    1.28
   1  -3   9   27.90    1.34
   3  -2   9   26.25    1.37
   3  -3  -9    0.08    0.19
   0   3   9   -0.05    0.19
   0  -3   9    0.12    0.14
  -3   3   9   -0.02    0.18
   3   0  -9   -0.01    0.16
   0   3   9    0.23    0.16
   3   0   9    0.18    0.17
   3   0   9   -0.19    0.11
  -3   3  -9   -0.01    0.08
   3  -3   9    0.30    0.17
   0   3  -9   -0.11    0.12
   3   0  -9   -0.02    0.15
   2   2   9   18.55    1.22
   2  -4  -9   19.61    1.35
   2  -4   9   19.01    1.03
   2   2  -9   19.00    1.20
   4  -2  -9   20.51    1.27
   4  -2  -9   20.40    1.26
   4  -2   9   18.77    1.13
  -2  -2   9   19.72    1.07
  -2   4  -9   19.90    1.02
  -2   4   9   18.61    1.16
   2   2   9   20.24    1.12
   1   3   9   23.83    1.42
   1  -4  -9   21.02    1.47
   3   1  -9   24.35    1.41
   1   3   9   23.57    1.32
   4  -3  -9   22.62    1.39
  -1   4  -9   24.31    1.24
   4  -3  -9   25.07    1.47
   3  -4   9   22.25    1.19
  -3   4   9   21.92    1.31
   3   1  -9   26.37    1.35
  -1  -3   9   23.05    1.17
   4  -1   9   21.59    1.28
   3   1   9   23.88    1.19
   1   3  -9   22.43    1.31
   1  -4   9   22.76    1.15
   4  -1  -9   26.43    1.42
   4  -3   9   22.78    1.25
  -3   4  -9   25.32    1.11
   3  -4  -9   24.29    1.51
   3   1   9   21.97    1.35
   4  -1  -9   23.54    1.41
  -1   4   9   21.02    1.30
   0   4   9    0.04    0.19
  -4   4  -9    0.12    0.07
  -4   4   9    0.04    0.20
   4  -4   9    0.00    0.14
   4   0   9    0.01    0.17
   0  -4   9    0.02    0.13
   4   0  -9    0.04    0.13
   4   0  -9    0.04    0.19
   0   4  -9    0.21    0.16
   4  -4  -9    0.14    0.21
   0   4   9    0.12    0.20
   4   0   9   -0.05    0.11
   2   3   9    0.82    0.29
   5  -3  -9    0.63    0.27
   2  -5  -9    0.70    0.32
  -2   5  -9    0.46    0.18
   3   2  -9    1.09    0.25
  -2  -3   9    0.71    0.21
   5  -3  -9    0.83    0.29
   3  -5   9    0.58    0.21
  -3   5   9    0.39    0.25
   5  -2   9    0.78    0.28
   2   3   9    0.41    0.27
   3   2  -9    1.12    0.33
   5  -2  -9    0.60    0.29
   2   3  -9    0.63    0.26
  -3   5  -9    0.83    0.19
   3   2   9    0.61    0.25
   3   2   9    0.58    0.24
   5  -3   9    0.68    0.27
  -2   5   9    0.68    0.28
   3  -5  -9    0.79    0.33
   5  -2  -9    0.68    0.28
   2  -5   9    0.41    0.18
   4   1  -9   67.20    2.94
   1   4   9   67.82    3.16
   4  -5   9   72.20    2.84
   1  -5  -9   56.33    3.16
   5  -4  -9   69.83    3.16
   1   4   9   66.44    3.12
  -1   5  -9   73.07    3.02
  -4   5   9   71.49    3.17
   5  -1   9   70.40    3.01
  -1  -4   9   68.61    2.76
   4   1  -9   68.00    3.22
  -1   5   9   71.09    3.22
   4  -5  -9   69.39    3.24
   4   1   9   74.14    2.89
   4   1   9   75.62    3.11
   1   4  -9   68.41    3.10
   5  -4   9   70.98    2.91
   5  -1  -9   69.20    3.24
   1  -5   9   71.96    2.75
  -4   5  -9   73.87    2.78
   5  -1  -9   66.19    3.00
   5   0  -9   -0.17    0.13
   0   5   9    0.22    0.23
   5  -5  -9    0.14    0.21
   0   5  -9   -0.07    0.14
   0   5   9    0.15    0.24
   5   0   9   -0.07    0.16
   0  -5   9    0.07    0.10
   5  -5   9   -0.21    0.10
  -5   5  -9    0.03    0.07
  -5   5   9    0.12    0.22
   5   0  -9    0.03    0.19
   6  -3  -9   34.40    1.86
  -3   6   9   36.53    1.96
   3  -6   9   37.41    1.57
   3   3   9   33.86    1.86
   3  -6  -9   37.63    2.08
   3   3  -9   30.78    1.60
  -3   6  -9   38.23    1.69
   6  -3   9   36.10    1.76
   6  -3  -9   36.13    2.01
   3   3  -9   36.19    1.95
   3   3   9   33.56    1.83
   6  -4  -9    3.09    0.59
   6  -4  -9    2.35    0.50
   4   2  -9    3.28    0.46
   4   2  -9    3.16    0.57
  -2  -4   9    4.28    0.40
   6  -2   9    4.16    0.57
   2   4   9    3.59    0.59
   2   4   9    3.58    0.60
   2  -6  -9    4.18    0.73
  -4   6   9    3.21    0.57
   4  -6   9    4.29    0.45
  -2   6  -9    3.19    0.45
   6  -4   9    4.25    0.54
   6  -2  -9    3.32    0.56
   4   2   9    5.49    0.54
   6  -2  -9    3.44    0.62
  -2   6   9    5.02    0.71
  -4   6  -9    3.27    0.36
   2   4  -9    3.40    0.56
   4  -6  -9    3.24    0.63
   4   2   9    3.42    0.56
   2  -6   9    4.31    0.36
   1  -6  -9    3.21    0.66
   6  -1   9    2.80    0.49
   1   5   9    3.55    0.64
  -5   6   9    3.02    0.54
  -1   6  -9    2.75    0.46
  -1  -5   9    3.03    0.33
   5   1  -9    3.36    0.48
   5  -6   9    2.90    0.40
   6  -5  -9    3.54    0.63
   5   1  -9    2.93    0.56
   1   5   9    3.13    0.57
  -6   5   9    3.07    0.57
   1  -6   9    3.40    0.34
   5  -6  -9    2.48    0.55
   5   1   9    3.41    0.36
  -1   6   9    3.39    0.63
   6  -1  -9    2.34    0.44
   5   1   9    2.87    0.51
   6  -5   9    3.12    0.45
   1   5  -9    2.40    0.46
   6  -1  -9    3.22    0.60
  -5   6  -9    2.54    0.29
   0   6   9    0.05    0.19
   6  -6   9    0.02    0.15
   6  -6  -9    0.53    0.28
   0   6   9    0.02    0.26
   0   6  -9   -0.23    0.15
   6   0  -9    0.22    0.27
   6   0  -9   -0.12    0.13
   6   0   9   -0.04    0.18
   0  -6   9   -0.05    0.10
  -6   6   9    0.19    0.23
   7  -4  -9    5.85    0.76
   3   4   9    5.09    0.74
   4   3  -9    5.97    0.52
  -4   7   9    5.81    0.80
   4   3  -9    7.03    0.86
   4  -7   9    6.25    0.48
  -3   7  -9    6.05    0.61
  -3  -4   9    7.00    0.48
   7  -3   9    6.64    0.70
   3  -7  -9    6.83    0.94
   3   4   9    7.22    0.81
   7  -4  -9    5.83    0.83
   3  -7   9    6.73    0.46
  -4   7  -9    6.92    0.57
   7  -4   9    6.28    0.66
   3   4  -9    6.59    0.81
   7  -3  -9    7.42    0.92
   4   3   9    6.02    0.76
   4   3   9    7.21    0.72
   4  -7  -9    6.27    0.90
  -3   7   9    7.11    0.87
   7  -3  -9    5.26    0.70
   5   2  -9   20.59    1.41
   7  -2   9   20.12    1.22
   7  -5  -9   18.81    1.39
   2   5   9   21.79    1.38
   5  -7   9   20.08    1.03
  -5   7   9   20.02    1.38
   2  -7  -9   20.09    1.48
  -2   7  -9   19.22    1.18
   2   5   9   17.86    1.35
  -2  -5   9   19.70    0.94
   5   2  -9   19.89    1.11
   7  -5  -9   21.18    1.37
   5   2   9   21.57    1.14
  -2   7   9   20.88    1.47
   7  -5   9   20.59    1.16
   2   5  -9   20.45    1.34
   5   2   9   20.09    1.27
  -5   7  -9   20.73    1.07
   7  -2  -9   19.43    1.24
   7  -2  -9   20.16    1.45
   5  -7  -9   18.88    1.40
   2  -7   9   20.80    0.94
   6  -7   9    1.03    0.27
  -6   7   9    0.98    0.35
   1   6   9    0.76    0.33
   6   1  -9    1.22    0.30
   6   1  -9    0.88    0.36
   7  -6  -9    1.89    0.48
  -1   7  -9    1.33    0.33
   7  -1   9    0.95    0.32
   1   6   9    1.41    0.43
   1  -7  -9    1.21    0.45
   6   1   9    0.94    0.35
   7  -6   9    1.25    0.30
   1   6  -9    1.17    0.37
   6  -7  -9    1.45    0.44
   7  -1  -9    1.52    0.46
  -1   7   9    0.83    0.41
   7  -1  -9    0.90    0.29
  -6   7  -9    0.99    0.20
  -7   6   9    0.76    0.36
   1  -7   9    1.21    0.19
   7   0  -9   -0.14    0.13
  -7   7   9   -0.14    0.21
   7   0   9    0.01    0.19
   0   7  -9   -0.14    0.17
   7  -7   9   -0.23    0.14
   0   7   9    0.13    0.23
   7   0  -9    0.15    0.25
   0   7   9   -0.33    0.28
   7  -7  -9    0.12    0.23
   8  -4  -9   72.00    3.53
   4   4  -9   73.69    3.45
   8  -4   9   68.23    3.03
  -4   8   9   70.74    3.50
  -4   8  -9   72.53    3.12
   8  -4  -9   76.99    3.29
   4   4  -9   76.11    2.89
   4   4   9   68.60    3.21
   4  -8  -9   73.74    3.51
   4  -8   9   69.46    2.75
   4   4   9   71.36    3.31
   3   5   9   -0.02    0.21
   8  -5  -9    0.52    0.35
   8  -5  -9    0.91    0.34
   3  -8  -9    0.28    0.33
   8  -3   9    0.59    0.27
  -3   8  -9    0.64    0.24
  -5   8   9    0.50    0.30
   5  -8   9    0.38    0.18
   5   3  -9    0.74    0.21
   5   3  -9    0.54    0.32
   3   5   9    0.20    0.32
   5   3   9    0.10    0.22
   3  -8   9    0.44    0.14
   8  -3  -9    0.30    0.30
   8  -5   9    0.26    0.22
   3   5  -9   -0.04    0.20
   5   3   9    0.27    0.21
  -5   8  -9    0.55    0.21
  -3   8   9    0.50    0.35
   5  -8  -9    0.27    0.30
   8  -3  -9    0.11    0.21
   8  -6  -9    1.12    0.39
   8  -2   9    1.04    0.34
  -6   8   9    1.69    0.45
   6   2  -9    1.14    0.39
  -2   8  -9    0.87    0.28
   6  -8   9    1.38    0.28
   2   6   9    1.07    0.45
   2  -8  -9    1.56    0.49
   2   6   9    1.13    0.39
   6   2  -9    1.00    0.24
   8  -6   9    0.86    0.28
   6  -8  -9    1.23    0.42
  -8   6   9    1.34    0.48
  -2   8   9    1.26    0.45
   8  -2  -9    0.97    0.41
   8  -2  -9    1.62    0.38
  -6   8  -9    1.12    0.25
   2   6  -9    1.46    0.41
   6   2   9    1.32    0.38
   8  -7  -9   15.01    1.23
   7  -8   9   17.63    0.95
   1   7   9   19.40    1.32
   1   7   9   19.31    1.51
  -1   8  -9   16.67    1.17
   7   1  -9   17.97    1.39
   7   1  -9   16.46    1.05
  -7   8   9   17.03    1.32
   8  -1   9   17.37    1.15
   1   7  -9   18.17    1.26
   7  -8  -9   19.66    1.39
   7   1   9   17.90    1.19
   8  -1  -9   17.09    1.37
  -8   7   9   18.73    1.36
   8  -1  -9   17.17    1.13
   8  -7   9   17.85    1.01
  -1   8   9   18.21    1.49
   0   8   9   -0.20    0.17
   8   0  -9    0.03    0.28
   0   8   9   -0.07    0.33
   8   0  -9    0.05    0.16
  -8   8   9    0.12    0.26
   8  -8  -9    0.10    0.22
   0   8  -9   -0.11    0.16
   8   0   9    0.40    0.27
   8  -8   9   -0.12    0.13
   4   5   9    5.60    0.81
  -5   9   9    6.85    0.96
   5   4  -9    7.65    0.95
   5  -9   9    6.13    0.44
   4  -9  -9    5.16    0.89
   9  -5  -9    5.97    0.93
   4   5   9    7.50    0.86
  -4   9  -9    6.69    0.69
   9  -5  -9    5.22    0.77
   9  -4   9    4.99    0.64
   9  -4  -9    6.63    0.96
   5  -9  -9    6.57    0.96
   4  -9   9    6.26    0.41
   5   4   9    6.02    0.79
   4   5  -9    6.29    0.88
   5   4   9    6.02    0.73
  -5   9  -9    5.96    0.64
   9  -5   9    6.14    0.66
   9  -4  -9    6.18    0.79
  -4   9   9    6.84    0.98
   6   3  -9    6.32    0.93
   9  -6  -9    5.03    0.78
   6   3  -9    6.89    0.55
   3   6   9    6.63    0.92
   3  -9  -9    6.22    0.95
   9  -6  -9    7.94    1.03
  -6   9   9    6.84    0.95
   6  -9   9    7.02    0.50
   9  -3   9    6.96    0.75
  -3   9  -9    7.83    0.70
   3   6   9    6.26    0.81
   6  -9  -9    6.80    0.97
  -3   9   9    7.24    1.03
   6   3   9    6.59    0.81
   6   3   9    6.85    0.62
   9  -3  -9    6.26    0.77
   9  -3  -9    6.32    0.95
  -6   9  -9    7.11    0.62
   9  -6   9    7.33    0.64
   3   6  -9    5.96    0.83
  -2   9  -9    2.95    0.52
   9  -2   9    2.68    0.49
   7   2  -9    2.57    0.41
  -7   9   9    2.94    0.65
   7   2  -9    3.24    0.66
   2   7   9    2.43    0.53
   2  -9  -9    3.15    0.69
   2   7   9    2.45    0.64
   7  -9   9    3.16    0.39
   9  -7  -9    3.39    0.64
   2   7  -9    3.08    0.57
   7  -9  -9    3.22    0.69
  -9   7   9    1.93    0.54
   7   2   9    2.76    0.54
   9  -7   9    2.70    0.43
   9  -2  -9    2.68    0.52
  -2   9   9    3.51    0.78
   9  -2  -9    2.52    0.63
   1   8   9    1.03    0.38
   9  -8  -9    1.05    0.44
   8   1  -9    1.53    0.31
   8  -9   9    1.11    0.27
   9  -1   9    1.39    0.38
   1   8   9    1.68    0.61
  -1   9  -9    1.38    0.39
  -8   9   9    1.30    0.47
   8   1  -9    1.84    0.56
   1   8  -9    0.26    0.24
   9  -8   9    1.02    0.28
   8  -9  -9    0.66    0.36
   9  -1  -9    1.20    0.42
   8   1   9    1.23    0.38
   9  -1  -9    1.38    0.36
  -1   9   9    1.51    0.57
  -9   8   9    1.18    0.48
   9   0   9   -0.24    0.15
   9   0  -9    0.45    0.31
   9  -9   9   -0.04    0.16
   9  -9  -9    0.48    0.32
   0   9  -9   -0.01    0.22
  -9   9   9   -0.28    0.28
   0   9   9    0.21    0.26
   0   9   9   -0.66    0.31
   9   0  -9   -0.16    0.15
   5 -10  -9   19.04    1.45
  10  -5  -9   17.07    1.20
  -5  10  -9   14.56    1.07
   5   5  -9   15.16    1.28
  10  -5  -9   14.56    1.31
  -5  10   9   15.78    1.40
   5   5   9   13.79    1.11
  10  -5   9   17.64    1.07
   5   5   9   15.66    1.18
   4   6   9    0.76    0.33
   6   4  -9    0.56    0.35
  10  -4   9    1.53    0.36
  10  -6  -9    0.56    0.43
   4   6   9    1.02    0.42
   4 -10  -9    1.53    0.52
   6 -10   9    1.02    0.22
  -4  10  -9    0.53    0.28
  -6  10   9    1.29    0.48
  10  -6  -9    1.28    0.43
  -6  10  -9    1.42    0.35
   4   6  -9    1.11    0.39
   6 -10  -9    1.59    0.53
  10  -4  -9    1.27    0.48
   6   4   9    1.00    0.37
  10  -6   9    1.38    0.35
   6   4   9    1.15    0.39
  -4  10   9    1.45    0.54
  10  -4  -9    1.02    0.33
  -7  10   9    5.85    0.91
   3   7   9    5.10    0.87
   7   3  -9    3.85    0.77
   7 -10   9    4.13    0.41
  -3  10  -9    4.56    0.67
   3 -10  -9    5.40    0.91
   3   7   9    4.12    0.68
  10  -7  -9    3.10    0.63
  10  -3   9    4.31    0.61
  10  -3  -9    5.45    0.73
  -3  10   9    4.49    0.89
   7 -10  -9    5.11    0.86
   3   7  -9    4.55    0.75
  10  -7   9    4.01    0.54
   7   3   9    4.12    0.64
 -10   7   9    3.56    0.78
  10  -3  -9    3.73    0.73
  -7  10  -9    4.75    0.60
   2   8   9    2.55    0.67
   8 -10   9    2.59    0.35
   8   2  -9    1.63    0.54
   8   2  -9    1.41    0.33
  -2  10  -9    2.68    0.55
  10  -2   9    2.18    0.45
   2 -10  -9    3.33    0.75
   2   8   9    2.40    0.53
  -8  10   9    2.06    0.59
  10  -8  -9    1.97    0.53
  10  -8   9    2.19    0.40
  10  -2  -9    2.05    0.58
  10  -2  -9    2.27    0.46
  -2  10   9    2.81    0.77
   2   8  -9    2.08    0.52
   8   2   9    1.89    0.45
   8 -10  -9    1.55    0.52
 -10   8   9    2.52    0.62
  10  -1   9    0.91    0.32
   9   1  -9    0.52    0.38
   1   9   9    0.67    0.30
   1   9   9    0.96    0.48
  -1  10  -9    0.64    0.34
   9 -10   9    1.29    0.28
   9   1  -9    0.31    0.21
  10  -9  -9    0.68    0.38
  -9  10   9    1.18    0.48
  10  -9   9    0.75    0.26
  10  -1  -9    0.77    0.39
   1   9  -9    0.56    0.31
 -10   9   9    1.08    0.47
   9   1   9    0.48    0.26
  -1  10   9    0.37    0.46
   9 -10  -9    1.34    0.47
  -1  10   9    0.63    0.32
  10  -1  -9    0.81    0.29
   0  10   9    0.23    0.25
   0  10  -9   -0.38    0.19
  10 -10   9   -0.08    0.14
 -10  10   9   -0.17    0.32
  10 -10  -9   -0.37    0.23
  10   0   9   -0.15    0.14
  10   0  -9    0.07    0.28
   0  10   9   -0.23    0.37
  -5  11  -9   10.19    0.91
   6   5  -9   10.89    1.22
  11  -6  -9   10.87    1.10
  11  -6  -9   10.82    1.28
  -6  11   9   12.50    1.38
  11  -5   9   10.30    0.81
   5   6   9   11.22    1.08
   5   6   9    9.85    1.07
   5 -11  -9   12.10    1.35
   5   6  -9   10.48    1.19
   6   5   9   10.36    1.02
  11  -5  -9    7.42    0.94
  -6  11  -9   10.49    0.90
  11  -5  -9   10.04    1.25
   6 -11  -9   12.81    1.36
   6   5   9    9.19    0.98
  11  -6   9   11.97    0.85
  -5  11   9   11.51    1.39
   4   7   9    5.27    0.88
  -4  11  -9    5.19    0.73
   4   7   9    6.54    0.85
  11  -4   9    4.79    0.63
   7 -11   9    5.01    0.42
   7   4  -9    6.26    0.97
  -7  11   9    5.92    0.99
   4 -11  -9    4.42    0.85
  11  -7  -9    5.58    0.84
  11  -7   9    5.80    0.63
  11  -4  -9    5.74    0.93
  11  -4  -9    4.38    0.69
   7   4   9    5.78    0.75
   4   7  -9    6.34    0.92
  -4  11   9    4.85    0.91
  -7  11  -9    5.04    0.70
   7 -11  -9    5.88    0.94
  -3  11  -9    4.23    0.67
  -8  11   9    3.53    0.76
   3   8   9    3.66    0.67
  11  -8  -9    3.43    0.69
   3   8   9    2.98    0.74
   8   3  -9    3.90    0.79
  11  -3   9    5.00    0.66
   3 -11  -9    5.02    0.92
   8 -11   9    4.28    0.45
   3   8  -9    4.37    0.75
  11  -8   9    3.20    0.48
  11  -3  -9    4.06    0.64
 -11   8   9    3.67    0.76
  -3  11   9    4.66    0.92
  11  -3  -9    5.15    0.87
   8 -11  -9    5.45    0.88
   8   3   9    3.19    0.56
   9   2  -9    0.50    0.39
   2   9   9    1.00    0.47
   9 -11   9    1.12    0.27
   2 -11  -9    1.11    0.52
  -2  11  -9    1.18    0.39
  -9  11   9    0.36    0.36
  11  -2   9    1.05    0.31
   2   9   9    0.34    0.29
  11  -9  -9    0.77    0.35
 -11   9   9    1.40    0.57
  11  -9   9    0.45    0.24
   9   2   9    0.45    0.27
   9 -11  -9    0.85    0.42
  11  -2  -9    0.86    0.46
  11  -2  -9    1.24    0.36
   2   9  -9    0.85    0.36
  -2  11   9    0.92    0.50
   1  10   9    7.66    0.97
  -1  11  -9    7.71    0.95
 -10  11   9    8.10    1.16
  10   1  -9    7.63    1.13
  11 -10  -9    8.43    1.13
  10 -11   9    7.82    0.61
   1  10   9    9.46    1.37
  11  -1   9    7.24    0.83
  10 -11  -9    8.87    1.16
  -1  11   9    7.19    0.97
  11 -10   9    7.77    0.63
   1  10  -9    9.40    1.06
 -11  10   9    7.51    1.08
  11  -1  -9    7.66    0.84
  11  -1  -9    6.91    1.08
  10   1   9    8.50    0.88
  -1  11   9    8.83    1.34
  11   0   9   -0.05    0.19
   0  11   9   -0.05    0.23
   0  11  -9   -0.10    0.22
  11 -11   9   -0.13    0.15
  11   0  -9    0.15    0.30
  11 -11  -9   -0.11    0.26
  11   0  -9   -0.08    0.17
   0  11   9    0.01    0.38
 -11  11   9   -0.21    0.28
   6   6   9    6.05    0.80
  12  -6   9    6.43    0.70
   6   6   9    5.26    0.81
  12  -6  -9    5.06    0.78
   6 -12  -9    6.19    1.04
  -6  12  -9    5.51    0.79
  12  -6  -9    5.07    0.93
   6   6  -9    5.19    0.92
  -6  12   9    5.22    1.02
  -7  12   9    8.05    1.21
  12  -7  -9    6.93    0.96
  12  -7  -9    8.51    1.21
   7   5  -9    8.09    1.12
   5   7   9    6.56    0.96
   5   7   9    7.33    0.92
  12  -5   9    7.93    0.79
   5 -12  -9    8.25    1.17
  -5  12  -9    6.89    0.89
  12  -5  -9    8.73    0.98
   7   5   9    7.56    0.89
   7 -12  -9    9.31    1.20
  -5  12   9    9.50    1.34
  12  -7   9    8.85    0.73
   5   7  -9    9.05    1.12
  -7  12  -9    7.32    0.88
  12  -5  -9    7.73    1.15
   4   8   9   11.67    1.38
  -8  12   9   18.61    1.59
  12  -8  -9   16.75    1.32
   4 -12  -9   16.80    1.46
  12  -4   9   17.56    1.11
   4   8   9   16.68    1.25
   8   4  -9   14.47    1.52
  -4  12  -9   13.90    1.16
   8 -12   9   13.13    0.87
 -12   8   9   17.11    1.46
   4   8  -9   15.02    1.32
   8   4   9   16.85    1.19
  12  -8   9   17.79    1.06
  12  -4  -9   15.70    1.60
  12  -4  -9   15.39    1.20
  -4  12   9   17.08    1.82
   8 -12  -9   15.01    1.52
   3 -12  -9    0.86    0.49
  12  -3   9    1.04    0.34
   9   3  -9    0.80    0.43
  12  -9  -9    0.96    0.43
   9 -12   9    1.16    0.29
  -9  12   9    1.42    0.50
  -3  12  -9    0.39    0.29
   3   9   9    1.33    0.43
   3   9   9    0.61    0.42
  12  -3  -9    1.19    0.36
  -3  12   9    0.84    0.50
   9   3   9    0.59    0.27
  12  -3  -9    0.54    0.41
  12  -9   9    0.84    0.27
   9 -12  -9    1.88    0.57
   3   9  -9    0.81    0.38
 -12   9   9    1.04    0.49
  12 -10  -9    1.44    0.50
   2  10   9    2.04    0.50
  10 -12   9    1.43    0.33
  12  -2   9    1.09    0.35
  -2  12  -9    1.19    0.41
  10   2  -9    1.10    0.56
 -10  12   9    1.22    0.54
   2  10   9    1.54    0.56
 -12  10   9    1.26    0.57
  10   2   9    1.79    0.45
  12 -10   9    1.20    0.30
  12  -2  -9    1.55    0.57
  12  -2  -9    0.68    0.31
  -2  12   9    1.25    0.55
   2  10  -9    1.31    0.47
  10 -12  -9    0.93    0.46
 -11  12   9    0.81    0.46
  12 -11  -9    0.12    0.31
  11 -12   9    0.61    0.26
  -1  12  -9    0.85    0.39
  11   1  -9    0.95    0.51
   1  11   9    0.83    0.45
   1  11   9    0.45    0.30
  12  -1   9    0.98    0.34
  12  -1  -9    0.67    0.30
  11 -12  -9    0.31    0.36
   1  11  -9    0.83    0.37
  12 -11   9    0.45    0.25
  -1  12   9    0.15    0.47
  -1  12   9    0.44    0.34
 -12  11   9    1.23    0.53
  11   1   9    0.44    0.29
  12  -1  -9    1.08    0.46
   0  12   9    0.00    0.26
   0  12  -9   -0.29    0.40
  12 -12   9    0.00    0.17
  12   0   9    0.10    0.21
  12 -12  -9   -0.24    0.27
  12   0  -9   -0.60    0.30
   0  12   9    0.34    0.39
 -12  12   9    0.16    0.45
  13  -6   9    1.06    0.34
   6   7   9    1.52    0.43
   6 -13  -9    1.86    0.59
  13  -7  -9    0.52    0.45
   7   6  -9    1.23    0.52
  -6  13  -9    0.93    0.35
  13  -7  -9    1.60    0.49
   6   7   9    0.64    0.40
  -7  13   9    1.44    0.68
   7   6   9    1.32    0.41
  -6  13   9    0.97    0.49
  -7  13  -9    1.04    0.35
   6   7  -9    1.83    0.54
   7 -13  -9    1.35    0.52
  13  -6  -9    0.88    0.36
  13  -6  -9    1.72    0.58
  13  -7   9    1.10    0.33
  13  -5   9   11.93    0.91
  13  -8  -9   11.35    1.23
   5 -13  -9   12.49    1.43
   5   8   9   12.15    1.28
   5   8   9   11.14    1.13
  -5  13  -9    9.39    1.08
   8   5  -9   11.80    1.41
  -8  13   9   12.01    1.53
   8 -13  -9   12.78    1.43
  13  -5  -9   11.23    1.42
  13  -8   9   10.45    0.82
  -5  13   9   13.76    1.70
   5   8  -9   12.21    1.34
   8   5   9   10.79    0.95
  13  -5  -9    9.76    1.10
   4   9   9    1.19    0.37
   4 -13  -9    1.45    0.55
  -9  13   9    0.70    0.44
   4   9   9    0.96    0.50
   9   4  -9    0.40    0.41
  -4  13  -9   -0.01    0.26
  13  -4   9    1.38    0.38
  13  -9  -9    0.54    0.35
  13  -4  -9    1.09    0.41
   9 -13  -9    0.53    0.35
  13  -9   9    0.64    0.27
  13  -4  -9    0.80    0.43
  -4  13   9    0.65    0.48
   9   4   9    0.42    0.26
   4   9  -9    0.93    0.38
 -13   9   9    0.53    0.50
  -3  13  -9    7.75    1.01
  13  -3   9    6.72    0.78
  10   3  -9    7.96    1.20
   3  10   9    7.63    1.19
  13 -10  -9    9.46    1.18
  10 -13   9    7.84    0.75
   3 -13  -9    7.23    1.11
 -10  13   9    7.86    1.24
   3  10   9    6.09    0.88
  13 -10   9    6.95    0.70
  10 -13  -9    8.01    1.14
  13  -3  -9    6.54    1.10
  13  -3  -9    6.77    0.89
  -3  13   9    6.47    1.23
   3  10  -9    7.67    1.07
  10   3   9    8.02    0.90
 -13  10   9    7.75    1.17
 -11  13   9    1.00    0.52
  -2  13  -9    0.52    0.30
  11 -13   9    0.18    0.30
  11   2  -9    0.09    0.37
   2  11   9    0.42    0.40
   2  11   9    0.01    0.27
  13  -2   9    0.63    0.28
  13 -11  -9    0.29    0.30
  -2  13   9    0.06    0.37
  13 -11   9    0.58    0.25
   2  11  -9    0.13    0.28
  13  -2  -9    0.43    0.26
  -2  13   9    0.35    0.33
 -13  11   9    0.46    0.47
  11 -13  -9   -0.13    0.25
  13  -2  -9    0.33    0.36
  11   2   9    0.50    0.31
  -1  13  -9    4.19    0.79
   1  12   9    4.89    0.81
  12 -13   9    5.39    0.70
  12   1  -9    5.48    1.05
 -12  13   9    4.39    0.94
  13  -1   9    4.31    0.65
  13 -12  -9    4.95    0.94
   1  12   9    6.87    1.18
  13  -1  -9    3.76    0.87
  -1  13   9    5.24    0.86
  13  -1  -9    4.74    0.73
  12 -13  -9    4.04    0.87
  13 -12   9    5.03    0.65
  -1  13   9    5.13    1.10
  12   1   9    5.83    0.76
   1  12  -9    4.20    0.83
 -13  12   9    5.40    1.02
   0  13   9    0.43    0.49
 -13  13   9    0.01    0.40
  13 -13  -9    0.76    0.43
   0  13   9    0.15    0.28
  13 -13   9   -0.07    0.29
  13   0  -9   -0.43    0.35
   0  13  -9   -0.10    0.40
  13   0   9    0.22    0.24
  14  -7  -9    0.82    0.47
   7 -14  -9   -0.05    0.31
  14  -7  -9    0.67    0.35
   7   7   9    1.02    0.36
   7   7  -9    0.48    0.39
  14  -7   9    0.56    0.31
  -7  14  -9    0.50    0.31
  -7  14   9    0.85    0.53
   6 -14  -9    2.25    0.63
   6   8   9    1.32    0.44
  14  -8  -9    0.89    0.54
  14  -6   9    1.27    0.37
  -6  14  -9    1.10    0.49
  14  -8  -9    1.38    0.47
   8   6  -9    1.70    0.57
  -8  14   9    1.18    0.59
   6   8   9    0.78    0.46
  14  -6  -9    1.96    0.61
  14  -6  -9    1.06    0.41
  -6  14   9    1.25    0.58
  14  -8   9    1.23    0.36
   8   6   9    1.65    0.43
   8 -14  -9    1.16    0.54
   6   8  -9    1.12    0.47
  14  -5   9    1.71    0.42
   9   5  -9    1.17    0.54
   5   9   9    1.52    0.52
  14  -9  -9    2.74    0.65
   5   9   9    1.79    0.50
  -9  14   9    2.22    0.72
   5 -14  -9    2.17    0.69
  -5  14  -9    1.33    0.46
   5   9  -9    1.26    0.52
   9   5   9    1.61    0.44
  14  -5  -9    2.41    0.68
 -14   9   9    1.78    0.66
  14  -9   9    2.04    0.44
  14  -5  -9    1.93    0.51
  -5  14   9    2.38    0.77
   9 -14  -9    3.05    0.71
   4  10   9    2.09    0.53
 -10  14   9    2.00    0.70
  14 -10  -9    2.64    0.63
  10   4  -9    2.77    0.78
  -4  14  -9    2.21    0.54
   4 -14  -9    1.60    0.66
   4  10   9    1.85    0.63
  14  -4   9    2.08    0.46
  14  -4  -9    2.61    0.59
  -4  14   9    2.49    0.78
   4  10  -9    2.84    0.72
 -14  10   9    3.18    0.79
  10   4   9    2.27    0.51
  10 -14  -9    1.76    0.62
  14  -4  -9    2.07    0.64
  14 -10   9    2.58    0.45
   3  11   9    2.07    0.51
  14 -11  -9    2.31    0.65
   3 -14  -9    1.08    0.57
  -3  14  -9    2.00    0.57
   3  11   9    1.30    0.58
  14  -3   9    2.05    0.46
 -11  14   9    1.86    0.69
  11 -14   9    2.61    0.49
  11   3  -9    1.07    0.48
  14  -3  -9    2.41    0.72
  11   3   9    1.48    0.39
 -14  11   9    1.30    0.62
  11 -14  -9    1.29    0.55
  -3  14   9    2.20    0.80
   3  11  -9    1.98    0.59
  14 -11   9    1.63    0.41
  14  -3  -9    1.30    0.41
  14 -12  -9   -0.14    0.34
  12   2  -9    0.24    0.38
 -12  14   9    0.47    0.49
  -2  14  -9   -0.02    0.27
  14  -2   9   -0.13    0.20
   2  12   9   -0.07    0.22
  12 -14   9    0.26    0.29
   2  12   9    0.85    0.47
  12 -14  -9   -0.28    0.28
 -14  12   9    0.00    0.42
   2  12  -9    0.49    0.34
  -2  14   9    0.32    0.42
  12   2   9    0.40    0.27
  -2  14   9    0.03    0.27
  14  -2  -9   -0.31    0.19
  14 -12   9   -0.11    0.18
  14  -2  -9    0.86    0.49
 -13  14   9    0.63    0.52
  14  -1   9    0.14    0.23
   1  13   9   -0.58    0.40
  13 -14   9    0.32    0.29
   1  13   9   -0.23    0.26
  -1  14  -9   -0.26    0.27
  13   1  -9   -0.01    0.36
 -14  13   9    0.12    0.43
  14 -13   9    0.15    0.35
  -1  14   9    0.19    0.30
   1  13  -9    0.09    0.33
  -1  14   9    1.40    0.55
  13 -14  -9    0.77    0.38
  13   1   9    0.21    0.25
  14  -1  -9   -0.12    0.34
  14   0  -9    0.39    0.43
 -14  14   9   -0.02    0.35
   0  14   9   -0.26    0.24
   0  14   9   -0.14    0.41
  14 -14  -9    0.14    0.35
   0  14  -9   -0.04    0.30
  14 -14   9    0.09    0.29
  14   0   9   -0.07    0.21
  15  -7   9    2.13    0.45
  -8  15   9    0.59    0.52
   8   7  -9    1.63    0.61
   7   8   9    1.57    0.43
   7 -15  -9    3.16    0.77
  -7  15  -9    1.80    0.51
  15  -8  -9    1.82    0.66
  15  -8  -9    1.94    0.57
   8   7   9    1.72    0.48
   7   8  -9    2.30    0.67
   8 -15  -9    3.47    0.81
  15  -8   9    2.21    0.46
  -7  15   9    2.11    0.81
  15  -7  -9    2.07    0.58
  15  -7  -9    2.43    0.70
   6 -15  -9    2.96    0.75
  15  -9  -9    2.75    0.66
   9   6  -9    3.48    0.82
   6   9   9    2.83    0.64
  -6  15  -9    3.77    0.75
  -9  15   9    3.49    0.91
   6   9   9    3.09    0.62
  15  -6   9    2.26    0.50
   9 -15  -9    3.56    0.81
  -6  15   9    2.49    0.85
  15  -6  -9    4.19    0.89
 -15   9   9    3.08    0.86
   9   6   9    3.22    0.59
   6   9  -9    2.18    0.61
  15  -6  -9    2.54    0.58
   5  10   9    2.63    0.56
  15  -5   9    3.24    0.57
   5  10   9    1.99    0.57
   5 -15  -9    1.70    0.62
  10   5  -9    1.45    0.61
  -5  15  -9    2.25    0.64
  15 -10  -9    2.21    0.60
 -10  15   9    1.86    0.68
  -5  15   9    4.33    1.07
  15 -10   9    1.54    0.39
  10 -15  -9    1.99    0.66
  15  -5  -9    2.89    0.76
   5  10  -9    2.40    0.67
  10   5   9    1.64    0.47
  15  -5  -9    2.13    0.54
 -15  10   9    2.67    0.79
  -4  15  -9    3.27    0.69
  15 -11  -9    2.85    0.70
   4  11   9    2.21    0.53
   4 -15  -9    3.93    0.82
  11   4  -9    3.28    0.81
   4  11   9    3.76    0.81
  15  -4   9    2.05    0.45
 -11  15   9    2.17    0.75
  15 -11   9    3.09    0.53
  11 -15  -9    3.16    0.74
   4  11  -9    1.94    0.61
  11   4   9    2.33    0.51
  -4  15   9    3.10    0.91
  15  -4  -9    3.38    0.67
 -15  11   9    2.06    0.73
  15  -4  -9    3.22    0.84
  15  -3   9    0.18    0.21
   3  12   9    0.37    0.30
  15 -12  -9    1.07    0.47
 -12  15   9    0.58    0.54
  12   3  -9    0.13    0.37
   3  12   9    1.18    0.53
  -3  15  -9    0.17    0.32
 -15  12   9    0.67    0.53
  15  -3  -9    0.45    0.41
  12 -15  -9    0.47    0.40
  15  -3  -9    0.52    0.29
   3  12  -9    0.33    0.33
  15 -12   9    0.27    0.26
  -3  15   9    0.34    0.57
  12   3   9    0.08    0.25
  13 -15   9    4.89    0.70
  15 -13  -9    3.74    0.89
   2  13   9    4.79    0.82
  -2  15  -9    3.54    0.76
  15  -2   9    4.06    0.64
 -13  15   9    5.36    1.08
   2  13   9    5.39    1.13
  13   2  -9    4.74    1.02
  -2  15   9    5.35    1.17
  13   2   9    4.60    0.72
   2  13  -9    4.80    0.90
  -2  15   9    5.36    0.88
  13 -15  -9    4.09    0.91
  15  -2  -9    4.13    0.93
  15 -13   9    4.32    0.71
 -15  13   9    4.80    1.04
   1  14   9    0.83    0.50
  15  -1   9    1.47    0.43
  14   1  -9    1.01    0.55
  14 -15   9    0.91    0.40
  15 -14  -9    1.52    0.58
  -1  15  -9    0.64    0.40
 -14  15   9    0.01    0.47
   1  14   9    1.83    0.50
 -15  14   9    1.14    0.61
  15  -1  -9    0.47    0.53
  -1  15   9    2.04    0.79
   1  14  -9    0.87    0.47
  -1  15   9    1.41    0.47
  14 -15  -9    0.98    0.44
  14   1   9    1.42    0.43
  15 -14   9    1.20    0.45
 -15  15   9   -0.24    0.45
  15 -15  -9    0.00    0.31
   0  15   9   -0.47    0.45
  15   0   9   -0.17    0.19
   0  15   9    0.17    0.31
   0  15  -9    0.27    0.34
  15   0  -9   -0.24    0.33
  15 -15   9    0.13    0.36
   8 -16  -9    4.55    0.95
  16  -8   9    4.38    0.63
  16  -8  -9    4.65    0.86
   8   8  -9    5.41    1.04
   8   8   9    5.38    0.79
  -8  16   9    5.54    1.21
  16  -8  -9    5.53    1.10
   7 -16  -9    1.49    0.57
  -7  16  -9    1.83    0.56
  16  -7   9    1.30    0.39
   7   9   9    1.37    0.41
  16  -9  -9    1.10    0.52
  -9  16   9    1.16    0.62
   9   7  -9    1.43    0.63
  16  -7  -9    1.29    0.58
   9 -16  -9    0.53    0.43
  -7  16   9    1.13    0.59
   9   7   9    1.78    0.45
   7   9  -9    0.94    0.48
 -16   9   9    2.46    0.80
  16  -9   9    1.78    0.42
  16  -7  -9    1.37    0.50
 -10  16   9    1.08    0.60
  -6  16  -9   -0.23    0.29
  16  -6   9    0.21    0.25
  16 -10  -9    0.11    0.27
   6  10   9    0.61    0.43
   6  10   9    0.16    0.24
  10   6  -9    0.25    0.44
   6 -16  -9   -0.14    0.42
  16  -6  -9   -0.14    0.23
  16 -10   9    0.09    0.23
  -6  16   9    0.84    0.54
  10   6   9    0.09    0.21
  16  -6  -9   -0.26    0.40
  10 -16  -9    0.69    0.47
   6  10  -9    0.18    0.35
 -16  10   9    0.21    0.46
  -5  16  -9    2.43    0.63
   5  11   9    1.40    0.45
 -11  16   9    3.11    0.84
   5 -16  -9    3.27    0.78
  11   5  -9    1.66    0.67
   5  11   9    2.95    0.74
  16 -11  -9    2.82    0.71
  16  -5   9    2.04    0.47
  11 -16  -9    2.57    0.65
   5  11  -9    1.37    0.54
  16 -11   9    2.84    0.52
 -16  11   9    2.67    0.73
  16  -5  -9    1.82    0.54
  16  -5  -9    2.01    0.71
  -5  16   9    3.32    0.99
  11   5   9    2.02    0.47
  16 -12  -9    6.31    1.08
   4 -16  -9    8.86    1.30
   4  12   9    9.05    1.09
  16  -4   9    7.24    0.85
 -12  16   9    7.51    1.35
  12   4  -9    6.99    1.24
  -4  16  -9    5.63    0.96
  -4  16   9    6.03    1.33
  16  -4  -9    7.43    1.24
  12 -16  -9    5.86    1.03
  16 -12   9    7.50    0.87
  16  -4  -9    8.16    1.07
   4  12  -9    7.96    1.20
 -16  12   9    7.87    1.25
  12   4   9    7.07    0.88
  16 -13  -9    1.50    0.59
  16  -3   9    2.28    0.50
  13   3  -9    3.12    0.87
   3  13   9    2.57    0.57
   3  13   9    3.36    0.87
 -13  16   9    3.62    0.91
  -3  16  -9    2.87    0.71
  16 -13   9    4.01    0.71
  13 -16  -9    2.98    0.80
  16  -3  -9    3.01    0.78
 -16  13   9    2.38    0.72
  -3  16   9    3.44    1.01
  13   3   9    2.47    0.50
   3  13  -9    1.77    0.61
  16  -3  -9    2.76    0.62
  -3  16   9    3.30    0.76
  16 -14  -9    0.78    0.43
  14   2  -9    0.28    0.47
 -14  16   9    0.89    0.59
  -2  16  -9    0.34    0.36
   2  14   9    0.74    0.39
  16  -2   9    0.63    0.31
   2  14   9    0.38    0.54
  -2  16   9    1.10    0.66
  14   2   9    0.18    0.28
  16 -14   9    0.66    0.39
   2  14  -9    0.73    0.40
  16  -2  -9    0.32    0.46
  14 -16  -9    0.47    0.45
  -2  16   9    0.93    0.42
 -16  14   9   -0.14    0.38
  -1  16  -9    4.20    0.90
 -15  16   9    4.19    1.00
   1  15   9    5.29    1.17
  16 -15  -9    5.21    1.01
  15 -16   9    4.35    0.70
   1  15   9    5.14    0.86
  15   1  -9    4.23    0.94
  16  -1   9    3.68    0.63
  15   1   9    4.58    0.68
  15 -16  -9    5.03    1.00
  -1  16   9    4.72    1.15
 -16  15   9    3.95    0.97
   1  15  -9    4.31    0.89
  -1  16   9    4.10    0.77
  16  -1  -9    4.32    1.03
  16 -15   9    3.71    0.71
   0  16  -9    0.04    0.52
   0  16   9    0.50    0.35
  16   0  -9   -0.40    0.40
   0  16   9   -0.56    0.49
 -16  16   9    0.61    0.47
  16 -16  -9   -0.28    0.41
  16 -16   9    0.14    0.29
  16   0   9    0.00    0.21
  -9  17   9    0.56    0.61
   9   8  -9    0.44    0.44
  17  -9  -9    0.20    0.36
  17  -8   9    0.13    0.23
   8 -17  -9    0.01    0.37
   8   9   9    0.23    0.28
  -8  17   9    0.47    0.56
  17  -8  -9    0.80    0.42
   9   8   9    0.40    0.31
  17  -9   9    0.09    0.27
   8   9  -9    0.45    0.42
   9 -17  -9   -0.01    0.37
  17  -8  -9    0.75    0.47
  10   7  -9    0.82    0.51
 -10  17   9    0.61    0.55
   7 -17  -9    0.38    0.50
   7  10   9    0.59    0.30
  17 -10  -9    0.19    0.37
  -7  17  -9    1.09    0.44
  17  -7   9    0.31    0.26
  -7  17   9    1.28    0.62
   7  10  -9    0.07    0.34
  17  -7  -9    0.75    0.50
  17  -7  -9   -0.06    0.32
 -17  10   9    0.40    0.48
  10 -17  -9   -0.40    0.32
  17 -10   9    0.33    0.26
  10   7   9    0.12    0.27
   6 -17  -9    4.37    0.91
 -11  17   9    3.40    1.00
   6  11   9    2.61    0.59
  17 -11  -9    3.47    0.84
   6  11   9    2.98    0.75
  -6  17  -9    2.17    0.60
  17  -6   9    2.64    0.50
  11   6  -9    3.04    0.87
  -6  17   9    2.70    0.97
  11   6   9    3.29    0.61
  17  -6  -9    3.47    0.91
  17  -6  -9    2.68    0.66
  17 -11   9    2.67    0.57
  11 -17  -9    2.47    0.70
   6  11  -9    3.38    0.79
 -17  11   9    2.77    0.80
 -12  17   9    1.17    0.64
   5  12   9    0.69    0.53
   5  12   9    0.66    0.34
  -5  17  -9    0.13    0.42
   5 -17  -9    0.72    0.48
  17  -5   9    0.99    0.36
  17 -12  -9    0.83    0.48
  12   5  -9    0.66    0.49
  12   5   9    0.52    0.25
  17  -5  -9    0.96    0.41
  -5  17   9    1.99    0.77
  17 -12   9    0.66    0.32
  12 -17  -9    0.52    0.42
 -17  12   9    0.95    0.55
  17  -5  -9    1.51    0.58
   5  12  -9    0.82    0.48
  -4  17  -9    5.63    0.99
  17 -13  -9    4.85    0.98
  17  -4   9    4.50    0.67
 -13  17   9    4.38    1.08
   4  13   9    4.57    0.81
  13   4  -9    3.41    0.93
   4  13   9    5.15    1.06
  17  -4  -9    2.90    0.82
  -4  17   9    4.97    1.22
  17 -13   9    5.11    0.80
  17  -4  -9    4.99    0.87
 -17  13   9    5.13    1.02
   4  13  -9    4.27    0.89
  13   4   9    5.66    0.79
  13 -17  -9    5.55    1.04
  -3  17  -9    1.28    0.49
 -14  17   9    1.69    0.76
   3  14   9    0.54    0.52
   3  14   9    0.64    0.37
  17 -14  -9    0.78    0.43
  17  -3   9    0.83    0.34
  14   3  -9    0.76    0.53
  14   3   9    1.03    0.38
  17  -3  -9    1.01    0.58
  17 -14   9    1.22    0.47
 -17  14   9    1.83    0.66
   3  14  -9    1.95    0.63
  14 -17  -9    0.00    0.37
  -3  17   9    1.06    0.44
  -3  17   9    1.70    0.71
   2  15   9    1.51    0.65
  17 -15  -9   -0.17    0.37
  -2  17  -9    0.02    0.34
  15   2  -9    1.03    0.51
  17  -2   9    0.92    0.36
 -15  17   9    0.89    0.71
  17 -15   9    0.12    0.37
  15 -17  -9    1.11    0.47
  -2  17   9    0.97    0.41
   2  15  -9    0.85    0.42
  -2  17   9    0.23    0.59
 -17  15   9    0.38    0.41
  17  -2  -9    0.82    0.57
  15   2   9    0.97    0.32
  16   1  -9    1.80    0.66
 -16  17   9    0.84    0.59
  17 -16  -9    2.23    0.74
  -1  17  -9    0.78    0.47
  17  -1   9    2.06    0.49
   1  16   9    0.11    0.54
  17 -16   9    2.09    0.53
  -1  17   9    1.70    0.77
   1  16  -9    0.63    0.53
  16   1   9    1.42    0.38
 -17  16   9    1.68    0.66
  16 -17  -9    1.90    0.64
  17  -1  -9    2.73    0.78
   0  17  -9    0.42    0.67
  17   0   9   -0.05    0.24
  17 -17   9    0.19    0.34
 -17  17   9   -0.35    0.40
  17   0  -9   -0.22    0.42
   0  17   9    0.22    0.58
  17 -17  -9    0.14    0.34
  -9  18   9    0.70    0.56
   9 -18  -9    0.33    0.43
  18  -9   9    0.24    0.26
   9   9  -9   -0.07    0.40
  18  -9  -9    0.89    0.43
   9   9   9    0.43    0.28
 -10  18   9    0.56    0.54
   8 -18  -9    0.93    0.47
   8  10   9    0.57    0.30
  18 -10  -9    0.16    0.42
  10   8  -9    0.73    0.48
  10   8   9    0.11    0.27
  18 -10   9    0.76    0.34
  18  -8  -9    0.07    0.31
   8  10  -9    0.40    0.42
  10 -18  -9    0.18    0.43
  -8  18   9    0.84    0.62
 -18  10   9    0.22    0.43
  18  -8  -9    0.87    0.55
   7  11   9    0.23    0.30
 -11  18   9    1.53    0.65
  11   7  -9    1.04    0.51
   7 -18  -9    0.75    0.56
  -7  18  -9    1.28    0.50
  18  -7   9    0.80    0.33
  18 -11  -9    0.75    0.47
  11 -18  -9    0.42    0.44
  18 -11   9    1.11    0.36
   7  11  -9    0.66    0.40
  -7  18   9    0.37    0.56
  11   7   9    0.64    0.30
 -18  11   9    0.82    0.51
  18  -7  -9    0.93    0.54
  18  -7  -9    0.55    0.34
   6 -18  -9    1.34    0.55
  18  -6   9    0.50    0.29
  18 -12  -9    1.50    0.58
   6  12   9    1.48    0.44
   6  12   9    0.01    0.38
  12   6  -9    1.31    0.58
  -6  18  -9   -0.18    0.39
 -12  18   9    1.10    0.63
  18  -6  -9    1.78    0.63
  -6  18   9    1.33    0.73
  18 -12   9    1.44    0.42
   6  12  -9    1.14    0.60
 -18  12   9    1.36    0.57
  18  -6  -9    0.92    0.41
  12 -18  -9    0.55    0.43
  12   6   9    1.92    0.47
   5  13   9    0.74    0.51
  -5  18  -9    1.21    0.54
 -13  18   9    1.02    1.01
  18  -5   9    0.84    0.33
  13   5  -9    0.65    0.50
  18 -13  -9    0.50    0.45
   5 -18  -9    0.28    0.46
  13 -18  -9    0.96    0.51
   5  13  -9    0.06    0.43
  -5  18   9    1.55    0.68
  18  -5  -9    1.10    0.39
  18  -5  -9    1.41    0.67
  13   5   9    1.33    0.40
  18 -13   9    1.24    0.55
 -18  13   9    0.71    0.51
 -14  18   9    0.63    0.64
  -4  18  -9    0.47    0.46
  18  -4   9    1.15    0.35
  14   4  -9    1.11    0.53
  18 -14  -9    0.84    0.48
   4  14   9    2.24    0.63
   4  14  -9    1.55    0.57
  14 -18  -9    0.51    0.45
  18 -14   9    2.12    0.60
  -4  18   9    0.99    0.45
  14   4   9    0.93    0.36
  18  -4  -9    1.92    0.66
 -18  14   9    1.45    0.58
  -4  18   9    1.07    0.72
  18  -3   9    1.17    0.37
  15   3  -9    0.88    0.58
 -15  18   9    0.74    0.66
  18 -15  -9    0.71    0.50
   3  15   9    0.86    0.61
  -3  18  -9    1.72    0.57
  18  -3  -9    1.27    0.65
 -18  15   9    3.20    0.83
  18 -15   9    1.74    0.60
  15   3   9    1.77    0.43
   3  15  -9    1.48    0.60
  -3  18   9    1.02    0.74
  15 -18  -9    2.04    0.63
   2  16   9    0.75    0.59
  18 -16  -9    0.44    0.42
  -2  18  -9    0.56    0.46
 -16  18   9    0.65    0.50
  18  -2   9    0.52    0.28
  16   2  -9    0.68    0.59
  18  -2  -9    0.87    0.54
  16   2   9    0.73    0.32
  16 -18  -9    0.07    0.40
   2  16  -9    0.90    0.42
  -2  18   9    1.45    0.70
  18 -16   9    0.81    0.41
 -18  16   9    1.07    0.52
  17   1  -9    0.55    0.56
  18  -1   9    0.29    0.23
 -17  18   9    0.41    0.55
  18 -17  -9   -0.08    0.40
  -1  18  -9    0.58    0.43
   1  17   9    0.94    0.59
  17 -18  -9    0.39    0.40
   1  17  -9    0.08    0.40
 -18  17   9    0.30    0.41
  18 -17   9    0.23    0.30
  17   1   9    0.25    0.24
  18  -1  -9    0.05    0.45
  -1  18   9    0.75    0.63
  18   0  -9    0.04    0.49
  18 -18  -9   -0.62    0.34
   0  18  -9    0.28    0.66
  18 -18   9   -0.35    0.28
   0  18   9   -0.81    0.50
 -18  18   9   -0.85    0.42
  18   0   9    0.14    0.25
  19  -9   9    0.29    0.30
  10   9  -9    0.81    0.53
   9  10   9    0.41    0.29
   9 -19  -9    0.74    0.43
  19 -10  -9    0.50    0.38
 -10  19   9    0.44    0.60
   9  10  -9    0.05    0.45
  10   9   9    0.36    0.27
  19  -9  -9    0.66    0.52
 -19  10   9    1.06    0.60
  10 -19  -9    0.13    0.41
  -9  19   9    0.35    0.64
  19  -9  -9    0.63    0.43
  19 -10   9    0.45    0.34
  19 -11  -9    0.42    0.41
  19  -8   9    0.47    0.33
   8 -19  -9    1.54    0.62
 -11  19   9    0.37    0.54
  11   8  -9    0.98    0.48
  19 -11   9    0.46    0.33
  19  -8  -9    1.19    0.61
  11 -19  -9    0.16    0.44
   8  11  -9   -0.27    0.34
  -8  19   9    0.80    0.66
  19  -8  -9    1.13    0.44
 -19  11   9    0.35    0.48
  11   8   9    1.18    0.31
 -12  19   9    1.57    0.70
  19 -12  -9    1.62    0.60
   7 -19  -9    1.91    0.66
  12   7  -9    0.57    0.52
  19  -7   9    1.56    0.44
  -7  19  -9    1.15    0.48
 -19  12   9    1.40    0.65
  19  -7  -9    1.26    0.51
  12 -19  -9    1.45    0.58
  19 -12   9    2.19    0.63
   7  12  -9    2.14    0.66
  19  -7  -9    0.06    0.51
  12   7   9    0.34    0.30
  -7  19   9    0.99    0.70
  13   6  -9    0.14    0.43
   6 -19  -9   -0.32    0.36
 -13  19   9    0.18    0.53
  19  -6   9    0.03    0.22
   6  13   9    0.28    0.37
  19 -13  -9    0.52    0.39
  -6  19  -9    0.21    0.38
 -19  13   9    0.34    0.41
  13   6   9   -0.13    0.25
  13 -19  -9   -0.51    0.33
  -6  19   9    0.75    0.68
   6  13  -9   -0.06    0.41
  19  -6  -9    0.66    0.53
  19 -13   9   -0.06    0.37
  19  -6  -9   -0.32    0.30
   5  14   9    0.78    0.45
  14   5  -9    0.15    0.46
  -5  19  -9    0.18    0.38
  19 -14  -9    0.33    0.42
 -14  19   9   -0.62    0.53
  19  -5   9    0.13    0.22
  -5  19   9    0.68    0.58
   5  14  -9    0.09    0.39
  19  -5  -9    0.38    0.49
  14 -19  -9    0.07    0.42
  14   5   9   -0.38    0.23
  19 -14   9    0.10    0.37
 -19  14   9    0.25    0.40
   4  15   9    0.81    0.54
  -4  19  -9    0.49    0.49
 -15  19   9    1.56    0.78
  15   4  -9    0.99    0.58
  19  -4   9    0.81    0.35
  19 -15  -9    0.07    0.36
  -4  19   9    0.75    0.64
  15 -19  -9    1.57    0.57
 -19  15   9    0.81    0.51
  15   4   9    1.05    0.35
  19  -4  -9    1.31    0.59
   4  15  -9    1.04    0.52
  19 -15   9    1.40    0.51
  -3  19  -9    1.13    0.49
   3  16   9    1.07    0.62
  16   3  -9    0.98    0.58
  19  -3   9    1.30    0.38
 -16  19   9    1.06    0.56
  19 -16  -9    1.15    0.58
  19  -3  -9    0.69    0.51
  16   3   9    0.68    0.30
  19 -16   9    0.92    0.44
 -19  16   9    0.36    0.43
   3  16  -9    0.01    0.38
  -3  19   9    0.90    0.69
  16 -19  -9    0.78    0.51
  17   2  -9    0.24    0.44
  19  -2   9   -0.10    0.24
  -2  19  -9   -0.20    0.35
 -17  19   9    0.20    0.49
  19 -17  -9   -0.39    0.40
   2  17   9    1.02    0.57
  19 -17   9    0.27    0.29
 -19  17   9    0.00    0.44
   2  17  -9    0.47    0.39
  -2  19   9    0.42    0.56
  17 -19  -9   -0.31    0.38
  17   2   9   -0.10    0.21
  19  -2  -9    0.45    0.54
   1  18   9   -0.97    0.57
  -1  19  -9   -0.60    0.38
  19 -18  -9   -0.27    0.42
  18   1  -9    0.11    0.47
  19  -1   9    0.01    0.20
 -18  19   9   -0.12    0.48
  18 -19  -9   -0.15    0.43
  18   1   9   -0.13    0.22
 -19  18   9   -0.03    0.45
  -1  19   9   -0.68    0.60
   1  18  -9   -0.93    0.35
  19  -1  -9    0.41    0.52
  19 -18   9    0.31    0.34
  19 -19  -9    0.52    0.49
   0  19   9    0.46    0.62
 -19  19   9    0.40    0.52
  19   0  -9    0.42    0.57
   0  19  -9    0.22    0.41
  19   0   9    0.11    0.26
  10 -20  -9    1.95    0.71
  20 -10  -9    1.70    0.55
 -10  20   9    1.04    0.65
 -20  10   9    1.61    0.76
  20 -10   9    1.69    0.49
  10  10  -9    1.77    0.65
  20  -9   9    0.44    0.34
  20 -11  -9    0.29    0.38
 -11  20   9    0.97    0.72
   9 -20  -9    0.00    0.45
  11   9  -9    0.22    0.45
  -9  20   9    0.69    0.62
  20 -11   9    0.18    0.26
  11 -20  -9   -0.18    0.38
  20  -9  -9   -0.48    0.32
   9  11  -9    0.31    0.38
 -20  11   9    0.07    0.44
  20  -9  -9   -0.14    0.46
  20 -12  -9    0.23    0.46
   8 -20  -9    1.18    0.55
  12   8  -9    0.57    0.47
  20  -8   9    0.40    0.29
 -12  20   9    1.15    0.62
  20  -8  -9   -0.22    0.46
   8  12  -9   -0.32    0.35
  20  -8  -9    0.17    0.32
 -20  12   9   -0.36    0.37
  12   8   9    0.01    0.25
  -8  20   9    1.29    0.79
  20 -12   9    0.54    0.48
  12 -20  -9    0.82    0.48
 -13  20   9    0.36    0.53
  20  -7   9   -0.27    0.21
  13   7  -9   -0.13    0.38
  20 -13  -9    0.02    0.38
  13 -20  -9    0.25    0.36
 -20  13   9    0.04    0.44
  13   7   9   -0.12    0.24
  -7  20   9    0.09    0.62
   7  13  -9    0.63    0.45
  20  -7  -9    0.61    0.39
  20  -7  -9    0.02    0.44
  20 -13   9    0.07    0.36
  20  -6   9    0.40    0.28
  14   6  -9   -0.04    0.43
 -14  20   9   -1.14    0.49
  20 -14  -9    0.02    0.37
  -6  20  -9    0.88    0.48
  14 -20  -9   -0.62    0.38
  -6  20   9    0.38    0.61
  14   6   9   -0.22    0.25
  20  -6  -9    1.37    0.53
  20 -14   9    0.51    0.41
   6  14  -9   -0.02    0.45
  20  -6  -9    0.11    0.37
 -20  14   9   -0.16    0.36
   5  15   9    0.46    0.49
  15   5  -9    0.75    0.50
  -5  20  -9    0.22    0.42
 -15  20   9    0.41    0.61
  20  -5   9    0.04    0.22
  20 -15  -9    0.22    0.38
 -20  15   9    0.03    0.39
  15   5   9    0.56    0.29
  20  -5  -9    1.27    0.57
  15 -20  -9    0.56    0.41
  20 -15   9    0.06    0.41
  -5  20   9    2.34    0.77
   5  15  -9   -0.09    0.42
   4  16   9   -0.66    0.51
  16   4  -9    0.91    0.56
  -4  20  -9    0.39    0.39
 -16  20   9    0.67    1.05
  20  -4   9    0.47    0.32
  20 -16  -9    1.12    0.53
   4  16  -9    0.80    0.46
 -20  16   9    0.10    0.42
  20  -4  -9    1.52    0.61
  -4  20   9   -1.23    0.58
  16 -20  -9   -0.28    0.42
  20 -16   9    0.69    0.35
  16   4   9   -0.21    0.26
 -17  20   9   -0.49    0.48
  20 -17  -9    0.14    0.43
  20  -3   9    0.37    0.25
   3  17   9   -0.03    0.50
  -3  20  -9   -0.04    0.43
  17   3  -9   -0.30    0.50
  17 -20  -9   -0.03    0.41
  -3  20   9   -0.21    0.62
   3  17  -9   -0.11    0.39
 -20  17   9    0.61    0.54
  17   3   9    0.09    0.26
  20  -3  -9    0.10    0.47
  20 -17   9    0.06    0.35
  20 -18  -9    0.29    0.45
  20  -2   9   -0.11    0.26
  -2  20  -9   -0.85    0.37
   2  18   9   -0.78    0.50
  18   2  -9    0.23    0.51
 -18  20   9   -0.22    0.57
  20 -18   9   -0.13    0.32
  -2  20   9    0.34    0.68
  18   2   9   -0.07    0.26
 -20  18   9   -0.08    0.49
   2  18  -9    0.33    0.43
  20  -2  -9   -0.06    0.51
  18 -20  -9    0.16    0.46
  -1  20  -9    1.02    0.52
  20  -1   9    0.60    0.31
   1  19   9    1.59    0.70
   1  19  -9    0.45    0.53
 -20  19   9   -0.14    0.52
  19   1   9   -0.02    0.24
  -1  20   9   -0.47    0.66
  19 -20  -9    1.56    0.62
  20  -1  -9   -0.07    0.58
  10 -21  -9   -0.01    0.45
  21 -11  -9    0.44    0.39
 -11  21   9    0.68    0.60
  21 -10   9    0.49    0.30
 -21  10   9   -0.11    0.56
  11  10  -9    1.11    0.53
  21 -11   9    0.64    0.49
  21 -10  -9   -0.20    0.39
  11 -21  -9    0.94    0.54
 -21  11   9   -0.40    0.44
  10  11  -9   -0.21    0.48
 -10  21   9    0.39    0.62
 -12  21   9    0.54    0.61
   9 -21  -9    1.00    0.50
  12   9  -9   -0.21    0.43
  21 -12  -9   -0.08    0.41
  21  -9   9    0.21    0.29
  12 -21  -9   -0.52    0.36
  21  -9  -9    0.59    0.55
   9  12  -9    0.00    0.42
  -9  21   9    0.24    0.62
  21 -12   9    0.48    0.51
  21  -9  -9   -0.19    0.36
 -21  12   9   -0.41    0.40
 -13  21   9    1.83    0.76
  13   8  -9    1.00    0.58
  21 -13  -9    0.77    0.45
  21  -8   9    0.46    0.37
  21  -8  -9    1.51    0.50
  21  -8  -9    2.04    0.81
   8  13  -9    1.65    0.59
  21 -13   9    1.45    0.55
  13 -21  -9    0.78    0.45
  -8  21   9    0.07    0.63
 -21  13   9    0.54    0.52
 -14  21   9    0.07    0.62
  21  -7   9    0.29    0.26
  14   7  -9   -0.01    0.46
  21 -14  -9    0.83    0.39
  21 -14   9    0.75    0.46
  21  -7  -9    0.34    0.51
  21  -7  -9    1.10    0.43
 -21  14   9    0.88    0.48
  14 -21  -9    0.16    0.39
   7  14  -9    0.78    0.50
  -7  21   9   -0.80    0.62
  21  -6   9    0.26    0.26
 -15  21   9   -0.75    0.55
  15   6  -9    0.02    0.46
  -6  21  -9    0.17    0.40
  21 -15  -9   -0.79    0.36
  15 -21  -9    0.70    0.52
   6  15  -9   -0.04    0.43
 -21  15   9    0.52    0.51
  21  -6  -9    0.30    0.54
  -6  21   9    0.51    0.64
  21 -15   9    0.05    0.37
  21  -5   9    1.12    0.38
 -16  21   9    0.52    0.72
  -5  21  -9    0.32    0.49
  21 -16  -9    0.48    0.44
   5  16   9    1.37    0.63
  16   5  -9    1.26    0.62
  16 -21  -9    1.57    0.72
 -21  16   9    0.27    0.53
  -5  21   9    2.08    0.88
  21  -5  -9    1.52    0.71
  21 -16   9    1.02    0.49
  16   5   9    1.52    0.38
   5  16  -9    1.11    0.58
   4  17   9    2.93    0.72
  21 -17  -9    1.12    0.60
  17   4  -9    1.77    0.68
 -17  21   9    2.04    0.79
  -4  21  -9    0.70    0.55
  21  -4   9    1.58    0.44
 -21  17   9    0.60    0.53
  -4  21   9    0.52    0.81
  21 -17   9    1.86    0.54
  17   4   9    1.11    0.34
   4  17  -9    1.08    0.60
  21  -4  -9    0.34    0.56
  17 -21  -9    0.58    0.51
   3  18   9   -0.08    0.56
  -3  21  -9   -0.06    0.46
  -3  21   9    0.94    0.68
   3  18  -9    0.40    0.48
 -11  22   9    3.11    1.01
 -22  11   9    0.03    0.54
  22 -11  -9    1.07    0.46
  22 -11   9    1.26    0.64
  11 -22  -9    0.51    0.49
  11  11  -9    0.54    0.52
  22 -10   9    1.45    0.65
 -22  10   9   -0.08    0.63
  12  10  -9    0.79    0.59
  22 -12  -9    0.42    0.51
 -12  22   9    0.18    0.66
  12 -22  -9   -0.10    0.50
  10  12  -9    0.27    0.55
  22 -12   9    0.51    0.46
  22 -10  -9    0.05    0.46
 -22  12   9    0.00    0.57
 -10  22   9    0.42    0.64
 -13  22   9   -0.24    0.60
  22 -13  -9    0.79    0.49
  13   9  -9   -0.35    0.50
  22  -9   9    0.09    0.28
  -9  22   9    0.17    0.72
   9  13  -9    1.56    0.59
  22  -9  -9   -0.27    0.39
  22 -13   9    0.42    0.45
  22  -9  -9    1.45    0.70
  13 -22  -9    0.66    0.49
 -22  13   9   -0.36    0.45
  22 -14  -9    0.17    0.46
  14   8  -9   -0.56    0.47
  22  -8   9   -0.16    0.29
 -14  22   9   -0.03    0.67
  22 -14   9    0.06    0.45
  -8  22   9    0.49    0.67
  22  -8  -9    0.53    0.58
   8  14  -9    0.00    0.49
  14 -22  -9   -0.33    0.49
 -22  14   9   -0.40    0.50
  22  -8  -9    0.50    0.37
  22  -7   9    0.15    0.32
  22 -15  -9    1.67    0.59
  22 -15   9    0.70    0.46
  -7  22   9    1.00    0.82
  15 -22  -9    0.65    0.45
 -22  15   9    0.56    0.60
  22  -7  -9    0.94    0.63
   7  15  -9    0.58    0.57
  -6  22  -9    0.14    0.52
   6  16  -9    0.45    0.45
   0   0 -10  107.58    4.03
   0   0  10   90.88    4.03
   1  -1  10    5.48    0.63
   0   1  10    4.72    0.47
   0   1  10    4.00    0.60
  -1   1  10    4.61    0.63
   1   0  10    5.01    0.42
   0  -1  10    4.82    0.59
   0   1 -10    6.22    0.50
   1   0 -10    5.00    0.54
   1   0  10    6.06    0.70
  -1   1 -10    5.06    0.42
  -1   0  10    5.21    0.63
  -1   2 -10    8.65    0.60
   1   1 -10    9.79    0.72
  -1   2  10    7.31    0.82
   2  -1  10    8.93    0.74
   2  -1  10    8.98    0.52
   1   1  10    9.04    0.60
   2  -1 -10    9.60    0.74
  -1  -1  10    8.41    0.70
   2  -1 -10    8.48    0.91
   1  -2  10    8.34    0.69
   1   1  10    9.91    0.82
  -1   2  10    8.88    0.67
  -2   2  10   17.53    1.07
   2   0 -10   19.41    1.14
   2  -2  10   17.42    1.09
   2   0  10   16.58    1.14
  -2   2 -10   19.14    0.90
   2   0  10   17.08    0.89
   2  -2 -10   19.78    1.31
   0   2  10   15.84    1.16
   2   0 -10   19.37    1.22
   0   2  10   17.41    1.01
   0  -2  10   16.57    1.04
   0   2 -10   18.23    1.03
   3  -1  10    3.89    0.28
   2   1 -10    3.38    0.52
   1   2  10    4.01    0.47
  -1  -2  10    3.44    0.49
   3  -1  10    4.21    0.59
   2  -3  10    3.87    0.52
  -2   3  10    3.52    0.50
  -1   3 -10    4.07    0.44
   3  -2 -10    3.23    0.58
   1   2  10    3.72    0.59
   3  -2 -10    3.49    0.54
   2   1  10    3.98    0.41
   2  -3 -10    3.90    0.71
  -2   3 -10    3.76    0.38
   1  -3  10    4.34    0.53
   3  -2  10    4.64    0.59
   3  -2  10    3.62    0.26
  -1   3  10    2.92    0.46
   3  -1 -10    3.61    0.55
   3  -1 -10    4.10    0.64
   1   2 -10    4.23    0.53
   2   1  10    3.20    0.55
   0   3  10    4.95    0.56
  -3   3  10    4.57    0.58
   3  -3  10    4.20    0.55
  -3   3 -10    5.81    0.36
   0  -3  10    4.75    0.54
   3   0 -10    5.67    0.70
   3   0  10    5.43    0.68
   0   3  10    4.03    0.64
   0   3 -10    4.78    0.55
   3  -3 -10    6.80    0.85
   3   0 -10    4.84    0.63
   3   0  10    5.07    0.40
  -2  -2  10   19.67    1.13
   4  -2  10   20.88    1.23
  -2   4 -10   21.28    1.08
   2   2  10   18.73    1.28
   2  -4  10   19.15    1.09
   2   2  10   17.39    1.10
   4  -2 -10   21.52    1.32
   4  -2 -10   22.15    1.38
   2  -4 -10   24.02    1.53
  -2   4  10   19.98    1.24
   2   2 -10   22.04    1.29
   4  -3 -10    7.57    0.78
   4  -1  10    7.03    0.76
  -1  -3  10    6.23    0.60
   1   3  10    8.33    0.88
   1   3  10    7.39    0.73
   4  -3 -10    7.90    0.91
  -3   4  10    6.63    0.70
   3   1 -10    7.47    0.75
  -1   4 -10    7.23    0.59
   3  -4  10    7.24    0.60
   3   1 -10    6.12    0.73
   4  -3  10    6.64    0.69
   3  -4 -10    7.40    0.94
   3   1  10    5.84    0.75
   1  -4  10    6.92    0.56
   4  -1 -10    7.62    0.81
   1   3 -10    8.48    0.68
  -3   4 -10    7.49    0.48
   3   1  10    7.34    0.56
   4  -1 -10    6.56    0.78
  -1   4  10    6.67    0.70
   4  -4 -10    1.45    0.43
   4   0 -10    1.93    0.44
   4   0  10    1.55    0.40
   0   4 -10    1.20    0.30
   0  -4  10    1.24    0.28
   0   4  10    1.34    0.41
   4   0 -10    1.02    0.33
   4  -4  10    1.35    0.33
   0   4  10    1.39    0.35
  -4   4 -10    1.51    0.17
  -4   4  10    1.65    0.39
   5  -2  10   25.62    1.40
  -2   5 -10   24.86    1.27
  -3   5  10   23.35    1.43
   2   3  10   23.60    1.48
   2  -5 -10   24.93    1.65
   2   3  10   22.43    1.37
   3  -5  10   24.29    1.23
   3   2 -10   24.87    1.34
   3   2 -10   23.15    1.44
   5  -3 -10   24.33    1.50
  -2  -3  10   21.36    1.19
   5  -3 -10   21.67    1.44
   3   2  10   24.29    1.33
   3  -5 -10   23.83    1.60
   2   3 -10   24.61    1.44
   5  -2 -10   22.69    1.43
   3   2  10   24.11    1.47
   2  -5  10   24.37    1.21
  -2   5  10   22.91    1.43
  -3   5 -10   25.22    1.20
   5  -3  10   23.80    1.34
   5  -2 -10   24.53    1.53
   1   4  10    0.90    0.31
   5  -1  10    0.70    0.30
  -1  -4  10    0.60    0.21
   5  -4 -10    0.43    0.28
  -4   5  10    0.94    0.32
   4   1 -10    0.71    0.24
   1   4  10    0.97    0.35
   4   1 -10    0.84    0.32
  -1   5 -10    0.61    0.22
   4  -5  10    0.55    0.23
   5  -4  10    0.58    0.25
   4   1  10    0.38    0.24
   5  -1 -10    0.78    0.31
   5  -1 -10    0.63    0.26
  -1   5  10    0.70    0.31
   1   4 -10    1.33    0.31
  -5   4  10    0.20    0.29
  -4   5 -10    0.48    0.14
   1  -5  10    0.60    0.19
   4  -5 -10    0.46    0.31
   5  -5 -10    5.88    0.86
  -5   5  10    6.83    0.78
   0   5  10    7.32    0.82
   5   0 -10    6.75    0.74
   0  -5  10    8.16    0.55
   5   0  10    6.77    0.78
   0   5 -10    6.61    0.70
   5   0 -10    6.65    0.84
   5  -5  10    7.00    0.60
   0   5  10    5.98    0.82
   3  -6 -10   44.10    2.46
  -3  -3  10   47.97    2.02
   3  -6  10   46.07    1.96
   6  -3 -10   45.37    2.41
   3   3  10   45.84    2.32
   6  -3 -10   44.13    2.28
  -3   6 -10   44.89    2.04
   3   3  10   43.25    2.23
   3   3 -10   42.84    2.30
  -3   6  10   47.64    2.38
   6  -3  10   46.31    2.16
   2   4  10    2.81    0.53
  -4   6  10    2.85    0.56
  -2  -4  10    3.22    0.39
  -2   6 -10    3.03    0.44
   4  -6  10    2.99    0.42
   6  -4 -10    2.78    0.57
   2  -6 -10    2.06    0.59
   4   2 -10    2.56    0.43
   6  -2  10    3.05    0.52
   6  -4 -10    2.54    0.54
   4   2 -10    2.94    0.54
   2   4  10    2.79    0.55
   4   2  10    3.48    0.47
   6  -4  10    2.93    0.49
   4  -6 -10    2.11    0.54
   6  -2 -10    2.98    0.59
   4   2  10    2.99    0.55
  -2   6  10    3.79    0.63
   2  -6  10    3.31    0.40
   2   4 -10    3.21    0.55
  -4   6 -10    3.02    0.36
   6  -2 -10    2.96    0.53
   5   1 -10    3.12    0.48
  -1   6 -10    3.56    0.53
   6  -1  10    3.15    0.54
   5   1 -10    3.87    0.67
   5  -6  10    4.68    0.51
  -1  -5  10    4.35    0.42
  -5   6  10    3.97    0.64
   1   5  10    4.16    0.69
   6  -5 -10    2.50    0.56
   1   5  10    3.80    0.65
   5   1  10    3.23    0.56
   1   5 -10    3.21    0.55
   1  -6  10    3.40    0.38
   6  -5  10    3.32    0.49
   5  -6 -10    4.51    0.76
  -1   6  10    4.51    0.78
  -6   5  10    4.45    0.69
   6  -1 -10    2.70    0.50
   6  -1 -10    3.52    0.63
   6   0 -10   48.08    2.50
   6  -6  10   46.76    2.07
   0   6  10   42.78    2.45
  -6   6  10   44.62    2.39
   0   6  10   50.18    2.48
   6  -6 -10   45.58    2.43
   0  -6  10   46.93    1.89
   6   0  10   41.46    2.21
   6   0 -10   48.65    2.23
   0   6 -10   46.06    2.27
   3  -7 -10    1.56    0.52
   3   4  10    1.21    0.41
   7  -4 -10    1.10    0.37
   7  -4 -10    1.48    0.46
  -4   7  10    1.70    0.46
   4   3 -10    1.41    0.42
   4   3 -10    2.07    0.36
   3   4  10    1.67    0.44
   4  -7  10    1.53    0.31
  -3  -4  10    1.68    0.29
  -3   7 -10    1.81    0.35
   7  -3  10    1.82    0.43
   3  -7  10    1.50    0.28
   4   3  10    1.45    0.43
  -4   7 -10    1.72    0.30
   4   3  10    1.56    0.39
   7  -3 -10    1.03    0.41
   3   4 -10    1.67    0.45
   7  -4  10    1.88    0.40
   4  -7 -10    1.55    0.49
   7  -3 -10    1.32    0.39
  -3   7  10    1.90    0.49
   2   5  10   76.22    3.67
  -5   7  10   78.30    3.67
   5   2 -10   77.68    3.26
  -2   7 -10   83.40    3.43
   2   5  10   78.99    3.56
   5   2 -10   80.99    3.74
   2  -7 -10   70.24    3.68
   5  -7  10   77.91    3.11
   7  -2  10   73.87    3.34
   7  -5 -10   78.66    3.58
   7  -2 -10   77.68    3.72
   2   5 -10   79.79    3.60
   5   2  10   80.39    3.47
   5  -7 -10   83.08    3.76
   2  -7  10   79.68    3.01
   7  -5  10   77.65    3.26
  -2   7  10   77.08    3.72
   7  -2 -10   77.77    3.43
   1   6  10    0.39    0.30
   6  -7  10    0.69    0.24
   6   1 -10    0.49    0.23
   1   6  10    0.96    0.39
  -1   7 -10    0.35    0.22
   6   1 -10    0.64    0.35
   7  -1  10    0.50    0.27
  -6   7  10    0.27    0.31
   7  -6 -10    0.06    0.26
   6  -7 -10    0.69    0.38
   6   1  10    0.29    0.29
   7  -1 -10    0.76    0.29
   7  -6  10    0.45    0.23
   1   6 -10    0.70    0.27
  -1   7  10    0.21    0.34
   7  -1 -10    0.37    0.31
  -7   6  10    0.79    0.39
   7   0 -10    8.85    1.05
  -7   7  10    7.69    0.93
   7   0 -10    8.75    0.74
   0   7  10    8.87    1.11
   7   0  10    7.97    0.86
   7  -7  10    8.83    0.67
   0   7  10    8.86    1.02
   7  -7 -10    6.32    0.93
   0   7 -10    8.63    0.87
   4   4  10    1.86    0.48
   8  -4 -10    1.92    0.46
   4  -8 -10    2.58    0.65
  -4   8  10    2.04    0.53
   4  -8  10    2.86    0.35
   4   4 -10    2.82    0.60
   8  -4 -10    3.01    0.64
   8  -4  10    2.67    0.48
   4   4  10    2.12    0.46
  -4   8 -10    2.65    0.43
   3   5  10    0.87    0.36
   5   3 -10    1.10    0.41
   8  -5 -10    1.42    0.42
   3  -8 -10    0.95    0.47
  -5   8  10    1.16    0.39
   8  -3  10    1.33    0.36
  -3   8 -10    0.85    0.27
   5   3 -10    0.96    0.26
   5  -8  10    1.44    0.27
   8  -5 -10    0.76    0.43
   3   5  10    0.94    0.40
   5  -8 -10    0.85    0.40
   5   3  10    1.58    0.43
  -3   8  10    1.15    0.43
   8  -3 -10    1.06    0.36
   3   5 -10    1.79    0.45
   3  -8  10    1.40    0.25
   8  -5  10    0.88    0.30
   8  -3 -10    0.79    0.38
  -5   8 -10    1.41    0.33
   8  -2  10    2.63    0.50
  -6   8  10    1.86    0.48
   6   2 -10    2.21    0.58
   6   2 -10    2.30    0.38
   2   6  10    2.85    0.58
   2  -8 -10    1.70    0.59
   2   6  10    1.10    0.46
  -2   8 -10    1.86    0.40
   8  -6 -10    1.70    0.48
   6  -8  10    2.16    0.35
   6   2  10    2.29    0.50
  -2   8  10    1.84    0.56
   6  -8 -10    1.55    0.50
   8  -2 -10    1.68    0.52
   2   6 -10    2.45    0.53
   8  -2 -10    2.02    0.44
  -8   6  10    1.65    0.49
   8  -6  10    1.73    0.38
   7  -8  10    0.13    0.18
  -1   8 -10    0.12    0.24
   1   7  10    0.31    0.35
   7   1 -10    0.45    0.32
   8  -7 -10    0.52    0.28
   8  -1  10    0.33    0.24
  -7   8  10    0.21    0.28
   7   1 -10    0.72    0.24
   1   7  10    0.26    0.28
   7  -8 -10    0.47    0.38
   8  -1 -10    0.46    0.24
   8  -7  10    0.28    0.21
   7   1  10    0.13    0.20
   1   7 -10    0.50    0.26
   8  -1 -10    0.19    0.29
  -1   8  10    0.11    0.24
  -8   7  10    0.46    0.34
  -1   8  10    0.01    0.33
   8   0  10    3.34    0.58
   8   0 -10    2.98    0.49
   0   8  10    2.31    0.56
  -8   8  10    3.03    0.65
   0   8 -10    2.51    0.50
   0   8  10    2.69    0.69
   8   0 -10    3.37    0.73
   8  -8  10    2.70    0.42
   8  -8 -10    2.35    0.60
   4  -9 -10    0.99    0.41
   4   5  10    1.31    0.41
   5   4 -10    0.65    0.42
  -5   9  10    1.13    0.42
   9  -5 -10    0.86    0.42
  -4   9 -10    0.68    0.23
   9  -4  10    0.95    0.30
   5  -9  10    0.45    0.19
   9  -5 -10    0.82    0.37
   4   5  10    0.64    0.31
   4   5 -10    0.85    0.41
   9  -4 -10    0.19    0.33
   5  -9 -10    0.64    0.40
   9  -5  10    0.84    0.32
   9  -4 -10    1.00    0.35
   5   4  10    0.55    0.29
  -4   9  10    0.74    0.41
  -5   9 -10    0.86    0.25
   6  -9  10   13.24    0.76
  -6   9  10   11.26    1.25
   3   6  10   12.82    1.09
   6   3 -10   12.83    1.17
   9  -6 -10   13.02    1.12
   3   6  10   12.21    1.13
   9  -3  10   14.85    1.02
  -3   9 -10   13.51    0.98
   3  -9 -10   15.88    1.51
   6   3  10   14.72    1.10
   9  -6  10   13.28    0.93
   9  -3 -10   13.25    1.05
  -3   9  10   13.85    1.41
   3   6 -10   14.18    1.16
   9  -3 -10   13.28    1.34
   6  -9 -10   13.85    1.40
   7  -9  10    3.19    0.41
   9  -2  10    3.57    0.57
   2   7  10    4.49    0.84
   9  -7 -10    3.16    0.65
   7   2 -10    2.81    0.67
   2   7  10    4.07    0.72
   7   2 -10    3.75    0.51
  -2   9 -10    2.89    0.53
  -7   9  10    3.60    0.72
   2  -9 -10    4.50    0.87
   9  -7  10    2.81    0.46
   9  -2 -10    3.57    0.60
   2   7 -10    2.92    0.59
   9  -2 -10    3.14    0.65
   7  -9 -10    2.77    0.65
   7   2  10    3.31    0.60
  -9   7  10    3.52    0.71
  -2   9  10    3.12    0.74
   1   8  10    0.56    0.41
  -8   9  10    0.89    0.46
   8  -9  10    1.06    0.28
   9  -8 -10    1.72    0.52
   9  -1  10    1.19    0.35
   8   1 -10    1.48    0.34
  -1   9 -10    1.34    0.38
   8   1 -10    1.27    0.49
   1   8  10    0.78    0.36
   8   1  10    1.06    0.34
   1   8 -10    1.42    0.42
   9  -8  10    0.81    0.29
  -9   8  10    1.07    0.46
   8  -9 -10    2.04    0.57
  -1   9  10    1.24    0.43
   9  -1 -10    1.44    0.48
   9  -1 -10    0.93    0.33
  -1   9  10    1.22    0.53
   9   0 -10   14.76    1.31
   0   9 -10   13.66    1.09
   9   0 -10   11.44    0.91
   0   9  10    9.59    1.36
   9   0  10   11.37    0.95
   9  -9  10   12.14    0.81
   0   9  10   12.35    1.23
   9  -9 -10   13.65    1.34
  -9   9  10   13.85    1.25
  10  -5  10    9.13    0.75
   5   5 -10    6.70    0.98
   5 -10 -10    9.54    1.23
  -5  10  10    7.54    1.12
  -5  10 -10    6.95    0.74
   5   5  10    8.62    0.99
  10  -5 -10    7.51    1.07
  10  -5 -10    7.84    0.97
  -6  10  10    3.85    0.78
  10  -6 -10    3.50    0.67
   6   4 -10    3.66    0.75
   6 -10  10    3.72    0.39
  10  -4  10    4.56    0.63
  -4  10 -10    3.77    0.59
   4 -10 -10    3.85    0.81
   4   6  10    5.10    0.80
  10  -6 -10    3.62    0.73
   4   6  10    3.99    0.69
   6   4  10    3.53    0.63
   4   6 -10    4.22    0.77
  10  -4 -10    2.99    0.70
   6 -10 -10    4.93    0.86
  10  -6  10    4.46    0.59
  10  -4 -10    3.97    0.68
  -4  10  10    1.94    0.64
  10  -3  10    2.88    0.51
  -3  10 -10    2.68    0.49
   3   7  10    2.26    0.66
   3 -10 -10    2.50    0.67
   7 -10  10    2.19    0.33
  10  -7 -10    3.08    0.66
  -7  10  10    2.24    0.64
   7   3 -10    2.01    0.57
   3   7  10    2.39    0.57
  10  -3 -10    2.10    0.60
   7 -10 -10    2.62    0.65
 -10   7  10    2.91    0.69
  10  -3 -10    1.64    0.44
   7   3  10    2.84    0.54
  10  -7  10    2.29    0.41
  -3  10  10    2.14    0.66
   3   7 -10    2.36    0.55
   8   2 -10    0.26    0.32
   2 -10 -10    0.10    0.37
   8 -10  10    0.72    0.23
  10  -2  10    0.85    0.31
   2   8  10    0.48    0.45
  10  -8 -10    0.65    0.33
   2   8  10    0.86    0.39
  -8  10  10    0.43    0.37
  -2  10 -10    0.83    0.34
 -10   8  10    0.68    0.44
  10  -2 -10   -0.09    0.26
   2   8 -10    0.95    0.41
  -2  10  10   -0.17    0.40
   8   2  10    0.39    0.24
  10  -2 -10    0.88    0.34
   8 -10 -10    0.84    0.43
  10  -8  10    0.41    0.23
  10  -1  10    2.26    0.47
  -9  10  10    2.77    0.70
  -1  10 -10    2.82    0.57
   9 -10  10    2.54    0.39
  10  -9 -10    2.94    0.68
   9   1 -10    2.06    0.60
   1   9  10    1.74    0.65
   1   9  10    3.02    0.64
   9   1 -10    3.00    0.49
   9 -10 -10    2.66    0.67
  10  -9  10    3.28    0.46
   1   9 -10    2.63    0.58
  10  -1 -10    2.55    0.64
   9   1  10    2.50    0.52
  -1  10  10    2.50    0.57
  10  -1 -10    2.33    0.50
 -10   9  10    2.94    0.69
  -1  10  10    3.71    0.87
 -10  10  10    1.39    0.56
   0  10  10    0.37    0.28
  10 -10  10    0.51    0.24
   0  10  10    0.54    0.45
  10 -10 -10    0.38    0.34
   0  10 -10    1.28    0.42
  10   0  10    0.61    0.31
  10   0 -10    0.89    0.46
  10   0 -10    0.54    0.26
  11  -5  10    3.59    0.57
   5 -11 -10    3.11    0.74
  -5  11 -10    3.34    0.57
  11  -6 -10    3.44    0.76
  11  -6 -10    3.75    0.69
   6   5 -10    3.85    0.77
   5   6  10    3.50    0.66
  -6  11  10    3.02    0.76
   6   5  10    4.04    0.67
   6 -11 -10    4.25    0.85
  11  -5 -10    3.58    0.66
  -5  11  10    3.17    0.86
   5   6 -10    4.20    0.77
  11  -5 -10    3.62    0.77
  11  -6  10    3.04    0.52
  -4  11 -10    3.14    0.59
   4   7  10    3.49    0.74
  11  -7 -10    2.85    0.63
   7   4 -10    2.91    0.70
  -7  11  10    2.47    0.67
   4 -11 -10    3.31    0.77
  11  -4  10    3.79    0.59
   4   7  10    2.94    0.62
   7   4  10    3.17    0.60
   7 -11 -10    3.00    0.74
  11  -7  10    3.41    0.52
  -4  11  10    3.23    0.74
  11  -4 -10    2.83    0.59
  11  -4 -10    3.15    0.72
   4   7 -10    2.81    0.61
  11  -3  10    2.82    0.52
  -8  11  10    2.51    0.67
  11  -8 -10    3.07    0.69
   8 -11  10    2.32    0.35
   3   8  10    2.71    0.70
   3 -11 -10    2.17    0.65
  -3  11 -10    2.36    0.53
   8   3 -10    2.05    0.58
   3   8  10    1.42    0.46
  -3  11  10    2.59    0.68
 -11   8  10    2.66    0.70
  11  -3 -10    2.67    0.66
  11  -8  10    2.34    0.43
  11  -3 -10    1.60    0.45
   3   8 -10    2.96    0.63
   8   3  10    2.73    0.55
   8 -11 -10    3.10    0.71
  11  -2  10    4.23    0.64
   9 -11  10    4.24    0.49
   9   2 -10    4.89    0.89
  -9  11  10    5.17    0.96
   2   9  10    4.93    0.80
  11  -9 -10    5.42    0.92
  -2  11 -10    3.95    0.74
   2   9  10    3.96    0.88
   9 -11 -10    5.51    0.94
   9   2  10    4.93    0.74
  -2  11  10    5.00    0.98
  11  -2 -10    5.77    0.98
 -11   9  10    4.41    0.86
  11  -9  10    5.26    0.61
  11  -2 -10    4.64    0.70
   2   9 -10    4.59    0.80
  10   1 -10    4.85    0.93
  10 -11  10    4.00    0.51
  -1  11 -10    3.77    0.72
   1  10  10    4.49    0.78
 -10  11  10    4.93    0.93
  11 -10 -10    4.82    0.88
  11  -1  10    5.38    0.74
   1  10  10    6.01    1.07
   1  10 -10    4.97    0.82
  10 -11 -10    5.27    0.93
  11 -10  10    5.76    0.59
  -1  11  10    4.81    0.97
 -11  10  10    4.16    0.86
  11  -1 -10    4.71    0.69
  10   1  10    5.60    0.77
  -1  11  10    4.49    0.80
  11  -1 -10    4.29    0.86
   0  11  10    1.25    0.56
  11 -11 -10    1.21    0.53
  11 -11  10    1.46    0.32
  11   0  10    0.89    0.34
  11   0 -10    0.29    0.44
   0  11  10    0.59    0.32
 -11  11  10    0.81    0.51
   0  11 -10    1.57    0.45
   6   6  10    3.46    0.65
  12  -6  10    3.24    0.53
   6 -12 -10    3.65    0.82
   6   6 -10    4.11    0.81
  12  -6 -10    3.90    0.72
  12  -6 -10    3.93    0.81
  -6  12  10    4.53    1.09
  -5  12 -10    3.35    0.62
  12  -7 -10    3.60    0.80
   5   7  10    5.31    0.82
  12  -5  10    2.97    0.52
   5   7  10    2.48    0.61
  12  -7 -10    3.45    0.71
  -7  12  10    5.39    0.98
   7   5 -10    3.21    0.75
   5 -12 -10    2.99    0.74
  12  -7  10    3.64    0.54
  12  -5 -10    2.82    0.72
   7   5  10    2.66    0.56
   7 -12 -10    3.16    0.75
   5   7 -10    3.04    0.69
  12  -5 -10    3.22    0.64
  -5  12  10    2.98    0.74
  12  -4  10    0.08    0.23
  -8  12  10    0.34    0.40
   4 -12 -10    1.15    0.49
  12  -8 -10    0.18    0.31
   4   8  10    0.01    0.25
  -4  12 -10    0.47    0.26
   8   4 -10   -0.09    0.31
   4   8  10    0.06    0.38
  12  -4 -10    0.01    0.32
  12  -8  10    0.03    0.20
   8   4  10    0.24    0.25
  12  -4 -10    0.10    0.25
   4   8 -10    0.46    0.32
  -4  12  10    0.19    0.33
 -12   8  10   -0.01    0.41
   8 -12 -10   -0.15    0.31
   3 -12 -10    1.25    0.52
   9   3 -10    0.51    0.43
  12  -3  10    0.85    0.34
  -3  12 -10    1.13    0.41
  -9  12  10    0.59    0.44
   3   9  10    0.28    0.31
  12  -9 -10    0.37    0.36
   9 -12  10    0.54    0.23
   3   9  10    0.80    0.45
 -12   9  10    1.29    0.55
   3   9 -10    0.62    0.39
  12  -3 -10    0.82    0.32
  12  -9  10    0.99    0.30
   9 -12 -10    0.48    0.36
   9   3  10    0.70    0.35
  -3  12  10    0.75    0.50
  12  -3 -10    0.56    0.39
  -2  12 -10    0.19    0.26
  10 -12  10    0.19    0.21
  12  -2  10    0.07    0.23
  12 -10 -10    0.25    0.34
   2  10  10    0.21    0.39
  10   2 -10    0.22    0.40
 -10  12  10    0.12    0.36
   2  10  10    0.70    0.36
   2  10 -10    0.13    0.30
  10 -12 -10    0.52    0.40
  -2  12  10    0.18    0.47
  -2  12  10    0.23    0.33
  12  -2 -10    0.53    0.24
  12 -10  10    0.23    0.20
  12  -2 -10    1.18    0.49
 -12  10  10    0.50    0.45
  10   2  10    0.26    0.25
  12  -1  10    1.15    0.38
   1  11  10    0.70    0.37
  11 -12  10    0.73    0.25
  12 -11 -10    1.12    0.50
 -11  12  10    1.40    0.57
   1  11  10    0.29    0.41
  -1  12 -10    0.96    0.39
  11   1 -10    0.94    0.50
  12  -1 -10    1.20    0.48
  -1  12  10    1.08    0.56
  11   1  10    0.51    0.27
  -1  12  10    0.74    0.39
  12  -1 -10    1.00    0.34
   1  11 -10    0.92    0.41
  12 -11  10    0.93    0.30
 -12  11  10    1.14    0.55
  11 -12 -10    2.05    0.54
 -12  12  10    1.40    0.62
  12   0 -10    2.16    0.67
  12 -12 -10    3.52    0.81
   0  12  10    2.46    0.69
  12 -12  10    2.33    0.41
   0  12  10    2.14    0.56
   0  12 -10    4.49    0.78
  12   0  10    1.59    0.45
  13  -7 -10   10.43    1.22
   6 -13 -10   12.88    1.52
  13  -6  10   11.19    0.91
   6   7  10   12.15    1.05
   7   6 -10    9.36    1.29
  13  -7 -10   10.02    1.40
  -7  13  10   12.13    1.67
  13  -6 -10   11.61    1.46
  -6  13  10   12.13    1.58
  13  -6 -10   13.24    1.29
  13  -7  10   13.25    0.95
   6   7 -10   12.26    1.41
   7 -13 -10   13.65    1.55
   7   6  10   10.59    1.12
  13  -5  10    1.53    0.40
   5   8  10    1.64    0.54
   5   8  10    0.84    0.37
   5 -13 -10    2.35    0.68
   8   5 -10    1.55    0.57
  -5  13 -10    0.85    0.37
  13  -8 -10    0.88    0.43
  -8  13  10    1.39    0.53
  13  -8  10    1.62    0.40
  -5  13  10    1.23    0.55
  13  -5 -10    1.16    0.44
   5   8 -10    1.07    0.49
 -13   8  10    2.18    0.75
  13  -5 -10    1.43    0.54
   8 -13 -10    1.86    0.62
   8   5  10    1.88    0.50
  -4  13 -10    1.71    0.52
   4   9  10    2.07    0.63
   4   9  10    1.75    0.49
   4 -13 -10    1.99    0.63
  13  -4  10    1.06    0.35
  13  -9 -10    1.89    0.59
  -9  13  10    2.24    0.68
   9   4 -10    1.97    0.61
 -13   9  10    1.59    0.63
   9   4  10    0.95    0.37
  13  -9  10    1.21    0.35
   9 -13 -10    1.80    0.62
   4   9 -10    2.25    0.61
  13  -4 -10    1.21    0.49
  13  -4 -10    1.29    0.44
  -4  13  10    1.81    0.59
 -10  13  10    3.29    0.85
  -3  13 -10    3.08    0.63
   3  10  10    4.34    0.76
  13  -3  10    3.54    0.60
   3 -13 -10    3.62    0.84
   3  10  10    3.97    0.81
  10   3 -10    3.52    0.86
  13 -10 -10    4.06    0.83
  13  -3 -10    4.72    0.94
  -3  13  10    4.77    1.01
  13  -3 -10    3.96    0.71
  10   3  10    3.04    0.59
  10 -13 -10    4.06    0.84
 -13  10  10    5.04    0.99
  13 -10  10    4.05    0.55
   3  10 -10    3.17    0.70
   2  11  10    1.82    0.62
   2  11  10    1.16    0.43
  13 -11 -10    1.36    0.53
  11   2 -10    0.95    0.50
  11 -13  10    1.54    0.35
  -2  13 -10    1.27    0.42
  13  -2  10    1.34    0.40
 -11  13  10    0.20    0.41
  11 -13 -10    1.58    0.56
  -2  13  10    1.19    0.44
  -2  13  10    2.15    0.70
   2  11 -10    1.29    0.49
  13 -11  10    1.32    0.34
 -13  11  10    1.30    0.62
  13  -2 -10    1.76    0.59
  11   2  10    1.91    0.45
  13  -2 -10    2.02    0.47
   1  12  10    0.42    0.44
  -1  13 -10    0.10    0.41
  13 -12 -10    0.33    0.40
 -12  13  10    0.36    0.45
  13  -1  10    0.07    0.27
   1  12  10   -0.14    0.25
  12   1 -10    0.29    0.35
  12 -13  10    0.14    0.22
   1  12 -10    0.10    0.27
  12 -13 -10    0.43    0.41
  -1  13  10    0.09    0.28
 -13  12  10    0.50    0.47
  13  -1 -10    0.44    0.44
  12   1  10    0.43    0.31
  13 -12  10    0.69    0.28
  -1  13  10    0.42    0.48
  13 -13 -10    2.48    0.72
  13 -13  10    1.45    0.40
   0  13 -10    1.40    0.48
  13   0  10    0.99    0.38
   0  13  10    1.62    0.50
 -13  13  10    1.63    0.64
  13   0 -10    1.67    0.62
   0  13  10    0.37    0.54
  14  -7  10   10.85    0.90
  -7  14  10   11.65    1.60
  14  -7 -10   12.22    1.32
  14  -7 -10   10.90    1.48
   7   7  10   11.96    1.18
   7 -14 -10   10.98    1.47
   7   7 -10   12.75    1.47
   6 -14 -10    3.33    0.84
  14  -6  10    3.57    0.58
   8   6 -10    2.59    0.70
  14  -8 -10    2.31    0.64
   6   8  10    3.13    0.62
  -8  14  10    3.44    1.09
   6   8 -10    2.44    0.68
  14  -8  10    2.38    0.48
  14  -6 -10    3.57    0.83
   8 -14 -10    3.64    0.82
  -6  14  10    3.72    0.94
   8   6  10    3.96    0.69
  14  -6 -10    2.81    0.65
   5   9  10    8.88    1.17
   5   9  10    7.48    0.99
  14  -9 -10    6.47    1.03
   5 -14 -10    6.71    1.14
  -5  14 -10    6.94    0.95
  -9  14  10    8.76    1.40
  14  -5  10    7.29    0.82
   9   5 -10    7.52    1.23
   9   5  10    8.13    0.97
 -14   9  10    7.23    1.16
   9 -14 -10    6.15    1.08
  14  -5 -10    5.85    0.91
   5   9 -10    7.22    1.10
  14  -9  10    7.17    0.76
  -5  14  10    7.78    1.37
  14  -5 -10    6.02    1.08
  10   4 -10    2.43    0.71
  14  -4  10    2.53    0.52
  14 -10 -10    2.83    0.69
   4  10  10    2.16    0.64
   4  10  10    2.33    0.56
  -4  14 -10    2.48    0.58
   4 -14 -10    3.24    0.81
 -10  14  10    2.07    0.71
  -4  14  10    1.76    0.70
  14  -4 -10    1.18    0.57
  14 -10  10    2.84    0.48
   4  10 -10    1.87    0.61
  10   4  10    1.76    0.48
  10 -14 -10    2.83    0.77
 -14  10  10    2.16    0.69
  14  -4 -10    2.10    0.55
  14  -3  10    2.60    0.52
  -3  14 -10    1.99    0.57
   3  11  10    2.29    0.72
   3  11  10    1.53    0.46
  14 -11 -10    2.46    0.70
  11   3 -10    1.78    0.65
 -11  14  10    2.62    0.75
  11   3  10    1.70    0.44
  14  -3 -10    1.98    0.64
  -3  14  10    2.32    0.78
  14  -3 -10    2.22    0.54
 -14  11  10    2.93    0.85
   3  11 -10    1.49    0.50
  11 -14 -10    2.01    0.64
  14 -11  10    1.30    0.36
  12 -14  10    2.35    0.51
   2  12  10    1.54    0.48
 -12  14  10    1.58    0.64
  12   2 -10    1.47    0.64
   2  12  10    2.31    0.68
  -2  14 -10    2.15    0.59
  14  -2  10    1.48    0.42
  14 -12 -10    0.94    0.54
   2  12 -10    1.45    0.51
  14  -2 -10    1.79    0.64
 -14  12  10    1.24    0.61
  12   2  10    1.40    0.43
  12 -14 -10    1.82    0.61
  -2  14  10    1.93    0.69
  14 -12  10    1.65    0.38
  -2  14  10    1.57    0.52
  13 -14  10    0.74    0.41
  14  -1  10    0.18    0.23
 -13  14  10   -0.06    0.40
   1  13  10   -0.67    0.43
  -1  14 -10   -0.09    0.50
   1  13  10    0.01    0.32
  13   1 -10    0.30    0.41
  14 -13 -10    0.16    0.36
   1  13 -10    0.51    0.32
  14 -13  10    0.33    0.28
 -14  13  10    0.68    0.52
  14  -1 -10    0.21    0.43
  13 -14 -10    0.06    0.35
  -1  14  10   -0.02    0.24
  13   1  10    0.34    0.27
  -1  14  10    0.71    0.50
   0  14 -10    4.27    0.86
   0  14  10    7.64    1.36
 -14  14  10    4.19    0.97
   0  14  10    3.67    0.75
  14   0  10    4.36    0.71
  14 -14 -10    4.51    0.93
  14   0 -10    4.83    1.05
  14 -14  10    4.71    0.73
  15  -8 -10    0.29    0.43
   7   8  10   -0.11    0.24
  15  -8 -10    0.19    0.32
  -8  15  10    0.31    0.43
   7 -15 -10    0.47    0.44
  15  -7  10    0.60    0.33
   8   7 -10    0.51    0.39
   8 -15 -10   -0.06    0.38
  15  -7 -10   -0.32    0.23
   8   7  10    0.06    0.27
   7   8 -10   -0.07    0.37
  15  -7 -10    0.25    0.39
  15  -8  10    0.21    0.27
  -7  15  10    0.24    0.49
  15  -9 -10    6.47    1.05
  -9  15  10    4.92    1.09
   9   6 -10    5.28    1.03
   6 -15 -10    5.25    1.02
   6   9  10    4.40    0.75
  15  -6  10    6.12    0.77
  15  -9  10    4.39    0.63
  15  -6 -10    5.27    1.06
   6   9 -10    4.37    0.88
   9   6  10    5.45    0.82
  -6  15  10    5.31    1.17
 -15   9  10    4.46    1.01
  15  -6 -10    6.79    0.99
   9 -15 -10    6.99    1.18
 -10  15  10    2.05    0.74
  -5  15 -10    2.40    0.60
   5  10  10    1.99    0.61
  10   5 -10    1.61    0.64
   5 -15 -10    2.50    0.76
  15  -5  10    2.02    0.46
   5  10  10    1.98    0.52
  15 -10 -10    2.37    0.68
   5  10 -10    3.35    0.78
  -5  15  10    3.63    0.95
  15  -5 -10    1.97    0.70
  15 -10  10    2.57    0.47
  10   5  10    2.72    0.57
 -15  10  10    2.35    0.79
  10 -15 -10    2.51    0.69
  15  -5 -10    2.31    0.58
   4  11  10   -0.17    0.40
  -4  15 -10    0.82    0.38
  15 -11 -10    0.69    0.40
  15  -4  10    0.62    0.28
 -11  15  10    0.30    0.42
   4  11  10    0.01    0.28
   4 -15 -10    0.42    0.48
  11   4 -10    1.10    0.50
  -4  15  10   -0.69    0.42
   4  11 -10    0.80    0.40
  15  -4 -10   -0.05    0.44
  11 -15 -10    0.34    0.41
 -15  11  10    0.67    0.58
  15 -11  10    0.48    0.30
  15  -4 -10    0.25    0.26
  11   4  10    0.17    0.26
  15  -3  10    2.52    0.52
   3  12  10    2.88    0.76
   3  12  10    2.99    0.66
  12   3 -10    2.50    0.80
  -3  15 -10    1.86    0.60
 -12  15  10    2.32    0.77
  15 -12 -10    2.65    0.79
  15  -3 -10    2.46    0.57
  15  -3 -10    2.71    0.74
  15 -12  10    3.16    0.56
 -15  12  10    3.96    0.95
  -3  15  10    2.76    0.79
  12   3  10    2.51    0.56
  12 -15 -10    3.23    0.81
   3  12 -10    1.83    0.60
  -3  15  10    2.86    0.69
 -13  15  10    6.51    1.23
  -2  15 -10    4.38    0.83
   2  13  10    4.66    0.83
  15  -2  10    4.63    0.71
  15 -13 -10    4.06    0.91
   2  13  10    7.33    1.23
  13   2 -10    4.62    1.01
  13 -15 -10    6.10    1.10
  15 -13  10    5.63    0.74
  -2  15  10    5.10    0.90
  13   2  10    4.74    0.73
   2  13 -10    3.74    0.82
  -2  15  10    6.74    1.34
  15  -2 -10    6.20    1.15
 -15  13  10    5.27    1.08
  15  -1  10    0.39    0.29
   1  14  10    0.54    0.53
  -1  15 -10    0.24    0.56
  14   1 -10    0.15    0.44
 -14  15  10    0.10    0.50
  14 -15  10    0.90    0.40
  15 -14 -10    0.43    0.44
   1  14  10    0.68    0.40
  15  -1 -10    0.04    0.44
 -15  14  10    0.91    0.52
  -1  15  10    0.42    0.57
  -1  15  10    0.02    0.31
  14   1  10    0.57    0.30
   1  14 -10    1.24    0.48
  14 -15 -10    0.64    0.44
  15 -14  10    0.83    0.45
   0  15  10    2.63    0.62
  15 -15  10    2.95    0.61
   0  15  10    3.15    0.99
  15   0 -10    2.88    0.82
  15   0  10    2.46    0.53
  15 -15 -10    2.70    0.75
 -15  15  10    3.20    0.90
   0  15 -10    1.73    0.64
  16  -8  10    0.41    0.27
   8   8  10    0.17    0.27
   8 -16 -10    0.39    0.41
  -8  16  10    0.68    0.53
  16  -8 -10    0.09    0.49
   8   8 -10    0.25    0.41
  16  -8 -10    0.43    0.37
   7   9  10    1.60    0.46
  16  -9 -10    0.44    0.35
  -9  16  10    0.52    0.48
   7 -16 -10    0.79    0.44
   9   7 -10    0.89    0.49
  16  -7  10    0.99    0.36
  -7  16  10   -0.27    0.43
 -16   9  10    0.36    0.55
  16  -7 -10    0.48    0.48
  16  -9  10    0.57    0.29
   9   7  10    0.12    0.26
  16  -7 -10    1.05    0.42
   7   9 -10    0.52    0.45
   9 -16 -10    0.15    0.42
   6 -16 -10    1.30    0.57
  16  -6  10    1.25    0.38
  10   6 -10    1.23    0.58
   6  10  10    1.56    0.46
 -10  16  10    1.41    0.68
  16 -10 -10    1.26    0.55
  -6  16  10    1.43    0.71
 -16  10  10    1.78    0.70
  10 -16 -10    1.91    0.67
   6  10 -10    0.72    0.48
  16  -6 -10    2.11    0.71
  16 -10  10    0.64    0.33
  10   6  10    0.68    0.34
  16  -6 -10    2.07    0.55
  11   5 -10    1.98    0.70
   5 -16 -10    0.78    0.52
   5  11  10    1.10    0.43
 -11  16  10    1.71    0.68
  16 -11 -10    1.89    0.59
  -5  16 -10    1.74    0.52
  16  -5  10    1.38    0.42
  -5  16  10    0.75    0.56
  11   5  10    0.90    0.37
  16  -5 -10    1.96    0.58
   5  11 -10    0.74    0.45
  16  -5 -10    1.89    0.64
  16 -11  10    0.96    0.36
 -16  11  10    0.75    0.56
  11 -16 -10    1.45    0.56
  16 -12 -10   -0.36    0.31
  16  -4  10    0.28    0.25
   4  12  10    1.05    0.48
  12   4 -10    0.91    0.57
 -12  16  10   -0.22    0.44
  -4  16 -10   -0.22    0.31
   4 -16 -10    0.65    0.46
   4  12  10    0.21    0.25
  12   4  10    0.53    0.30
   4  12 -10    0.23    0.38
  16  -4 -10    0.24    0.27
  -4  16  10    1.20    0.63
  16  -4 -10    0.82    0.46
 -16  12  10    0.57    0.58
  16 -12  10   -0.07    0.26
  12 -16 -10    0.89    0.49
  16  -3  10    0.87    0.32
   3  13  10    1.16    0.57
   3  13  10    1.24    0.46
 -13  16  10   -0.10    0.47
  13   3 -10    0.83    0.52
  -3  16 -10    0.11    0.33
  16 -13 -10    1.63    0.61
  16 -13  10    0.93    0.36
   3  13 -10    1.27    0.55
  -3  16  10    0.63    0.39
  16  -3 -10    0.27    0.43
  13 -16 -10    0.81    0.48
 -16  13  10    0.54    0.58
  -3  16  10    1.88    0.83
  13   3  10    0.66    0.36
  16  -2  10    2.12    0.45
 -14  16  10    1.58    0.68
   2  14  10    2.35    0.61
  16 -14 -10    2.07    0.66
  -2  16 -10    3.43    0.75
  14   2 -10    1.71    0.70
   2  14  10    1.70    0.76
 -16  14  10    0.74    0.65
  -2  16  10    2.27    0.74
  14 -16 -10    1.95    0.63
  14   2  10    2.00    0.49
  -2  16  10    2.20    0.56
   2  14 -10    1.76    0.61
  16  -2 -10    2.73    0.79
  16 -14  10    2.23    0.62
  16 -15 -10    0.63    0.46
   1  15  10    0.98    0.62
  -1  16 -10    1.16    0.72
 -15  16  10    0.33    0.52
   1  15  10    0.42    0.33
  15   1 -10    0.75    0.52
  16  -1  10    0.20    0.25
   1  15 -10    1.18    0.47
  16  -1 -10    1.12    0.59
  -1  16  10    0.78    0.60
 -16  15  10    1.12    0.68
  15   1  10   -0.10    0.22
  16 -15  10    0.79    0.43
  -1  16  10    0.70    0.32
  15 -16 -10    0.56    0.46
   0  16  10    1.88    0.51
   0  16  10    1.01    0.68
  16   0 -10    0.91    0.56
  16 -16  10    0.61    0.40
  16   0  10    0.60    0.32
 -16  16  10    1.13    0.70
   0  16 -10    0.12    0.42
  16 -16 -10    0.04    0.42
  17  -8  10    0.20    0.25
   8   9  10   -0.17    0.26
   8 -17 -10    0.06    0.44
  -9  17  10    0.20    0.46
   9   8 -10    0.13    0.40
  17  -9 -10    0.27    0.33
  17  -8 -10    0.44    0.41
  -8  17  10    0.53    0.62
   9   8  10   -0.25    0.23
  17  -9  10   -0.01    0.22
  17  -8 -10    0.18    0.49
   9 -17 -10   -0.33    0.32
   8   9 -10   -0.48    0.34
 -10  17  10    1.39    0.66
  17  -7  10    1.68    0.42
   7  10  10    2.48    0.54
   7 -17 -10    2.80    0.83
  17 -10 -10    2.29    0.65
  10   7 -10    2.48    0.73
   7  10 -10    1.62    0.62
  10 -17 -10    2.03    0.64
  10   7  10    1.29    0.40
 -17  10  10    1.95    0.68
  17  -7 -10    2.48    0.65
  -7  17  10    1.00    0.66
  17  -7 -10    2.21    0.75
  17 -10  10    1.49    0.43
 -11  17  10    1.52    0.72
  11   6 -10    2.21    0.69
   6  11  10    0.97    0.37
   6 -17 -10    1.70    0.62
  17  -6  10    1.87    0.45
  17 -11 -10    0.56    0.45
   6  11 -10    1.71    0.58
  11   6  10    1.47    0.45
  17  -6 -10    1.19    0.47
  17  -6 -10    2.19    0.74
  11 -17 -10    2.05    0.66
  -6  17  10    2.49    0.83
  17 -11  10    1.80    0.43
 -17  11  10    1.34    0.65
  17  -5  10    0.74    0.33
 -12  17  10    2.00    0.81
  12   5 -10    2.22    0.68
   5  12  10    1.67    0.49
  -5  17 -10    1.78    0.62
   5 -17 -10    2.17    0.68
  17 -12 -10    2.96    0.74
   5  12 -10    1.82    0.65
  -5  17  10    1.91    0.79
 -17  12  10    1.27    0.64
  12   5  10    1.02    0.41
  17 -12  10    1.91    0.48
  12 -17 -10    3.19    0.78
  17  -5 -10    1.91    0.63
  17  -5 -10    0.97    0.44
   4  13  10    0.31    0.33
  17 -13 -10    0.34    0.42
 -13  17  10    0.60    0.54
  13   4 -10   -0.07    0.43
  -4  17 -10    0.87    0.42
   4  13  10   -0.28    0.44
  17  -4  10    0.50    0.29
  13 -17 -10    0.36    0.45
  -4  17  10    0.74    0.43
   4  13 -10    0.10    0.40
  -4  17  10    1.07    0.68
  17 -13  10    0.67    0.36
 -17  13  10    1.16    0.57
  17  -4 -10    0.33    0.40
  13   4  10    0.33    0.31
  -3  17 -10    1.95    0.64
 -14  17  10    3.74    1.02
   3  14  10    3.84    0.93
  17 -14 -10    4.26    0.94
  17  -3  10    4.51    0.70
  14   3 -10    3.92    0.92
   3  14  10    4.49    0.79
 -17  14  10    3.92    0.93
   3  14 -10    4.98    0.96
  17 -14  10    5.19    0.84
  14   3  10    3.86    0.67
  17  -3 -10    3.36    0.81
  -3  17  10    3.73    1.09
  14 -17 -10    4.96    1.01
  -3  17  10    3.85    0.78
  15   2 -10    0.50    0.49
   2  15  10    0.69    0.37
  17  -2  10    0.78    0.31
 -15  17  10    0.70    0.62
   2  15  10    0.91    0.58
  17 -15 -10    0.73    0.53
  -2  17 -10    0.85    0.45
  -2  17  10    1.12    0.68
   2  15 -10    1.19    0.54
  17 -15  10    1.47    0.53
  17  -2 -10   -0.01    0.47
  15 -17 -10    0.77    0.49
 -17  15  10    1.10    0.60
  15   2  10    0.65    0.31
  -2  17  10    0.38    0.38
   1  16  10   -0.15    0.50
  17  -1  10    0.68    0.29
 -16  17  10   -0.60    0.45
  17 -16 -10    0.07    0.43
  16   1 -10   -0.77    0.39
  -1  17 -10    0.23    0.61
  16 -17 -10    0.49    0.45
 -17  16  10   -0.25    0.44
  17 -16  10    0.29    0.38
  -1  17  10    0.44    0.33
   1  16 -10    0.79    0.42
  -1  17  10    1.25    0.61
  17  -1 -10    0.21    0.43
  16   1  10    0.38    0.25
 -17  17  10    0.51    0.53
  17 -17  10    0.29    0.40
  17 -17 -10    0.88    0.48
   0  17 -10   -0.54    0.33
   0  17  10    1.63    0.68
  17   0 -10    0.13    0.50
  17   0  10    0.64    0.29
   9 -18 -10    0.63    0.48
   9   9 -10    0.58    0.47
  18  -9  10    0.39    0.31
   9   9  10    0.32    0.29
  18  -9 -10    0.81    0.45
  -9  18  10   -0.05    0.56
  18  -8  10    0.00    0.24
   8 -18 -10   -0.04    0.34
   8  10  10    0.44    0.32
  10   8 -10    0.13    0.41
 -10  18  10   -0.04    0.49
  18 -10 -10    0.46    0.36
  10 -18 -10   -0.20    0.40
  10   8  10    0.23    0.24
  -8  18  10   -1.32    0.46
   8  10 -10   -0.12    0.37
  18  -8 -10    0.42    0.34
 -18  10  10   -0.04    0.42
  18 -10  10    0.02    0.26
  18  -8 -10    0.99    0.64
  18 -11 -10    1.92    0.62
  18  -7  10    0.98    0.36
   7  11  10    1.43    0.43
   7 -18 -10    1.98    0.74
 -11  18  10    0.71    0.62
  11   7 -10    1.49    0.59
  18 -11  10    0.53    0.34
  -7  18  10    1.64    0.68
  11   7  10    0.35    0.30
  18  -7 -10    1.23    0.61
  18  -7 -10    0.52    0.39
  11 -18 -10    1.11    0.55
   7  11 -10    0.77    0.49
 -18  11  10    1.08    0.55
  12   6 -10    0.08    0.42
  18 -12 -10   -0.27    0.36
   6 -18 -10    0.12    0.45
  18  -6  10    0.14    0.23
   6  12  10   -0.07    0.32
 -12  18  10   -0.05    0.52
  18 -12  10   -0.02    0.28
  -6  18  10   -0.66    0.53
   6  12 -10    0.58    0.41
  18  -6 -10    0.42    0.37
  12 -18 -10    0.52    0.44
 -18  12  10    0.89    0.50
  12   6  10    0.44    0.31
  18  -6 -10    0.53    0.49
  18 -13 -10    2.38    0.66
  18  -5  10    1.95    0.46
  13   5 -10    2.28    0.73
 -13  18  10    2.10    1.00
   5  13  10    2.81    0.59
  -5  18 -10    2.13    0.63
  18 -13  10    2.21    0.62
  18  -5 -10    4.35    1.05
  -5  18  10    1.41    0.93
  13 -18 -10    1.84    0.69
   5  13 -10    1.61    0.63
  13   5  10    3.02    0.59
 -18  13  10    2.57    0.74
  18  -5 -10    2.43    0.66
   4  14  10    0.56    0.50
  14   4 -10    0.50    0.50
  -4  18 -10    0.41    0.40
  18 -14 -10    0.13    0.41
 -14  18  10   -0.35    0.47
  18  -4  10    0.75    0.33
  18 -14  10    0.35    0.42
  14 -18 -10    0.29    0.47
  -4  18  10    0.10    0.32
  -4  18  10   -0.48    0.51
  14   4  10    0.25    0.27
 -18  14  10    0.25    0.43
  18  -4 -10    1.05    0.57
   4  14 -10   -0.68    0.31
  18 -15 -10   -0.35    0.32
   3  15  10    1.11    0.58
  18  -3  10    0.75    0.33
  15   3 -10    1.03    0.49
  -3  18 -10    0.77    0.44
 -15  18  10   -1.19    0.50
  18 -15  10    0.96    0.47
  18  -3 -10    0.92    0.59
 -18  15  10   -0.02    0.42
  -3  18  10    0.44    0.37
  -3  18  10    0.74    0.63
  15 -18 -10    0.28    0.41
   3  15 -10    1.70    0.57
  15   3  10    1.12    0.38
   2  16  10    1.27    0.59
  18  -2  10    0.05    0.25
  18 -16 -10    0.45    0.37
  -2  18 -10    0.24    0.35
 -16  18  10    0.01    0.48
  16   2 -10    0.54    0.52
  16   2  10    1.19    0.39
  18  -2 -10    0.18    0.46
  18 -16  10    0.67    0.47
  16 -18 -10   -0.03    0.42
   2  16 -10    0.21    0.40
 -18  16  10    0.45    0.46
  -2  18  10    1.53    0.72
  -1  18 -10    0.26    0.40
  18  -1  10    0.37    0.27
 -17  18  10   -0.05    0.48
  17   1 -10    0.43    0.48
   1  17  10    2.01    0.75
  18 -17 -10    0.09    0.40
  18  -1 -10    0.31    0.50
   1  17 -10    1.12    0.47
 -18  17  10    0.50    0.51
  -1  18  10    0.15    0.55
  17   1  10    0.45    0.29
  18 -17  10    0.54    0.38
  17 -18 -10    0.58    0.45
 -18  18  10   -0.23    0.49
  18 -18 -10    0.00    0.40
  18   0 -10    0.48    0.53
   0  18  10    0.66    0.63
   0  18 -10   -0.17    0.41
  18   0  10    0.18    0.26
   9  10  10    0.31    0.26
 -10  19  10   -0.24    0.48
   9 -19 -10   -0.02    0.41
  10   9 -10   -0.23    0.35
  19 -10 -10    1.18    0.45
  19  -9  10    0.09    0.27
 -19  10  10    0.93    0.56
  -9  19  10   -0.43    0.54
   9  10 -10    0.07    0.38
  19 -10  10    0.48    0.30
  19  -9 -10   -0.17    0.31
  10 -19 -10   -0.63    0.38
  10   9  10    0.42    0.30
   8  11  10    0.24    0.31
  19  -8  10   -0.09    0.24
   8 -19 -10   -0.48    0.40
  11   8 -10    0.39    0.47
  19 -11 -10   -0.21    0.30
 -11  19  10   -0.13    0.50
  19 -11  10    0.12    0.26
  -8  19  10   -0.65    0.50
   8  11 -10   -0.92    0.33
  11   8  10   -0.22    0.23
 -19  11  10    0.04    0.42
  19  -8 -10    0.98    0.56
  11 -19 -10    0.22    0.39
  19  -8 -10    0.18    0.34
 -12  19  10   -0.10    0.54
  19  -7  10    0.07    0.22
  19 -12 -10    0.48    0.39
  12   7 -10    0.19    0.45
   7 -19 -10    0.31    0.44
   7  12 -10    0.08    0.39
  12 -19 -10   -0.25    0.33
 -19  12  10    0.04    0.40
  12   7  10    0.21    0.29
  19  -7 -10    0.46    0.45
  19 -12  10   -0.43    0.24
  19  -7 -10   -0.29    0.31
  -7  19  10   -0.78    0.54
  19 -13 -10    0.47    0.42
 -13  19  10    0.06    0.50
   6 -19 -10    0.85    0.52
  13   6 -10    1.55    0.58
  19  -6  10    0.76    0.28
  13 -19 -10    0.74    0.50
  19  -6 -10    2.14    0.68
  13   6  10    0.84    0.36
  19  -6 -10    0.44    0.38
  19 -13  10    1.36    0.56
   6  13 -10    1.36    0.54
  -6  19  10    2.36    0.76
 -19  13  10    0.64    0.47
 -14  19  10    0.92    0.72
  19 -14 -10    2.44    0.73
  -5  19 -10    1.91    0.58
  19  -5  10    2.73    0.53
  14   5 -10    1.88    0.69
  -5  19  10    2.92    0.69
  19 -14  10    2.67    0.68
 -19  14  10    2.52    0.77
  19  -5 -10    1.35    0.65
   5  14 -10    2.23    0.69
  14   5  10    2.02    0.47
  14 -19 -10    2.21    0.78
  -5  19  10    1.47    0.68
  19 -15 -10    1.18    0.58
 -15  19  10    0.39    0.53
  -4  19 -10    1.07    0.52
  19  -4  10    0.25    0.27
   4  15  10   -0.57    0.45
  15   4 -10    1.10    0.54
  15 -19 -10    0.64    0.49
  15   4  10    0.45    0.30
   4  15 -10    0.11    0.42
  19  -4 -10   -0.02    0.46
  19 -15  10    0.74    0.47
  -4  19  10    0.64    0.63
 -19  15  10    1.00    0.54
  -3  19 -10   -0.43    0.37
 -16  19  10    0.06    0.50
  19  -3  10    0.09    0.27
   3  16  10   -0.23    0.46
  19 -16 -10    0.39    0.45
  16   3 -10    0.30    0.53
  -3  19  10   -0.24    0.57
  19 -16  10    0.25    0.38
  16 -19 -10   -0.24    0.41
  19  -3 -10   -0.79    0.42
   3  16 -10   -0.16    0.38
  16   3  10    0.57    0.30
 -19  16  10   -0.16    0.46
  19  -2  10    0.33    0.30
 -17  19  10    1.18    0.68
  -2  19 -10   -0.10    0.39
  19 -17 -10   -0.04    0.45
   2  17  10    1.19    0.66
  17   2 -10    0.17    0.50
  17   2  10    0.39    0.27
  19  -2 -10    0.65    0.51
  19 -17  10    0.80    0.38
 -19  17  10    0.36    0.54
  -2  19  10    1.29    0.66
   2  17 -10    0.99    0.49
  17 -19 -10   -0.65    0.46
  -1  19 -10   -0.35    0.42
 -18  19  10    0.14    0.47
  19 -18 -10    0.13    0.46
   1  18  10    1.78    0.77
  19  -1  10   -0.26    0.22
  18   1 -10    0.60    0.51
  19  -1 -10   -0.07    0.49
   1  18 -10    0.46    0.42
  19 -18  10   -0.57    0.29
  18   1  10    0.16    0.26
  18 -19 -10   -0.22    0.44
 -19  18  10    0.20    0.56
  -1  19  10   -0.76    0.61
   0  19 -10    0.37    0.51
  19 -19 -10    0.63    0.53
 -19  19  10   -0.23    0.49
   0  19  10    1.14    0.59
  19   0 -10    0.80    0.51
  19   0  10    0.04    0.28
  20 -10 -10    1.17    0.54
 -20  10  10    1.27    0.68
  10 -20 -10    0.87    0.58
  20 -10  10    0.83    0.40
 -10  20  10   -0.53    0.61
  10  10 -10    1.96    0.63
   9 -20 -10    0.21    0.49
 -11  20  10   -0.19    0.59
  20  -9  10    0.19    0.27
  20 -11 -10    0.52    0.38
  11   9 -10    0.45    0.46
  20  -9 -10    0.45    0.52
 -20  11  10    0.25    0.47
  20  -9 -10    0.71    0.41
  11   9  10    0.12    0.28
  11 -20 -10   -0.17    0.42
   9  11 -10   -0.26    0.39
  -9  20  10    0.23    0.56
  20 -11  10    0.18    0.32
   8 -20 -10    0.76    0.49
  20 -12 -10    0.75    0.54
 -12  20  10    0.11    0.60
  12   8 -10    0.13    0.55
  20  -8  10    0.79    0.32
  20  -8 -10   -0.31    0.37
   8  12 -10    0.99    0.52
  12   8  10    0.46    0.26
  12 -20 -10   -0.08    0.37
  -8  20  10    0.25    0.68
  20 -12  10    0.72    0.42
  20  -8 -10    1.26    0.59
 -20  12  10    0.37    0.47
  20 -13 -10    1.01    0.50
  13   7 -10   -0.02    0.48
 -13  20  10    0.04    0.56
  20  -7  10   -0.10    0.22
 -20  13  10    0.43    0.54
  20  -7 -10    0.31    0.45
  13   7  10    0.30    0.29
  20 -13  10    0.39    0.46
  20  -7 -10    0.46    0.55
  -7  20  10    0.14    0.58
  13 -20 -10    0.88    0.51
   7  13 -10    1.44    0.54
  20  -6  10    2.13    0.48
  20 -14 -10    1.91    0.71
  14   6 -10    1.85    0.71
 -14  20  10    2.19    0.87
  -6  20  10    1.90    0.72
  14 -20 -10    1.81    0.63
  20 -14  10    2.38    0.64
   6  14 -10    2.88    0.78
  14   6  10    2.37    0.50
  20  -6 -10    1.55    0.73
 -20  14  10    1.69    0.63
 -15  20  10    0.37    0.70
  -5  20 -10    0.07    0.48
  20  -5  10    0.92    0.36
  20 -15 -10    0.31    0.44
  15   5 -10    0.80    0.54
  20  -5 -10    0.85    0.65
  20 -15  10    1.54    0.58
  15   5  10    0.87    0.33
  -5  20  10    2.60    0.79
  15 -20 -10    0.21    0.51
 -20  15  10    1.02    0.54
   5  15 -10    0.83    0.55
  20  -4  10    0.10    0.24
  20 -16 -10    0.50    0.44
 -16  20  10   -0.24    0.94
  16   4 -10    0.13    0.50
  -4  20 -10   -0.30    0.39
  16 -20 -10   -0.42    0.43
  -4  20  10   -0.15    0.60
  20  -4 -10    0.91    0.54
   4  16 -10    0.00    0.39
 -20  16  10    0.15    0.50
  16   4  10   -0.11    0.22
  20 -16  10    0.61    0.39
  17   3 -10   -0.59    0.49
  20 -17 -10    0.72    0.51
   3  17  10    0.78    0.50
 -17  20  10    0.06    0.53
  20  -3  10   -0.14    0.23
  -3  20 -10    0.09    0.44
  -3  20  10   -0.99    0.60
   3  17 -10    1.28    0.49
  17   3  10    0.61    0.32
  20 -17  10    0.11    0.39
  17 -20 -10    0.74    0.53
 -20  17  10   -0.15    0.43
  20  -3 -10   -0.03    0.55
  20  -2  10    0.08    0.26
  -2  20 -10    1.40    0.79
   2  18  10    0.13    0.52
  18 -20 -10    0.55    0.50
  20 -18  10   -0.12    0.30
  20  -2 -10   -1.15    0.47
  18   2  10    0.44    0.26
  -2  20  10   -0.34    0.66
   2  18 -10    0.26    0.47
  10 -21 -10   -0.44    0.41
  11  10 -10    0.03    0.42
 -21  10  10   -0.20    0.56
 -11  21  10   -0.05    0.62
  21 -10  10    0.41    0.33
  21 -11 -10    0.93    0.44
 -10  21  10    0.44    0.72
  21 -11  10    0.13    0.27
  11 -21 -10    0.83    0.46
 -21  11  10   -0.01    0.53
  21 -10 -10   -0.44    0.35
  10  11 -10    0.19    0.46
  21  -9  10    1.92    0.56
 -12  21  10    1.50    0.76
  21 -12 -10    2.28    0.71
  12   9 -10    1.73    0.70
   9 -21 -10    2.58    0.71
   9  12 -10    0.57    0.52
  21  -9 -10    1.80    0.62
 -21  12  10    1.60    0.73
  21 -12  10    1.67    0.62
  21  -9 -10    2.63    0.74
  -9  21  10    1.16    0.68
  12 -21 -10    0.92    0.60
  13   8 -10    0.08    0.48
  21  -8  10    0.42    0.27
 -13  21  10    0.09    0.63
  21 -13 -10    0.30    0.40
  21  -8 -10    1.25    0.63
  21  -8 -10   -0.47    0.38
  21 -13  10    0.12    0.41
  -8  21  10    0.36    0.61
  13 -21 -10    0.59    0.48
 -21  13  10   -0.36    0.46
   8  13 -10    0.54    0.46
 -14  21  10    0.16    0.58
  21  -7  10    0.54    0.30
  14   7 -10    0.07    0.49
  21 -14 -10   -0.07    0.40
  14 -21 -10    0.74    0.49
  14   7  10    0.39    0.29
  21  -7 -10    1.12    0.61
   7  14 -10    1.36    0.58
  -7  21  10    1.31    0.77
 -21  14  10   -0.02    0.48
  21 -14  10    0.37    0.40
  21  -6  10    0.16    0.23
  15   6 -10   -1.24    0.44
  21 -15 -10    0.90    0.48
 -15  21  10   -1.20    0.61
  21  -6 -10    0.57    0.51
   6  15 -10    0.03    0.43
  15   6  10   -0.05    0.26
  15 -21 -10    0.77    0.59
  21 -15  10    0.65    0.46
  -6  21  10   -0.35    0.67
 -21  15  10   -0.06    0.49
  21  -5  10    0.17    0.28
  21 -16 -10   -0.57    0.38
 -16  21  10   -0.82    0.56
  16   5 -10   -0.07    0.53
   5  16 -10    0.51    0.54
  21  -5 -10    0.44    0.53
 -21  16  10   -0.02    0.49
  16   5  10    0.09    0.30
  -5  21  10   -1.00    0.63
  16 -21 -10    0.71    0.50
  21 -16  10    1.26    0.52
  -4  21 -10    0.75    0.50
   4  17 -10    0.28    0.47
  11  11 -10   -0.09    0.50
 -22  11  10    1.20    0.69
  22 -11  10    1.09    0.59
  22 -11 -10    0.48    0.47
 -11  22  10    0.39    0.66
  11 -22 -10    0.29    0.47
 -12  22  10   -0.51    0.64
  12  10 -10    0.48    0.54
 -22  10  10    0.07    0.61
  22 -12 -10    0.63    0.48
  12 -22 -10    0.71    0.53
  22 -12  10   -0.01    0.52
  22 -10 -10   -0.22    0.37
 -22  12  10    0.39    0.55
  10  12 -10    0.29    0.50
 -10  22  10   -0.45    0.65
  22 -13 -10   -0.60    0.42
  22  -9 -10   -0.29    0.40
  13 -22 -10    0.22    0.55
  22 -13  10    0.46    0.45
  -9  22  10   -0.38    0.72
   9  13 -10   -0.46    0.44
   8  14 -10    0.94    0.61
  -8  22  10    0.84    0.72
   0   0  11    0.27    0.21
  -1   1  11    0.04    0.20
  -1   1  11   -0.11    0.16
   0   1  11   -0.07    0.18
   0   1 -11    0.02    0.13
   0   1  11    0.17    0.15
  -1   1 -11   -0.01    0.13
   1  -1  11   -0.03    0.18
   1   0 -11   -0.03    0.15
   0  -1  11   -0.18    0.16
   1   0  11   -0.04    0.17
   1   0  11    0.09    0.14
  -1   0  11    0.03    0.17
   1   1  11   42.29    2.15
   1  -2  11   41.73    2.02
   2  -1  11   40.42    1.76
  -1  -1  11   40.73    2.02
   2  -1  11   43.43    2.10
   2  -1 -11   46.17    2.10
  -1   2  11   44.75    2.21
   1   1  11   39.71    1.87
   1   1 -11   42.95    2.03
  -1   2 -11   42.30    1.89
  -1   2  11   40.51    1.96
   2   0  11   -0.12    0.19
  -2   2  11    0.12    0.21
   2  -2 -11    0.31    0.28
   2   0  11   -0.03    0.11
   2   0 -11    0.10    0.16
   0  -2  11   -0.15    0.14
  -2   2 -11    0.01    0.10
   0   2  11    0.03    0.19
   0   2 -11   -0.12    0.14
  -2   0  11   -0.10    0.14
   0   2  11    0.08    0.14
   2  -2  11    0.24    0.22
   2   1 -11    7.69    0.70
  -2   3  11    7.14    0.70
   3  -1  11    7.41    0.81
   1   2  11    7.17    0.60
   3  -2 -11    7.89    0.93
   2  -3  11    6.71    0.71
   3  -2 -11    8.14    0.73
  -1   3 -11    8.39    0.61
  -1  -2  11    8.43    0.69
   1   2  11    7.04    0.85
  -1   3  11    7.90    0.90
   3  -2  11    8.64    0.82
   2   1  11    6.79    0.83
  -2  -1  11    6.92    0.72
   1   2 -11    7.15    0.65
  -1   3  11    8.15    0.68
   3  -1 -11    7.84    0.91
   1  -3  11    7.50    0.66
   2   1  11    8.10    0.58
  -2   3 -11    7.90    0.55
   3  -1 -11    7.75    0.78
   2  -3 -11    8.90    1.03
   3   0 -11   -0.12    0.15
   0   3  11    0.07    0.16
   0   3  11    0.13    0.22
  -3   3  11   -0.06    0.19
   3   0 -11   -0.28    0.19
   3   0  11   -0.09    0.18
   3  -3 -11   -0.01    0.20
   3  -3  11   -0.06    0.17
   0   3 -11    0.01    0.15
   0  -3  11    0.10    0.17
   4  -2 -11   11.76    1.00
   2  -4 -11   11.49    1.21
   2   2  11   12.41    0.85
  -2   4  11   13.78    0.96
   2   2 -11   11.76    0.92
   2   2  11   12.76    1.02
   4  -2 -11   11.28    0.95
  -2   4 -11   10.90    0.74
   4  -2  11   12.13    0.92
   2  -4  11   12.49    0.83
  -2  -2  11   13.80    0.89
   3   1 -11   20.82    1.30
   1   3  11   18.15    1.20
   1   3  11   17.56    1.28
  -1  -3  11   18.30    1.09
  -3   4  11   19.61    1.23
   4  -3 -11   18.55    1.35
   4  -1  11   19.07    1.23
   3   1 -11   17.67    1.19
  -1   4 -11   20.23    1.13
   3  -4  11   20.15    1.15
   1   3 -11   18.04    1.17
   4  -1 -11   20.42    1.32
   3  -4 -11   18.50    1.39
  -1   4  11   19.47    1.36
  -1   4  11   19.43    1.22
   1  -4  11   19.53    1.10
   4  -3  11   20.57    1.20
   3   1  11   17.21    1.24
   4  -1 -11   16.94    1.23
   0   4  11   -0.14    0.21
   0  -4  11   -0.07    0.15
   4  -4  11    0.02    0.18
   4  -4 -11   -0.36    0.19
   4   0  11    0.19    0.22
   4   0 -11    0.00    0.21
  -4   4  11   -0.02    0.21
   0   4  11    0.20    0.22
   4   0 -11   -0.15    0.19
   0   4 -11    0.07    0.17
   3   2 -11    4.23    0.66
   5  -2  11    5.08    0.67
   5  -3 -11    5.06    0.77
  -3   5  11    5.36    0.71
   3  -5  11    4.96    0.56
   5  -3 -11    4.77    0.72
   2   3  11    5.40    0.67
   2   3  11    4.27    0.71
  -2  -3  11    4.88    0.55
  -2   5 -11    5.62    0.56
   2  -5 -11    5.93    0.91
   5  -2 -11    4.88    0.72
   2  -5  11    4.69    0.54
  -2   5  11    5.19    0.70
  -3  -2  11    4.40    0.55
   5  -2 -11    4.29    0.69
  -3   5 -11    4.93    0.43
   3  -5 -11    4.35    0.78
   3   2  11    4.76    0.71
   2   3 -11    4.81    0.67
   5  -3  11    6.12    0.69
  -1   5 -11   26.03    1.44
  -4   5  11   25.12    1.54
  -1  -4  11   25.77    1.32
   5  -4 -11   28.68    1.73
   4   1 -11   27.19    1.52
   4  -5  11   24.26    1.35
   1   4  11   23.77    1.58
   5  -1  11   27.33    1.55
   1   4  11   26.02    1.54
   4   1 -11   27.99    1.64
  -1   5  11   27.26    1.70
   5  -4  11   23.13    1.38
   1   4 -11   29.09    1.57
  -1   5  11   25.28    1.56
   4  -5 -11   29.37    1.80
   4   1  11   23.40    1.52
   5  -1 -11   26.19    1.57
   5  -1 -11   26.79    1.64
   1  -5  11   24.30    1.27
  -5   4  11   24.31    1.55
   0  -5  11   -0.11    0.13
   5   0  11   -0.03    0.19
   0   5  11    0.17    0.25
   5   0 -11    0.00    0.22
   0   5 -11    0.13    0.17
   5  -5 -11    0.33    0.31
   5  -5  11   -0.06    0.16
   0   5  11    0.24    0.22
   5   0 -11   -0.26    0.15
  -5   5  11   -0.31    0.22
  -3   6  11   50.50    2.62
   6  -3 -11   52.13    2.70
  -3   6 -11   54.37    2.32
   3  -6  11   51.98    2.23
   6  -3 -11   48.81    2.56
   3  -6 -11   52.85    2.83
   3   3  11   47.86    2.55
   3   3 -11   55.57    2.68
   6  -3  11   50.13    2.41
  -3  -3  11   53.80    2.29
   4   2 -11    2.62    0.46
  -4   6  11    2.07    0.46
   2  -6 -11    2.94    0.69
   6  -2  11    2.88    0.52
   4  -6  11    2.35    0.40
   6  -4 -11    2.07    0.53
   6  -4 -11    1.81    0.49
  -2  -4  11    2.12    0.35
   4   2 -11    3.23    0.61
   2   4  11    1.43    0.44
  -2   6 -11    3.00    0.44
   2   4  11    1.37    0.41
   2   4 -11    2.45    0.50
   2  -6  11    2.88    0.40
  -2   6  11    3.00    0.57
   6  -4  11    2.53    0.47
   4   2  11    2.32    0.51
   4  -6 -11    2.90    0.64
   6  -2 -11    2.70    0.53
   6  -2 -11    1.80    0.48
   5   1 -11    3.29    0.54
   6  -1  11    3.81    0.62
  -1   6 -11    3.72    0.54
   5  -6  11    3.62    0.50
   6  -5 -11    3.69    0.69
   1   5  11    2.99    0.62
  -5   6  11    3.92    0.65
   1   5  11    3.93    0.70
   5   1 -11    2.99    0.62
  -1  -5  11    4.26    0.45
   6  -1 -11    2.86    0.59
   1   5 -11    3.09    0.55
   1  -6  11    4.14    0.43
   5  -6 -11    2.60    0.64
   6  -1 -11    2.69    0.53
  -1   6  11    3.03    0.68
   5   1  11    2.67    0.55
   6  -5  11    4.05    0.57
  -6   5  11    3.28    0.62
  -1   6  11    2.85    0.61
   6   0 -11    0.32    0.27
   6  -6  11   -0.08    0.14
   0   6  11    0.12    0.25
   0   6 -11    0.23    0.19
   6   0  11    0.19    0.26
   6  -6 -11   -0.14    0.21
   6   0 -11   -0.05    0.18
  -6   6  11   -0.33    0.20
   0   6  11    0.29    0.30
   4   3 -11    1.55    0.45
   7  -3  11    2.41    0.49
   7  -4 -11    1.92    0.51
   7  -4 -11    2.28    0.55
   3   4  11    1.62    0.46
   4  -7  11    2.46    0.38
  -3   7 -11    2.08    0.37
  -4   7  11    2.01    0.50
   3  -7 -11    3.51    0.75
   4  -7 -11    1.75    0.56
   7  -3 -11    1.67    0.52
  -3   7  11    2.31    0.54
   7  -4  11    1.86    0.43
   3  -7  11    2.69    0.37
   3   4 -11    2.42    0.52
   7  -3 -11    2.68    0.54
   4   3  11    2.48    0.56
   2   5  11    7.40    0.95
  -5   7  11    6.43    0.88
   2   5  11    7.02    0.90
   7  -2  11    7.46    0.83
   5   2 -11    8.98    1.02
  -2   7 -11    7.55    0.67
   5   2 -11    7.92    0.68
   7  -5 -11    7.91    0.98
   2  -7 -11    7.78    1.12
   5  -7  11    6.27    0.56
  -2   7  11    6.91    0.94
   7  -5  11    7.21    0.74
   2   5 -11    8.56    0.92
  -7   5  11    6.70    0.90
   2  -7  11    7.09    0.53
   7  -2 -11    8.36    1.02
   5   2  11    7.51    0.89
   7  -2 -11    7.97    0.88
   5  -7 -11    7.80    1.08
   1   6  11    3.82    0.69
   6   1 -11    4.45    0.78
  -6   7  11    5.10    0.78
  -1   7 -11    4.45    0.62
   1   6  11    3.82    0.73
   6   1 -11    4.54    0.61
   6  -7  11    4.89    0.55
   7  -1  11    4.87    0.69
   7  -6 -11    4.09    0.74
   1   6 -11    3.59    0.61
   7  -1 -11    4.25    0.78
   6  -7 -11    6.17    0.93
   7  -6  11    4.94    0.61
  -1   7  11    5.33    0.85
  -7   6  11    4.51    0.74
   7  -1 -11    4.93    0.69
  -1   7  11    3.71    0.71
   6   1  11    5.81    0.77
   0   7 -11    0.09    0.19
  -7   7  11   -0.19    0.20
   7  -7  11    0.06    0.21
   7  -7 -11    0.30    0.27
   0   7  11    0.19    0.26
   7   0  11   -0.06    0.18
   0   7  11   -0.19    0.32
   7   0 -11    0.14    0.31
   7   0 -11    0.10    0.16
   8  -4  11   68.96    2.86
   4  -8  11   60.55    2.50
   8  -4 -11   57.59    3.16
   8  -4 -11   63.10    3.03
   4  -8 -11   65.63    3.31
   4   4  11   64.31    3.05
  -4   8  11   56.40    3.12
   4   4 -11   61.78    3.15
   8  -5 -11    3.14    0.68
   3   5  11    2.17    0.54
   5   3 -11    3.19    0.66
   8  -5 -11    2.82    0.60
  -3   8 -11    2.42    0.44
   5  -8  11    3.11    0.41
   3  -8 -11    2.12    0.62
   3   5  11    2.67    0.57
  -5   8  11    1.80    0.50
   8  -3  11    3.27    0.55
   8  -5  11    2.38    0.47
   8  -3 -11    2.03    0.46
   5  -8 -11    2.81    0.71
  -3   8  11    2.92    0.68
   3   5 -11    3.29    0.65
   5   3  11    2.33    0.54
   8  -3 -11    2.25    0.57
  -2   8 -11    7.27    0.77
   6   2 -11    5.48    0.66
   2   6  11    6.97    0.95
   6  -8  11    6.57    0.56
   2  -8 -11    6.87    1.08
   2   6  11    6.31    0.94
   8  -2  11    7.28    0.83
   6   2 -11    7.55    1.00
   8  -6 -11    7.34    0.99
  -6   8  11    6.49    0.92
   6   2  11    7.66    0.90
   6  -8 -11    8.94    1.16
  -8   6  11    6.65    0.92
   2   6 -11    5.72    0.82
   8  -6  11    6.21    0.70
   8  -2 -11    5.66    0.88
  -2   8  11    5.94    0.93
   8  -2 -11    6.71    0.83
   1   7  11    5.31    0.91
  -1   8 -11    5.30    0.72
   1   7  11    5.16    0.83
  -7   8  11    5.98    0.90
   7   1 -11    6.58    0.98
   7   1 -11    5.97    0.69
   7  -8  11    5.76    0.59
   8  -7 -11    4.71    0.82
   8  -1  11    5.14    0.73
   1   7 -11    5.63    0.78
  -8   7  11    6.26    0.91
  -1   8  11    5.20    0.86
   7   1  11    5.79    0.79
   7  -8 -11    6.24    0.97
   8  -7  11    6.40    0.67
  -1   8  11    5.20    0.92
   8  -1 -11    5.21    0.72
   8  -1 -11    5.86    0.92
   8  -8 -11   -0.20    0.25
   8   0  11   -0.03    0.18
  -8   8  11    0.20    0.34
   0   8  11    0.05    0.24
   0   8 -11    0.18    0.21
   8  -8  11   -0.03    0.19
   8   0 -11   -0.36    0.22
   0   8  11   -0.23    0.33
   8   0 -11    0.09    0.20
  -5   9  11    4.87    0.85
   5  -9  11    4.05    0.43
   9  -4  11    4.90    0.65
   9  -5 -11    4.71    0.79
   5   4 -11    3.75    0.72
   4   5  11    4.70    0.77
   9  -5 -11    3.80    0.77
   4  -9 -11    4.90    0.93
   9  -5  11    4.21    0.61
   9  -4 -11    3.86    0.76
   5   4  11    4.31    0.73
   5  -9 -11    4.84    0.87
   9  -4 -11    2.61    0.57
   4   5 -11    3.18    0.66
  -4   9  11    5.34    0.91
   6  -9  11   11.28    0.71
   9  -3  11   10.25    0.87
  -6   9  11   13.19    1.32
   3  -9 -11   12.55    1.42
   6   3 -11    9.67    1.18
  -3   9 -11    9.44    0.82
   3   6  11    9.63    1.11
   3   6  11   11.23    1.18
   9  -6 -11   11.65    1.19
   6   3  11    9.90    1.06
   3   6 -11   10.30    1.12
   9  -6  11   11.42    0.86
  -3   9  11   10.44    1.28
   9  -3 -11   10.74    1.23
   9  -3 -11    9.67    1.02
   6  -9 -11   10.07    1.29
   7   2 -11    1.68    0.55
   9  -7 -11    1.75    0.51
   2  -9 -11    1.23    0.52
   2   7  11    0.95    0.43
   9  -2  11    0.95    0.33
  -2   9 -11    2.12    0.47
   2   7  11    1.44    0.48
  -7   9  11    1.68    0.54
   7  -9  11    0.94    0.27
  -2   9  11    1.45    0.59
   7  -9 -11    2.06    0.59
   9  -2 -11    1.11    0.36
   7   2  11    1.26    0.40
   2   7 -11    1.13    0.40
   9  -7  11    1.33    0.35
   9  -2 -11    1.79    0.52
  -9   7  11    1.14    0.50
  -8   9  11    7.99    1.08
   1   8  11    6.22    1.04
   8   1 -11    5.79    0.71
   9  -1  11    7.56    0.87
  -1   9 -11    5.70    0.78
   9  -8 -11    6.12    0.98
   8  -9  11    6.55    0.57
   1   8  11    7.71    1.00
   8   1 -11    6.43    0.99
   1   8 -11    5.74    0.83
  -1   9  11    6.05    0.93
  -9   8  11    5.61    0.94
  -1   9  11    6.07    1.06
   9  -8  11    7.56    0.63
   8   1  11    6.53    0.84
   9  -1 -11    5.71    0.95
   9  -1 -11    6.63    0.81
   8  -9 -11    7.13    1.07
   9   0 -11    0.03    0.16
   9   0 -11   -0.29    0.27
   9  -9 -11   -0.09    0.29
   0   9 -11   -0.16    0.22
  -9   9  11    0.26    0.37
   0   9  11   -0.24    0.39
   9  -9  11   -0.18    0.17
   0   9  11   -0.14    0.24
   9   0  11   -0.05    0.21
  10  -5 -11    2.94    0.69
  -5  10  11    2.60    0.65
   5   5  11    2.67    0.59
  10  -5  11    2.75    0.50
   5   5 -11    3.18    0.71
  10  -5 -11    3.36    0.68
   5 -10 -11    2.48    0.69
   6   4 -11    8.52    1.13
  10  -6 -11    7.47    1.10
  -6  10  11    9.82    1.24
  10  -6 -11    8.29    1.05
   4 -10 -11   10.13    1.33
  -4  10 -11    7.37    0.81
   4   6  11   11.70    1.16
  10  -4  11    9.44    0.82
   4   6 -11    8.67    1.09
  10  -6  11    9.81    0.81
   6   4  11    8.81    1.00
  10  -4 -11    8.83    1.03
  10  -4 -11    9.83    1.23
  -4  10  11   10.34    1.31
   6 -10 -11    7.84    1.17
  10  -7 -11    0.25    0.29
   3 -10 -11   -0.33    0.34
  10  -3  11    0.04    0.21
   3   7  11    0.33    0.36
   3   7  11    0.38    0.34
  -7  10  11    0.03    0.32
  -3  10 -11   -0.23    0.20
   7 -10  11    0.06    0.17
   7   3 -11   -0.39    0.24
   7   3  11   -0.01    0.24
 -10   7  11    0.01    0.37
  10  -3 -11   -0.14    0.21
   3   7 -11   -0.24    0.24
   7 -10 -11    0.24    0.32
  -3  10  11   -0.10    0.34
  10  -7  11    0.04    0.19
  10  -3 -11   -0.28    0.24
  -8  10  11    7.28    1.10
   8 -10  11    8.83    0.64
   8   2 -11    8.07    1.13
  10  -8 -11    7.21    1.04
   2   8  11    7.71    1.02
  10  -2  11    7.02    0.85
  -2  10 -11    8.08    0.89
   2   8  11    8.13    1.18
  -2  10  11    8.81    1.30
 -10   8  11    7.68    1.08
   2   8 -11    8.43    1.02
  10  -2 -11    7.38    1.12
  10  -8  11    8.20    0.70
   8 -10 -11    6.78    1.08
  10  -2 -11    9.51    0.98
   8   2  11    8.58    0.97
  10  -9 -11    6.08    0.97
   1   9  11    4.99    0.83
   1   9  11    4.84    1.01
   9 -10  11    5.55    0.59
  -9  10  11    6.71    1.06
  -1  10 -11    5.97    0.81
  10  -1  11    6.05    0.80
   9   1 -11    7.24    1.12
  10  -1 -11    6.84    1.08
 -10   9  11    5.74    0.98
   9   1  11    5.31    0.78
   9 -10 -11    6.61    1.06
  10  -1 -11    5.29    0.75
  -1  10  11    6.73    1.14
  -1  10  11    4.96    0.87
   1   9 -11    6.71    0.93
  10  -9  11    6.22    0.65
   0  10 -11   -0.03    0.24
   0  10  11   -0.02    0.26
  10   0  11    0.09    0.21
  10 -10 -11    0.67    0.42
   0  10  11    0.22    0.38
  10 -10  11   -0.10    0.15
 -10  10  11   -0.34    0.33
  10   0 -11    0.22    0.31
  11  -6 -11    5.42    0.96
  11  -5  11    6.21    0.76
   5   6  11    5.86    0.89
   6   5 -11    3.82    0.81
  11  -6 -11    5.48    0.88
  -6  11  11    5.88    1.03
   5 -11 -11    7.06    1.12
   6 -11 -11    6.76    1.10
  11  -6  11    6.99    0.76
  11  -5 -11    5.50    0.87
   5   6 -11    6.53    0.98
  -5  11  11    5.48    1.12
  11  -5 -11    7.40    1.10
   6   5  11    5.32    0.79
  11  -4  11    2.32    0.50
  -7  11  11    2.10    0.65
  -4  11 -11    1.35    0.50
  11  -7 -11    1.57    0.53
   7   4 -11    2.43    0.63
   4 -11 -11    2.33    0.65
   4   7  11    1.59    0.49
   4   7 -11    1.73    0.55
  11  -7  11    1.82    0.41
   7   4  11    1.06    0.43
 -11   7  11    1.39    0.63
   7 -11 -11    2.42    0.67
  11  -4 -11    1.94    0.59
  -4  11  11    1.91    0.64
  11  -4 -11    1.36    0.46
   3   8  11    3.16    0.68
  11  -8 -11    2.76    0.72
   8   3 -11    2.48    0.66
  11  -3  11    2.71    0.52
  -3  11 -11    2.44    0.52
   3 -11 -11    2.88    0.80
  -8  11  11    2.90    0.74
   3   8  11    2.29    0.64
   8 -11  11    3.40    0.42
   8 -11 -11    2.82    0.76
   3   8 -11    2.27    0.62
  11  -3 -11    3.20    0.62
  11  -3 -11    3.62    0.81
  11  -8  11    2.31    0.44
 -11   8  11    2.70    0.73
  -3  11  11    2.44    0.72
   8   3  11    2.94    0.59
  -2  11 -11    0.68    0.31
  11  -9 -11    0.37    0.38
  -9  11  11    0.48    0.41
   2   9  11    0.53    0.36
   9   2 -11    0.19    0.33
   2   9  11    0.03    0.43
  11  -2  11   -0.25    0.19
   9 -11  11    0.47    0.22
  11  -2 -11    0.72    0.38
  -2  11  11   -0.04    0.26
   9   2  11    0.71    0.33
   2   9 -11    0.97    0.37
   9 -11 -11    0.56    0.37
 -11   9  11    0.56    0.46
  -2  11  11    0.66    0.38
  11  -9  11    0.45    0.25
  11  -2 -11    0.36    0.26
   1  10  11   14.23    1.63
  -1  11 -11   14.02    1.16
   1  10  11   14.57    1.25
 -10  11  11   14.89    1.57
  11  -1  11   12.58    1.05
  11 -10 -11   12.63    1.44
  10   1 -11   13.45    1.54
  10 -11  11   13.12    0.84
  10 -11 -11   12.00    1.45
  10   1  11   11.63    1.03
   1  10 -11   12.93    1.30
  11  -1 -11   12.31    1.05
 -11  10  11   13.61    1.47
  -1  11  11   16.05    1.77
  11  -1 -11   13.11    1.54
  -1  11  11   13.07    1.38
  11 -10  11   13.28    0.90
 -11  11  11   -0.15    0.34
   0  11  11    0.28    0.29
   0  11 -11    0.18    0.27
  11 -11  11    0.04    0.20
  11 -11 -11    0.19    0.35
  11   0 -11    0.01    0.32
  11   0  11    0.37    0.27
   0  11  11   -0.16    0.40
  -6  12  11   10.06    1.49
   6   6  11    8.83    1.04
  12  -6 -11    8.35    1.10
  12  -6 -11    6.93    1.11
   6   6 -11    6.90    1.09
   6 -12 -11    8.61    1.26
  12  -6  11   10.31    0.85
  12  -5  11    3.19    0.55
  -7  12  11    2.13    0.68
   5 -12 -11    3.17    0.79
   5   7  11    3.15    0.66
   7   5 -11    2.30    0.69
  12  -7 -11    2.20    0.62
  12  -7 -11    2.44    0.72
   7 -12 -11    2.76    0.76
  12  -5 -11    1.86    0.59
  -5  12  11    4.66    0.94
   5   7 -11    2.43    0.63
  12  -7  11    3.41    0.54
   7   5  11    2.59    0.57
  12  -5 -11    1.74    0.54
  -8  12  11    6.60    1.13
  -4  12 -11    7.09    0.86
   4   8  11    6.94    0.98
  12  -4  11    6.32    0.79
  12  -8 -11    7.39    1.08
   4 -12 -11    7.07    1.17
   8   4 -11    6.10    1.04
  12  -8  11    6.14    0.71
   8   4  11    7.47    0.94
  12  -4 -11    6.48    0.94
 -12   8  11    7.04    1.10
   4   8 -11    5.77    0.95
  12  -4 -11    6.19    1.08
   8 -12 -11    5.48    1.04
  -4  12  11    7.32    1.23
   9   3 -11    1.43    0.58
  -9  12  11    3.03    0.76
  12  -9 -11    2.85    0.72
   3   9  11    1.28    0.46
  -3  12 -11    2.31    0.53
  12  -3  11    2.38    0.52
   3 -12 -11    1.50    0.61
   3   9  11    1.77    0.63
   3   9 -11    2.78    0.64
  12  -3 -11    2.54    0.69
   9   3  11    3.07    0.61
   9 -12 -11    1.55    0.58
  -3  12  11    2.33    0.75
  12  -3 -11    2.30    0.56
 -12   9  11    2.84    0.77
  12  -9  11    2.79    0.48
  10   2 -11    0.77    0.47
  10 -12  11    1.55    0.31
   2  10  11    1.78    0.54
   2  10  11    1.04    0.43
 -10  12  11    0.67    0.49
  -2  12 -11    0.87    0.38
  12 -10 -11    1.69    0.57
  12  -2  11    0.79    0.37
  12  -2 -11    0.98    0.47
  12 -10  11    0.65    0.26
   2  10 -11    0.47    0.34
  12  -2 -11    0.33    0.31
 -12  10  11    1.21    0.59
  10   2  11    0.81    0.35
  10 -12 -11    1.24    0.54
  -2  12  11    1.46    0.58
  -2  12  11    0.44    0.39
  11   1 -11    0.23    0.34
  11 -12  11    0.22    0.18
  -1  12 -11    0.50    0.28
  12  -1  11    0.23    0.23
  12 -11 -11    0.34    0.37
   1  11  11    0.35    0.32
   1  11  11   -0.72    0.36
 -11  12  11    0.20    0.42
  11 -12 -11    0.84    0.42
  12 -11  11    0.08    0.19
  -1  12  11   -0.09    0.22
 -12  11  11    0.49    0.46
  -1  12  11   -0.46    0.34
   1  11 -11    0.46    0.30
  11   1  11    0.40    0.29
  12  -1 -11    0.54    0.44
  12 -12 -11    0.73    0.42
   0  12 -11    0.01    0.26
   0  12  11   -0.11    0.25
 -12  12  11   -0.04    0.39
  12   0  11    0.21    0.24
  12 -12  11   -0.24    0.18
  12   0 -11   -0.21    0.29
   0  12  11   -0.46    0.36
  13  -6  11    0.66    0.32
   6   7  11    0.85    0.37
   7   6 -11    1.49    0.53
  -7  13  11    0.48    0.75
  13  -7 -11    1.07    0.47
  13  -7 -11    0.97    0.49
   6 -13 -11    1.53    0.57
   6   7 -11    2.17    0.61
  13  -7  11    0.77    0.31
  13  -6 -11    1.83    0.61
   7   6  11    0.88    0.36
  -6  13  11    0.30    0.36
   7 -13 -11    1.09    0.56
  13  -6 -11    1.00    0.42
   5   8  11    6.11    0.91
   8   5 -11    4.97    0.96
  13  -5  11    6.23    0.77
  13  -8 -11    6.13    1.02
  -8  13  11    6.46    1.14
   5 -13 -11    6.39    1.12
  13  -8  11    6.31    0.74
  -5  13  11    7.88    1.33
   5   8 -11    5.79    1.00
 -13   8  11    6.49    1.14
   8   5  11    7.23    0.95
  13  -5 -11    6.16    1.09
   8 -13 -11    5.41    1.02
  13  -5 -11    8.06    1.06
  -4  13 -11    0.75    0.33
   4 -13 -11    0.74    0.49
  13  -9 -11    0.50    0.42
  13  -4  11   -0.39    0.21
   4   9  11    1.63    0.48
   9   4 -11    1.36    0.54
  -9  13  11    0.80    0.47
  13  -4 -11    0.76    0.48
  13  -9  11    0.62    0.29
   4   9 -11    1.03    0.45
 -13   9  11    0.29    0.46
   9   4  11    1.02    0.43
  -4  13  11    1.42    0.56
   9 -13 -11    0.10    0.39
  13  -4 -11    0.69    0.33
  10   3 -11    4.58    0.93
   3  10  11    4.11    0.78
  13  -3  11    4.53    0.71
 -10  13  11    2.73    0.78
   3  10  11    5.11    0.91
  -3  13 -11    4.02    0.79
  13 -10 -11    3.68    0.82
 -13  10  11    4.55    0.94
  13  -3 -11    5.01    0.81
  13 -10  11    4.47    0.60
  13  -3 -11    5.96    1.08
  -3  13  11    3.78    0.88
  10 -13 -11    6.37    1.10
   3  10 -11    3.80    0.78
  10   3  11    3.31    0.65
  11 -13  11    0.29    0.23
   2  11  11    0.88    0.44
 -11  13  11   -0.40    0.40
   2  11  11   -0.25    0.39
  13  -2  11    0.34    0.30
  13 -11 -11    0.34    0.40
  11   2 -11    0.74    0.44
  -2  13 -11    0.32    0.31
   2  11 -11    0.66    0.41
  11   2  11    0.04    0.23
  -2  13  11   -0.19    0.27
  13  -2 -11    0.82    0.46
  -2  13  11    0.44    0.46
  11 -13 -11    1.02    0.48
 -13  11  11    0.01    0.44
  13 -11  11    0.60    0.24
  13  -2 -11    0.52    0.31
  12 -13  11    0.27    0.27
  -1  13 -11    0.21    0.29
  12   1 -11   -0.21    0.32
   1  12  11   -0.59    0.35
  13 -12 -11    0.44    0.37
   1  12  11    0.59    0.33
  13  -1  11    0.22    0.27
 -12  13  11    0.11    0.41
 -13  12  11    0.48    0.54
  -1  13  11    0.29    0.30
  12 -13 -11    0.52    0.38
   1  12 -11    0.38    0.32
  12   1  11    0.25    0.26
  13  -1 -11    0.40    0.44
  -1  13  11    0.50    0.50
  13 -12  11    0.47    0.22
  13 -13 -11    0.02    0.33
   0  13  11   -0.10    0.23
 -13  13  11    0.09    0.38
   0  13  11   -0.13    0.40
   0  13 -11   -0.32    0.26
  13 -13  11   -0.03    0.22
  13   0  11   -0.01    0.23
  13   0 -11   -0.36    0.30
  14  -7 -11    0.02    0.36
   7   7 -11    0.19    0.35
   7 -14 -11   -0.25    0.33
  -7  14  11    0.38    0.42
  14  -7  11    0.15    0.22
  14  -7 -11    0.08    0.31
   7   7  11   -0.10    0.24
  14  -8 -11    0.16    0.32
   6   8  11    0.42    0.33
   8   6 -11   -0.28    0.32
   6 -14 -11    0.29    0.44
  -8  14  11    0.06    0.72
  14  -6  11    0.90    0.34
  14  -8  11    0.18    0.25
  -6  14  11    0.34    0.52
  14  -6 -11    0.61    0.37
   8   6  11    0.45    0.29
  14  -6 -11   -0.15    0.35
   6   8 -11    0.25    0.36
   8 -14 -11   -0.04    0.40
   5   9  11    1.56    0.49
   5 -14 -11    1.02    0.54
  -9  14  11    1.30    0.57
  14  -5  11    0.52    0.30
   9   5 -11    0.39    0.45
  14  -9 -11    0.82    0.46
   9 -14 -11    1.60    0.57
  -5  14  11    0.85    0.55
  14  -5 -11    2.17    0.57
  14  -5 -11    0.98    0.49
 -14   9  11    1.28    0.61
   5   9 -11    1.97    0.54
  14  -9  11    0.74    0.31
   9   5  11    1.10    0.40
   4  10  11    0.50    0.35
  14  -4  11    0.69    0.32
  14 -10 -11    0.56    0.42
 -10  14  11    0.47    0.50
  -4  14 -11    0.76    0.38
  10   4 -11    0.43    0.43
   4 -14 -11    0.50    0.49
  -4  14  11    0.49    0.55
  10   4  11    0.36    0.36
  14  -4 -11    0.60    0.48
   4  10 -11    0.98    0.46
  14 -10  11    0.59    0.29
  10 -14 -11    1.36    0.55
  14  -4 -11    0.34    0.32
 -14  10  11    0.89    0.56
  -3  14 -11    3.15    0.67
  14 -11 -11    1.82    0.70
   3  11  11    3.35    0.72
  11   3 -11    2.62    0.75
  14  -3  11    2.82    0.56
   3  11  11    2.33    0.68
 -11  14  11    3.13    0.82
  -3  14  11    4.17    0.94
  14  -3 -11    2.44    0.58
  -3  14  11    3.19    0.74
  11 -14 -11    2.65    0.77
 -14  11  11    2.18    0.77
   3  11 -11    3.33    0.76
  14 -11  11    2.73    0.50
  14  -3 -11    2.54    0.75
  11   3  11    3.29    0.62
  14 -12 -11   -0.19    0.33
  -2  14 -11    0.21    0.31
  14  -2  11    0.03    0.23
   2  12  11    0.53    0.44
   2  12  11    0.48    0.32
 -12  14  11    0.44    0.51
  12   2 -11   -0.03    0.37
  12 -14 -11    0.47    0.42
  12   2  11    0.07    0.27
  -2  14  11    0.06    0.27
  -2  14  11   -0.24    0.46
 -14  12  11    0.44    0.45
  14 -12  11    0.45    0.28
  14  -2 -11    0.19    0.42
   2  12 -11    0.53    0.43
  14 -13 -11    0.99    0.51
   1  13  11    0.17    0.35
  13 -14  11    0.35    0.34
  14  -1  11    0.03    0.24
  -1  14 -11    0.93    0.36
   1  13  11    1.02    0.50
  13   1 -11    0.53    0.49
 -13  14  11    0.10    0.45
  14 -13  11   -0.21    0.23
  14  -1 -11    0.44    0.43
  13   1  11    0.80    0.32
 -14  13  11    0.29    0.47
   1  13 -11    0.08    0.33
  13 -14 -11    0.16    0.41
  -1  14  11   -0.53    0.47
  -1  14  11    0.47    0.37
   0  14  11   -0.17    0.26
   0  14 -11   -0.37    0.30
  14   0 -11   -0.37    0.33
   0  14  11   -0.08    0.42
  14   0  11    0.12    0.26
  14 -14  11   -0.05    0.32
 -14  14  11   -0.04    0.41
  14 -14 -11    0.29    0.41
  15  -7  11    2.03    0.46
  15  -8 -11    2.99    0.72
   8   7 -11    1.91    0.66
  -8  15  11    1.34    0.61
   7   8  11    2.70    0.60
   7 -15 -11    1.78    0.62
  15  -8  11    1.59    0.42
  15  -7 -11    2.47    0.72
   8   7  11    1.97    0.51
  -7  15  11    1.84    0.65
   7   8 -11    2.37    0.73
   8 -15 -11    1.34    0.60
  15  -7 -11    1.52    0.51
   6 -15 -11    1.55    0.72
  15  -6  11    2.79    0.53
  -9  15  11    2.43    0.94
   6   9  11    2.54    0.59
  15  -9 -11    2.65    0.68
   9   6 -11    2.07    0.65
 -15   9  11    2.61    0.83
  -6  15  11    2.88    0.82
  15  -6 -11    2.76    0.65
   6   9 -11    2.47    0.71
  15  -6 -11    3.23    0.80
   9   6  11    2.38    0.55
  15  -9  11    1.99    0.44
   9 -15 -11    2.36    0.71
  15  -5  11    0.42    0.27
 -10  15  11   -0.77    0.38
   5 -15 -11    0.34    0.46
   5  10  11    0.74    0.39
  10   5 -11    0.30    0.41
  15 -10 -11    1.11    0.47
   5  10 -11    0.06    0.31
  15  -5 -11    1.00    0.48
  -5  15  11    1.33    0.56
  10 -15 -11    0.08    0.39
  15  -5 -11    0.76    0.37
  10   5  11    0.11    0.29
 -15  10  11    0.76    0.57
  15 -10  11    0.35    0.24
  11   4 -11    1.78    0.64
  15 -11 -11    2.14    0.66
   4 -15 -11    3.03    0.80
  15  -4  11    2.02    0.48
 -11  15  11    1.31    0.66
   4  11  11    2.33    0.61
  -4  15 -11    1.69    0.52
  15  -4 -11    1.93    0.52
  11 -15 -11    1.54    0.63
  15 -11  11    1.89    0.44
   4  11 -11    1.61    0.61
  -4  15  11    1.80    0.73
 -15  11  11    2.00    0.73
  11   4  11    1.71    0.46
  15  -4 -11    1.94    0.71
   3  12  11    1.58    0.61
  -3  15 -11    0.85    0.38
  15 -12 -11    1.18    0.53
  12   3 -11    1.55    0.61
  15  -3  11    1.15    0.40
 -12  15  11    0.11    0.45
   3  12  11    1.64    0.50
  -3  15  11    1.11    0.63
   3  12 -11    1.24    0.48
  12 -15 -11    0.98    0.56
  15 -12  11    1.20    0.35
  -3  15  11    0.73    0.41
  15  -3 -11    0.42    0.47
  12   3  11    1.17    0.40
 -15  12  11    1.50    0.68
  13   2 -11    1.99    0.68
   2  13  11    3.11    0.72
 -13  15  11    3.14    0.89
  15 -13 -11    2.07    0.64
  15  -2  11    2.49    0.54
   2  13  11    3.55    0.89
  -2  15 -11    2.59    0.63
  -2  15  11    1.63    0.69
  15  -2 -11    2.26    0.75
   2  13 -11    2.05    0.61
  13   2  11    2.42    0.53
 -15  13  11    2.99    0.88
  -2  15  11    1.41    0.50
  15 -13  11    2.75    0.50
  13 -15 -11    4.29    0.96
   1  14  11    0.51    0.51
 -14  15  11    1.13    0.67
  15 -14 -11    0.76    0.51
  14   1 -11    0.03    0.41
  15  -1  11    1.06    0.39
  -1  15 -11    1.12    0.49
   1  14  11    0.25    0.36
  15  -1 -11   -0.23    0.38
  14 -15 -11    0.89    0.49
  14   1  11    0.98    0.39
  -1  15  11    0.51    0.41
  -1  15  11    1.40    0.74
  15 -14  11    0.81    0.43
 -15  14  11    0.68    0.56
   1  14 -11    0.58    0.41
  15 -15  11    0.09    0.32
   0  15 -11    0.34    0.39
  15   0 -11    0.40    0.39
 -15  15  11    0.46    0.47
   0  15  11    0.35    0.36
   0  15  11    0.51    0.47
  15 -15 -11   -0.57    0.32
  15   0  11   -0.18    0.20
  16  -8  11    3.91    0.63
   8   8  11    4.23    0.75
  -8  16  11    3.43    0.99
  16  -8 -11    4.72    0.88
  16  -8 -11    5.87    1.13
   8 -16 -11    5.96    1.10
   8   8 -11    5.65    1.08
  -9  16  11    0.96    0.53
   7 -16 -11    0.79    0.55
   7   9  11    0.41    0.31
  16  -7  11    0.00    0.24
  16  -9 -11   -0.26    0.34
   9   7 -11    0.68    0.47
  16  -7 -11    0.54    0.36
  -7  16  11    0.21    0.52
 -16   9  11    0.28    0.59
  16  -7 -11    1.18    0.57
   7   9 -11    1.05    0.50
   9 -16 -11    0.79    0.47
  16  -9  11    0.65    0.27
   9   7  11    0.45    0.30
  16  -6  11    0.66    0.31
   6 -16 -11    0.31    0.49
  16 -10 -11    0.88    0.42
 -10  16  11   -0.18    0.41
   6  10  11   -0.18    0.27
  10   6 -11    0.62    0.51
  10 -16 -11    0.06    0.37
  10   6  11    0.09    0.27
  16  -6 -11    0.60    0.35
  16 -10  11    0.67    0.29
   6  10 -11    0.39    0.38
 -16  10  11    0.04    0.54
  -6  16  11    0.56    0.56
  16  -6 -11    0.22    0.40
  16 -11 -11    0.32    0.46
 -11  16  11    2.58    0.81
  11   5 -11    0.93    0.50
   5 -16 -11    1.57    0.64
  16  -5  11    0.93    0.40
   5  11  11    1.21    0.45
  11   5  11    1.02    0.42
  16  -5 -11    1.16    0.55
  -5  16  11    1.81    0.67
  16  -5 -11    1.01    0.48
 -16  11  11    0.98    0.65
  11 -16 -11    1.40    0.61
   5  11 -11    1.57    0.56
  16 -11  11    0.74    0.32
  12   4 -11    1.93    0.73
  16  -4  11    1.95    0.47
   4  12  11    2.61    0.63
  16 -12 -11    1.60    0.64
  -4  16 -11    2.35    0.61
 -12  16  11    1.75    0.84
  16  -4 -11    1.65    0.63
  16 -12  11    3.60    0.61
 -16  12  11    2.03    0.77
  12   4  11    2.55    0.55
   4  12 -11    0.97    0.46
  16  -4 -11    2.70    0.64
  12 -16 -11    2.89    0.73
  -4  16  11    3.23    0.97
  16  -3  11    1.31    0.39
  13   3 -11    2.63    0.82
   3  13  11    1.53    0.52
   3  13  11    2.04    0.66
  16 -13 -11    2.65    0.77
 -13  16  11    2.72    0.90
  -3  16 -11    2.49    0.62
   3  13 -11    1.78    0.60
  13   3  11    2.21    0.54
  13 -16 -11    2.63    0.74
  16  -3 -11    2.15    0.75
 -16  13  11    1.61    0.76
  -3  16  11    1.64    0.67
  16 -13  11    2.50    0.51
  -3  16  11    2.15    0.64
   2  14  11   -0.46    0.43
 -14  16  11   -0.29    0.42
   2  14  11    0.01    0.29
  16  -2  11   -0.23    0.19
  16 -14 -11   -0.22    0.39
  -2  16 -11    0.72    0.40
  14   2 -11    0.29    0.40
  -2  16  11    0.67    0.42
  -2  16  11    0.67    0.55
  16 -14  11    0.20    0.38
  16  -2 -11   -0.40    0.37
 -16  14  11   -0.17    0.49
   2  14 -11   -0.21    0.35
  14 -16 -11   -0.16    0.39
  14   2  11   -0.47    0.20
  -1  16 -11    1.72    0.60
 -15  16  11    3.50    0.96
   1  15  11    1.48    0.64
  16  -1  11    3.01    0.58
   1  15  11    3.45    0.74
  15   1 -11    2.29    0.75
  16 -15 -11    2.74    0.77
  -1  16  11    3.62    0.76
  15   1  11    2.93    0.59
  16 -15  11    2.91    0.61
   1  15 -11    2.82    0.71
  -1  16  11    2.41    0.81
  15 -16 -11    3.42    0.87
 -16  15  11    2.65    0.92
  16  -1 -11    2.75    0.81
  16   0  11   -0.44    0.19
   0  16  11    0.43    0.53
   0  16 -11    0.37    0.40
   0  16  11    0.61    0.38
  16 -16 -11   -0.27    0.37
 -16  16  11    0.35    0.51
  16   0 -11   -0.39    0.41
   9   8 -11    0.38    0.44
   8 -17 -11    0.43    0.49
  17  -9 -11    0.75    0.38
  -9  17  11    0.65    0.57
   8   9  11    0.36    0.31
  17  -8  11    0.15    0.24
  -8  17  11    0.70    0.62
   8   9 -11    0.59    0.47
  17  -8 -11    0.88    0.53
 -17   9  11    0.33    0.69
  17  -9  11    0.44    0.27
   9 -17 -11    0.03    0.42
  17  -8 -11    0.94    0.44
   9   8  11    0.57    0.35
   7 -17 -11    1.51    0.65
  10   7 -11    0.31    0.40
 -10  17  11   -0.32    0.42
  17 -10 -11   -0.06    0.33
   7  10  11    0.47    0.32
  17  -7  11    0.99    0.35
   7  10 -11   -0.39    0.37
 -17  10  11    0.55    0.66
  -7  17  11   -0.65    0.49
  17  -7 -11    0.38    0.40
  10 -17 -11    1.01    0.52
  17 -10  11    0.38    0.29
  17  -7 -11   -0.44    0.35
  10   7  11    0.00    0.26
   6 -17 -11    3.03    0.91
   6  11  11    2.70    0.61
  11   6 -11    2.42    0.71
  17  -6  11    2.50    0.54
 -11  17  11    1.74    0.74
  17 -11 -11    2.25    0.64
  17  -6 -11    1.36    0.62
  17 -11  11    1.91    0.46
 -17  11  11    1.96    0.78
  11 -17 -11    1.36    0.57
   6  11 -11    2.33    0.68
  -6  17  11    1.51    0.74
  11   6  11    1.37    0.40
  17  -6 -11    1.36    0.51
   5 -17 -11   -0.02    0.39
  12   5 -11    0.06    0.45
  17  -5  11   -0.01    0.22
 -12  17  11    0.61    0.58
  17 -12 -11    0.37    0.42
   5  12  11   -0.15    0.32
  17  -5 -11    0.76    0.41
  -5  17  11   -0.09    0.49
 -17  12  11   -0.29    0.47
  12   5  11   -0.14    0.25
  17  -5 -11    0.70    0.47
  17 -12  11    0.45    0.32
  12 -17 -11    0.69    0.54
   5  12 -11    0.83    0.44
  13   4 -11    3.71    0.93
 -13  17  11    5.40    1.20
  17  -4  11    3.79    0.65
   4  13  11    4.82    0.85
  17 -13 -11    2.30    0.70
   4  13 -11    2.48    0.74
 -17  13  11    5.10    1.15
  -4  17  11    4.30    0.88
  13   4  11    3.16    0.62
  -4  17  11    5.33    1.17
  17  -4 -11    2.84    0.82
  13 -17 -11    5.09    1.03
  17 -13  11    4.12    0.69
  17 -14 -11    1.16    0.51
   3  14  11    1.08    0.47
  -3  17 -11    0.96    0.45
 -14  17  11    0.44    0.63
  14   3 -11    0.32    0.44
  17  -3  11    0.46    0.26
  14 -17 -11    0.94    0.50
   3  14 -11    0.19    0.46
  -3  17  11    0.44    0.41
  -3  17  11    0.28    0.68
 -17  14  11    0.36    0.63
  17  -3 -11   -0.29    0.38
  14   3  11    0.69    0.34
  17 -14  11    0.95    0.50
   2  15  11    0.67    0.54
  15   2 -11    1.21    0.63
  -2  17 -11    0.30    0.38
   2  15  11    0.57    0.41
  17  -2  11    1.26    0.37
  17 -15 -11    0.06    0.44
 -15  17  11    0.55    0.68
   2  15 -11    0.24    0.40
  -2  17  11    0.81    0.40
  -2  17  11    0.36    0.66
  17 -15  11    1.01    0.46
  15 -17 -11    0.99    0.51
  17  -2 -11   -0.19    0.50
 -17  15  11    1.13    0.72
  15   2  11    1.10    0.40
  16   1 -11    1.14    0.59
  17 -16 -11    1.25    0.59
  -1  17 -11    1.48    0.47
   1  16  11    0.69    0.59
   1  16  11    0.59    0.40
  17  -1  11    1.04    0.38
 -16  17  11    0.92    0.69
  17 -16  11    0.77    0.46
  17  -1 -11    1.46    0.57
  16 -17 -11    0.56    0.48
  -1  17  11    1.29    0.75
 -17  16  11    1.37    0.76
  -1  17  11    1.26    0.49
  16   1  11    0.63    0.35
   1  16 -11    0.63    0.45
   0  17 -11    0.90    0.48
  17   0 -11    0.67    0.47
 -17  17  11   -0.51    0.48
  17   0  11   -0.29    0.20
   0  17  11    1.34    0.68
   9   9  11   -0.05    0.26
  18  -9  11    0.17    0.25
  -9  18  11   -0.44    0.50
  18  -9 -11   -0.21    0.33
   9 -18 -11    0.72    0.52
   9   9 -11    0.21    0.41
  18  -8  11    1.23    0.43
  10   8 -11    2.04    0.72
   8  10  11    1.40    0.42
   8 -18 -11    2.48    0.77
 -10  18  11    2.30    0.81
  18 -10 -11    2.01    0.61
  -8  18  11    1.64    0.76
  10   8  11    1.17    0.40
   8  10 -11    1.83    0.64
 -18  10  11    2.44    0.92
  18  -8 -11    1.88    0.76
  10 -18 -11    2.41    0.73
  18  -8 -11    0.28    0.49
  18 -10  11    1.56    0.43
  11   7 -11    0.63    0.45
   7  11  11    1.42    0.45
   7 -18 -11    0.94    0.54
 -11  18  11   -0.30    0.57
  18 -11 -11    0.79    0.44
  18  -7  11    1.48    0.44
  18  -7 -11    1.31    0.43
  18  -7 -11    1.46    0.62
  -7  18  11    1.14    0.66
  11 -18 -11    0.79    0.48
 -18  11  11    0.97    0.72
  11   7  11    1.07    0.38
  18 -11  11    1.68    0.46
   7  11 -11    0.28    0.45
   6  12  11    1.21    0.47
  18  -6  11    0.92    0.40
  12   6 -11    1.56    0.67
  18 -12 -11    0.93    0.52
 -12  18  11    0.00    0.51
   6 -18 -11    0.96    0.46
  18  -6 -11    1.18    0.45
  18 -12  11    1.15    0.43
 -18  12  11    1.63    0.77
   6  12 -11    0.20    0.42
  -6  18  11    1.45    0.74
  12 -18 -11    1.23    0.52
  18  -6 -11    1.31    0.59
  12   6  11    0.84    0.38
 -13  18  11    1.41    0.66
  18  -5  11    0.40    0.24
  13   5 -11    0.27    0.50
  18 -13 -11    0.52    0.47
   5  13  11    1.18    0.40
  18 -13  11    0.27    0.28
  -5  18  11   -0.45    0.52
  18  -5 -11    1.05    0.60
 -18  13  11   -0.24    0.55
   5  13 -11    0.89    0.43
  13 -18 -11    0.80    0.45
  13   5  11    0.33    0.29
  18  -4  11    1.06    0.40
 -14  18  11    0.96    0.62
  18 -14 -11    0.54    0.45
  14   4 -11    0.85    0.53
   4  14  11    0.04    0.35
  -4  18  11    0.32    0.39
  18  -4 -11    0.87    0.48
  18 -14  11    1.12    0.49
  14 -18 -11    0.99    0.60
 -18  14  11    1.85    0.80
  14   4  11    0.78    0.34
  -4  18  11   -0.86    0.53
   4  14 -11    1.17    0.52
 -15  18  11    0.46    0.70
  18 -15 -11    2.22    0.70
  15   3 -11    2.58    0.82
  18  -3  11    2.59    0.51
  -3  18 -11    1.93    0.64
  18  -3 -11    2.16    0.69
  15   3  11    2.18    0.53
  -3  18  11    2.58    0.87
  18 -15  11    2.82    0.67
  15 -18 -11    1.84    0.70
  -3  18  11    2.04    0.54
   3  15 -11    2.23    0.67
 -18  15  11    2.11    0.88
   2  16  11    0.40    0.58
  16   2 -11   -0.42    0.47
  -2  18 -11    1.16    0.53
  18  -2  11   -0.11    0.20
 -16  18  11   -0.30    0.50
  18 -16 -11    0.10    0.44
 -18  16  11   -0.19    0.47
  18  -2 -11    0.61    0.50
  16 -18 -11    0.14    0.40
  18 -16  11    0.32    0.45
  -2  18  11    0.38    0.52
  -2  18  11    0.09    0.34
   2  16 -11    0.50    0.44
  16   2  11    0.70    0.30
  18  -1  11   -0.20    0.23
   1  17  11    0.84    0.57
  -1  18 -11    0.75    0.47
  17   1 -11    0.79    0.55
 -17  18  11   -0.09    0.52
  18 -17 -11    0.43    0.47
  18  -1 -11    0.70    0.57
   1  17 -11    0.34    0.39
 -18  17  11   -0.18    0.52
  17 -18 -11    0.94    0.50
  17   1  11    0.94    0.34
  -1  18  11    0.00    0.57
  18 -18 -11    0.21    0.46
 -18  18  11    0.18    0.54
   0  18  11   -0.54    0.58
  18   0 -11   -0.23    0.48
  18   0  11    0.02    0.23
   0  18 -11    0.40    0.42
   9  10  11    2.20    0.57
  10   9 -11    2.48    0.74
  19  -9  11    0.98    0.37
   9 -19 -11    0.89    0.54
 -10  19  11    2.39    0.76
  19 -10 -11    1.70    0.61
  10   9  11    0.68    0.33
 -19  10  11    2.07    0.75
  19  -9 -11    1.39    0.54
  -9  19  11    1.48    0.78
   9  10 -11    1.83    0.64
  10 -19 -11    1.52    0.60
  19 -10  11    1.50    0.44
 -11  19  11    0.73    0.70
  11   8 -11    0.87    0.57
   8  11  11    1.16    0.41
   8 -19 -11    1.07    0.55
  19 -11 -11    1.39    0.55
  19  -8  11    0.76    0.36
  19 -11  11    0.51    0.31
  11 -19 -11    0.92    0.53
  19  -8 -11    0.61    0.44
  -8  19  11    1.10    0.64
  19  -8 -11    0.81    0.56
  11   8  11    0.17    0.29
   8  11 -11   -0.03    0.46
 -19  11  11    0.74    0.55
  19  -7  11    0.50    0.30
  12   7 -11    0.87    0.57
   7 -19 -11    0.45    0.59
 -12  19  11    0.61    0.59
   7  12  11    0.43    0.31
  19 -12 -11    0.15    0.43
  -7  19  11    1.20    0.69
 -19  12  11   -0.14    0.46
  12   7  11    0.21    0.27
  19 -12  11    0.84    0.40
  12 -19 -11    0.24    0.45
  19  -7 -11    0.02    0.38
  19  -7 -11    1.45    0.67
   7  12 -11   -0.09    0.42
  13   6 -11    0.30    0.49
 -13  19  11    0.47    0.53
  19  -6  11    0.34    0.30
  19 -13 -11    1.16    0.57
   6 -19 -11    0.88    0.50
  13   6  11    0.72    0.38
  -6  19  11    0.10    0.56
 -19  13  11   -0.03    0.42
   6  13 -11    0.25    0.41
  19 -13  11    0.80    0.40
  19  -6 -11    0.81    0.57
  13 -19 -11    1.23    0.55
  19 -14 -11   -0.10    0.41
 -14  19  11    0.58    0.91
  14   5 -11   -0.14    0.43
  19  -5  11    0.46    0.26
  -5  19  11    0.67    0.42
  19  -5 -11   -0.43    0.43
  14   5  11   -0.40    0.21
 -19  14  11    0.28    0.45
  14 -19 -11   -0.03    0.46
  19 -14  11    0.09    0.39
  -5  19  11    0.50    0.71
   5  14 -11    0.26    0.37
  15   4 -11    0.06    0.42
 -15  19  11    1.83    0.71
  19 -15 -11    0.73    0.57
  19  -4  11    0.22    0.25
 -19  15  11    0.45    0.49
  -4  19  11    0.33    0.41
  -4  19  11    1.18    0.70
   4  15 -11    0.67    0.49
  15 -19 -11    0.77    0.49
  15   4  11    0.23    0.32
  19 -15  11    0.39    0.38
  19  -4 -11    0.53    0.49
 -16  19  11    0.44    0.54
  16   3 -11   -0.34    0.51
  19  -3  11    0.28    0.25
  -3  19 -11    1.37    0.73
  19 -16 -11    0.30    0.43
  16   3  11   -0.08    0.24
  -3  19  11    0.92    0.67
  16 -19 -11    0.37    0.44
  19  -3 -11    0.79    0.57
 -19  16  11    0.99    0.60
   3  16 -11    0.60    0.50
  19 -16  11   -0.28    0.33
   2  17  11    0.79    0.64
  19  -2  11   -0.06    0.25
  -2  19 -11   -0.25    0.44
 -17  19  11   -0.23    0.53
  19 -17 -11    0.17    0.47
  17   2 -11   -0.42    0.46
  -2  19  11   -0.31    0.58
 -19  17  11    0.29    0.54
  19 -17  11    0.71    0.34
  19  -2 -11    0.72    0.50
   2  17 -11    0.08    0.45
  17   2  11   -0.35    0.21
  17 -19 -11    0.09    0.41
  19  -1  11    0.67    0.36
   1  18  11    2.59    0.80
 -18  19  11    1.22    0.71
  19 -18 -11    1.54    0.64
  18   1 -11    0.01    0.61
  -1  19 -11    1.73    0.54
  18   1  11    1.42    0.45
  18 -19 -11    2.64    0.81
 -19  18  11    0.98    0.58
  -1  19  11    2.35    0.75
  19  -1 -11    1.96    0.66
   1  18 -11    0.73    0.50
 -10  20  11   -0.72    0.57
  10  10  11    0.92    0.37
  10  10 -11    0.87    0.63
  20 -10  11    0.70    0.41
  10 -20 -11    0.41    0.49
 -20  10  11    1.08    0.67
  20 -10 -11    0.90    0.57
  11   9 -11    0.43    0.44
 -11  20  11    0.51    0.59
   9 -20 -11    0.20    0.44
  20  -9  11    0.06    0.27
  20 -11 -11   -0.36    0.38
  11   9  11   -0.36    0.23
  -9  20  11   -0.09    0.59
 -20  11  11    0.07    0.50
  20  -9 -11    0.30    0.40
  11 -20 -11    0.07    0.42
  20 -11  11    0.06    0.30
   9  11 -11    0.06    0.45
 -12  20  11    0.55    0.64
  20  -8  11    0.72    0.33
   8 -20 -11    0.05    0.50
  20 -12 -11   -0.52    0.38
  12   8 -11   -0.17    0.41
  20  -8 -11   -0.21    0.40
 -20  12  11   -0.09    0.48
  12 -20 -11   -0.44    0.38
  -8  20  11   -0.40    0.57
  20 -12  11    0.15    0.31
   8  12 -11   -0.47    0.41
  12   8  11    0.08    0.29
  20  -8 -11    0.74    0.58
  20 -13 -11   -0.59    0.38
  20  -7  11   -0.06    0.23
   7 -20 -11   -0.18    0.47
 -13  20  11   -0.49    0.54
  13   7 -11    0.61    0.49
  13 -20 -11   -0.16    0.43
  20  -7 -11   -0.23    0.34
  -7  20  11   -0.39    0.65
 -20  13  11   -0.25    0.40
   7  13 -11    0.24    0.38
  20 -13  11    0.00    0.40
  13   7  11    0.17    0.28
  20  -7 -11    1.09    0.61
  14   6 -11   -0.73    0.46
  20 -14 -11    0.78    0.48
 -14  20  11    0.96    0.59
  20  -6  11   -0.04    0.24
  -6  20  11    0.26    0.65
  -6  20  11    0.57    0.46
  14   6  11    0.43    0.33
  20 -14  11    0.55    0.44
 -20  14  11    0.19    0.50
   6  14 -11    0.48    0.42
  20  -6 -11    0.02    0.54
  14 -20 -11    0.66    0.49
  20  -5  11   -0.29    0.22
  15   5 -11    0.59    0.50
  20 -15 -11    0.82    0.55
 -15  20  11    0.25    0.58
   5  15 -11    0.34    0.47
  20 -15  11   -0.25    0.36
 -20  15  11    0.13    0.45
  15 -20 -11    0.13    0.41
  15   5  11   -0.64    0.23
  -5  20  11    0.32    0.64
  20  -5 -11   -0.58    0.52
  20 -16 -11   -0.94    0.37
  20  -4  11    0.28    0.28
  16   4 -11    0.31    0.57
 -16  20  11   -1.10    0.52
  -4  20  11    0.71    0.70
 -20  16  11    1.09    0.56
  20  -4 -11   -0.11    0.58
  16   4  11    0.08    0.24
  16 -20 -11    0.29    0.52
  20 -16  11    0.64    0.44
   4  16 -11    0.30    0.43
  20  -3  11   -0.09    0.24
  -3  20  11   -0.43    0.62
  20 -17  11    0.62    0.37
  17   3  11    0.81    0.34
   3  17 -11   -0.46    0.44
  17 -20 -11    0.54    0.49
 -11  21  11   -0.15    0.68
  11  10 -11    1.24    0.67
  10 -21 -11    1.18    0.61
 -21  10  11    1.39    0.73
  21 -11 -11    1.08    0.60
  21 -10  11    0.36    0.36
 -10  21  11    0.36    0.73
  21 -11  11    0.98    0.40
  10  11 -11    0.86    0.53
  11 -21 -11   -0.06    0.45
 -21  11  11    1.44    0.67
  21 -10 -11   -0.05    0.45
  12   9 -11    0.87    0.51
  21  -9  11    0.07    0.31
 -12  21  11   -0.36    0.60
  21 -12 -11    0.62    0.40
   9 -21 -11    0.09    0.46
  -9  21  11    0.40    0.70
 -21  12  11    0.23    0.52
   9  12 -11    0.03    0.42
  12 -21 -11    0.45    0.50
  21 -12  11    0.64    0.37
  21  -9 -11    0.39    0.39
  21 -13 -11    0.80    0.53
  21  -8  11    0.13    0.26
  13   8 -11    0.16    0.54
   8 -21 -11    0.02    0.48
 -13  21  11    1.54    0.74
  -8  21  11   -0.81    0.61
   8  13 -11    0.47    0.51
  21  -8 -11    0.13    0.41
  13   8  11   -0.18    0.30
  21 -13  11    1.26    0.62
  13 -21 -11    0.13    0.46
  21  -8 -11    0.61    0.61
 -21  13  11   -0.07    0.54
 -14  21  11    0.13    0.58
  14   7 -11    1.00    0.56
  21 -14 -11    0.30    0.49
  21  -7  11    0.32    0.27
  14 -21 -11   -0.44    0.42
 -21  14  11    0.39    0.46
  14   7  11   -0.12    0.28
  21  -7 -11    0.48    0.57
   7  14 -11    0.78    0.46
  21 -14  11    0.44    0.42
  -7  21  11    0.00    0.69
  21 -15 -11   -0.17    0.48
  15   6  11   -0.08    0.25
  -6  21  11    0.47    0.68
  15 -21 -11    0.20    0.44
   6  15 -11    0.72    0.47
  21 -15  11   -0.13    0.36
   0   0  12  166.26    6.45
   0   0  12  163.26    6.37
   1  -1  12    6.89    0.79
  -1   1  12    6.28    0.81
   0   1  12    6.22    0.56
  -1   1  12    7.07    0.64
   0  -1  12    7.81    0.81
   0   1  12    7.47    0.86
   1   0 -12    7.18    0.63
   1   0  12    8.33    0.87
  -1   0  12    6.07    0.77
   0   1 -12    6.89    0.57
   1   1 -12   46.15    2.19
  -1   2 -12   47.31    2.06
  -1   2  12   45.45    2.35
  -1  -1  12   46.73    2.23
  -1   2  12   44.74    2.13
   2  -1 -12   45.81    2.23
  -2   1  12   43.90    2.28
   1  -2  12   45.33    2.20
   2  -1  12   44.17    2.25
   1   1  12   43.68    2.31
   2   0  12   11.70    0.96
   0  -2  12   11.08    0.86
   0   2 -12   12.21    0.82
   0   2  12   11.52    1.00
   0   2  12   10.23    0.77
   2  -2  12   10.55    0.89
  -2   0  12   13.07    0.97
   2   0 -12   11.32    0.86
  -2   2  12   10.00    1.01
  -2   2  12   11.16    0.84
   2   1 -12    2.32    0.45
  -1  -2  12    2.12    0.42
   3  -1  12    1.36    0.41
   3  -2 -12    2.03    0.52
   1   2  12    1.85    0.34
   1   2  12    1.69    0.47
  -1   3 -12    1.43    0.31
  -2   3  12    1.74    0.38
   2  -3  12    1.56    0.39
   3  -1 -12    2.02    0.44
   2   1  12    2.59    0.54
  -1   3  12    1.73    0.36
  -2  -1  12    1.67    0.41
   3  -2  12    1.76    0.43
   3  -1 -12    1.92    0.49
   1  -3  12    1.43    0.38
  -1   3  12    1.71    0.47
   1   2 -12    2.14    0.43
   3  -3 -12   12.62    1.27
   0   3 -12   13.22    0.90
   0   3  12   13.05    0.91
  -3   3  12   12.34    0.95
   3   0 -12   12.44    0.98
   0  -3  12   14.05    0.94
   3   0  12   13.31    1.05
   3   0 -12   12.21    1.03
   0   3  12   12.21    1.07
   3  -3  12   13.69    0.96
  -2   4  12    7.37    0.77
   2   2 -12    7.30    0.79
  -2  -2  12    6.35    0.69
   4  -2 -12    6.57    0.80
   2  -4  12    6.73    0.69
   2   2  12    6.93    0.89
   4  -2 -12    6.62    0.89
   4  -2  12    7.14    0.80
   3  -4  12    1.04    0.33
   4  -1  12    0.93    0.36
   3   1 -12    1.13    0.36
   4  -3 -12    1.08    0.40
   1   3  12    1.95    0.45
   1   3  12    0.47    0.29
  -1   4 -12    0.90    0.27
  -1  -3  12    1.64    0.37
  -3   4  12    1.01    0.34
   3  -4 -12    1.57    0.52
   4  -1 -12    1.60    0.43
  -4   3  12    1.08    0.40
   3   1  12    0.93    0.39
  -1   4  12    1.26    0.34
   1   3 -12    1.34    0.35
   1  -4  12    1.31    0.33
   4  -3  12    1.00    0.33
   4  -1 -12    0.85    0.36
  -1   4  12    1.29    0.43
  -3  -1  12    0.85    0.29
   4  -4 -12    3.81    0.73
   4  -4  12    4.19    0.59
   4   0 -12    2.81    0.55
   0   4  12    3.73    0.59
   4   0 -12    3.89    0.65
  -4   4  12    4.30    0.65
   4   0  12    3.73    0.65
   0   4  12    4.19    0.71
   0  -4  12    4.56    0.56
   0   4 -12    3.90    0.56
   2  -5 -12    1.31    0.52
  -3   5  12    2.02    0.46
   3   2 -12    1.86    0.46
   3  -5  12    1.72    0.35
   5  -3 -12    0.97    0.37
  -2  -3  12    2.08    0.38
   5  -2  12    1.41    0.40
   5  -3 -12    1.56    0.48
   2   3  12    1.92    0.53
  -3  -2  12    1.46    0.36
   3   2  12    2.61    0.56
   3  -5 -12    1.35    0.52
   5  -3  12    1.79    0.42
   5  -2 -12    1.12    0.37
  -2   5  12    1.58    0.42
   5  -2 -12    0.80    0.35
   2  -5  12    1.91    0.36
   2   3 -12    0.91    0.34
   5  -1  12    6.41    0.82
  -1  -4  12    6.72    0.58
  -4   5  12    6.30    0.79
   5  -4 -12    6.31    0.94
   4   1 -12    6.19    0.78
  -1   5 -12    6.40    0.66
   1   4  12    7.31    0.81
   1   4  12    6.40    0.89
   4  -5  12    6.50    0.68
   4   1 -12    6.02    0.82
   5  -4  12    6.78    0.75
  -1   5  12    6.71    0.82
   4  -5 -12    7.32    1.02
   4   1  12    5.79    0.81
   5  -1 -12    6.83    0.86
   5  -1 -12    5.83    0.80
   1  -5  12    6.79    0.64
   1   4 -12    6.57    0.77
  -1   5  12    6.54    0.93
  -5   4  12    6.70    0.81
   5  -5  12    5.47    0.65
  -5   5  12    4.46    0.70
   0  -5  12    4.94    0.54
   5   0 -12    4.47    0.69
   5  -5 -12    4.44    0.80
   5   0 -12    4.54    0.74
   0   5  12    5.36    0.84
   0   5  12    4.96    0.73
   5   0  12    4.65    0.70
   0   5 -12    5.06    0.66
   6  -3 -12    7.84    0.95
   6  -3 -12    9.23    1.05
   3  -6 -12    9.49    1.22
   6  -3  12    8.88    0.89
   3  -6  12    8.94    0.69
   3   3 -12   10.28    1.01
  -3  -3  12    8.62    0.70
   3   3  12    9.19    1.04
  -3   6  12    8.95    0.97
   2  -6 -12    2.38    0.64
  -4   6  12    2.36    0.52
   4   2 -12    2.50    0.57
   6  -4 -12    1.67    0.53
   4  -6  12    1.70    0.39
  -2   6 -12    1.76    0.38
   6  -2  12    2.26    0.46
   2   4  12    2.38    0.58
  -2  -4  12    2.03    0.37
   4   2 -12    1.97    0.42
   2  -6  12    2.42    0.39
   4  -6 -12    1.53    0.52
   4   2  12    2.08    0.50
   2   4 -12    2.18    0.49
   6  -4  12    2.61    0.50
   6  -2 -12    1.68    0.46
  -2   6  12    1.69    0.46
   6  -2 -12    2.34    0.54
   1   5  12    3.66    0.70
   5   1 -12    2.56    0.49
   1   5  12    3.24    0.63
   6  -5 -12    2.24    0.59
  -5   6  12    3.10    0.58
   5  -6  12    3.75    0.53
  -1   6 -12    2.78    0.49
   5   1 -12    3.00    0.62
   6  -1  12    2.67    0.54
   6  -1 -12    2.47    0.53
  -1   6  12    2.60    0.62
   5   1  12    3.58    0.64
   5  -6 -12    2.14    0.62
   6  -5  12    2.55    0.48
  -6   5  12    3.08    0.61
   1   5 -12    3.59    0.59
  -1   6  12    3.02    0.67
   6  -1 -12    2.36    0.58
   6   0 -12    6.05    0.91
   0   6  12    6.53    0.91
   0   6 -12    8.35    0.84
   6   0  12    7.46    0.89
   6  -6  12    6.52    0.69
   6   0 -12    6.25    0.79
   0   6  12    5.22    0.86
  -6   6  12    5.86    0.84
   6  -6 -12    7.45    1.06
   7  -4 -12    5.74    0.87
   3  -7 -12    5.28    0.96
   7  -3  12    5.66    0.75
   4  -7  12    3.98    0.51
   3   4  12    5.55    0.83
   4   3 -12    4.49    0.76
  -4   7  12    5.07    0.79
   7  -4 -12    5.52    0.86
   7  -3 -12    5.11    0.81
  -3   7  12    6.50    0.88
   3   4 -12    4.46    0.73
   4   3  12    4.74    0.77
   7  -3 -12    3.95    0.71
   3  -7  12    5.24    0.53
   4  -7 -12    6.13    0.98
   7  -4  12    5.20    0.68
   2   5  12   37.40    2.09
   7  -5 -12   31.21    1.97
  -2   7 -12   33.00    1.75
   5   2 -12   32.21    1.99
   5   2 -12   32.05    1.74
   7  -2  12   34.84    1.85
   5  -7  12   32.93    1.61
  -5   7  12   31.60    1.96
   5  -7 -12   31.92    2.10
   7  -2 -12   30.75    1.85
  -7   5  12   32.46    1.98
   7  -2 -12   28.67    1.96
   7  -5  12   33.28    1.74
  -2   7  12   31.28    1.99
   2   5 -12   34.13    1.96
   5   2  12   32.52    1.90
   6   1 -12    0.74    0.38
  -1   7 -12    0.88    0.30
   7  -6 -12    0.23    0.32
  -6   7  12    0.92    0.40
   1   6  12    1.36    0.45
   6  -7  12    0.52    0.26
   1   6  12    0.65    0.32
   6   1 -12    0.77    0.31
   7  -1  12    0.27    0.25
   7  -1 -12    0.51    0.32
   7  -6  12    0.74    0.31
   6  -7 -12    1.01    0.49
  -7   6  12    1.09    0.44
   7  -1 -12    0.65    0.28
  -1   7  12    1.01    0.40
  -1   7  12    1.23    0.48
   6   1  12    0.22    0.27
   1   6 -12    0.90    0.33
  -7   7  12   23.37    1.65
   7   0 -12   23.94    1.70
   7  -7 -12   22.67    1.68
   0   7  12   21.91    1.69
   7   0  12   25.36    1.54
   0   7 -12   21.49    1.45
   7   0 -12   22.35    1.44
   0   7  12   25.44    1.72
   7  -7  12   23.42    1.32
   8  -4 -12   22.11    1.64
   4   4 -12   23.91    1.65
  -4   8  12   23.35    1.67
   8  -4  12   26.52    1.48
   4  -8 -12   21.76    1.74
   8  -4 -12   22.14    1.55
   4   4  12   22.01    1.56
   8  -3  12    1.18    0.36
  -5   8  12    0.12    0.29
   3  -8 -12    0.38    0.46
   8  -5 -12    0.57    0.33
   5   3 -12    0.61    0.33
   3   5  12    0.59    0.37
   5  -8  12    0.52    0.24
   8  -3 -12    0.61    0.34
   3   5 -12    0.28    0.29
  -3   8  12    0.27    0.33
   5  -8 -12    0.58    0.43
   8  -5  12    0.90    0.31
   8  -3 -12    0.09    0.23
   5   3  12    0.51    0.34
   8  -6 -12    6.26    0.94
   8  -2  12    5.07    0.74
   6   2 -12    5.26    0.90
   2   6  12    5.85    0.91
  -2   8 -12    4.69    0.65
   6  -8  12    5.01    0.58
  -6   8  12    5.85    0.91
   6   2  12    5.64    0.83
   8  -6  12    5.63    0.68
  -8   6  12    5.59    0.88
   8  -2 -12    5.26    0.85
   6  -8 -12    5.52    1.00
   2   6 -12    4.83    0.78
  -2   8  12    6.31    0.96
   8  -2 -12    5.31    0.78
   1   7  12    4.73    0.90
  -1   8 -12    3.25    0.57
   1   7  12    5.44    0.86
   7  -8  12    4.22    0.55
   7   1 -12    4.68    0.83
  -7   8  12    5.23    0.89
   7   1 -12    4.08    0.62
   8  -1  12    4.36    0.69
   8  -7 -12    4.44    0.84
   1   7 -12    5.32    0.77
  -8   7  12    5.28    0.86
   8  -7  12    5.08    0.63
  -1   8  12    6.01    0.95
  -1   8  12    3.21    0.76
   7   1  12    4.75    0.75
   8  -1 -12    2.72    0.56
   8  -1 -12    5.07    0.85
   7  -8 -12    4.35    0.86
   0   8  12    4.55    0.83
   8   0 -12    2.42    0.49
   8  -8  12    2.86    0.49
   8   0  12    2.64    0.55
   0   8  12    3.19    0.74
   8  -8 -12    3.12    0.70
   8   0 -12    2.65    0.66
   0   8 -12    2.68    0.55
  -8   8  12    3.54    0.75
   4   5  12    4.76    0.81
   9  -5 -12    4.44    0.78
   9  -5 -12    3.73    0.76
   4  -9 -12    4.57    0.90
   9  -4  12    6.12    0.76
  -5   9  12    6.08    0.96
   5   4 -12    4.50    0.80
   5   4  12    4.99    0.81
   4   5 -12    4.67    0.82
   9  -4 -12    4.15    0.77
   9  -5  12    5.84    0.74
   9  -4 -12    4.74    0.80
   5  -9 -12    3.80    0.85
  -4   9  12    4.86    0.89
   3   6  12    5.73    0.89
   6  -9  12    6.39    0.55
   9  -6 -12    6.05    0.94
   3  -9 -12    5.40    1.03
  -6   9  12    9.29    1.15
   6   3 -12    6.28    0.98
   9  -3  12    6.65    0.81
   3   6 -12    6.02    0.91
  -3   9  12    7.14    1.10
  -9   6  12    5.28    0.94
   6   3  12    7.22    0.94
   9  -3 -12    5.24    0.82
   9  -3 -12    5.78    0.93
   9  -6  12    6.23    0.74
   6  -9 -12    5.46    1.03
   9  -2  12    3.94    0.65
  -2   9 -12    5.98    0.76
   9  -7 -12    5.83    0.93
   7   2 -12    4.91    0.88
  -7   9  12    4.61    0.88
   2   7  12    4.55    0.81
   7  -9  12    4.49    0.53
   9  -7  12    4.13    0.60
  -2   9  12    4.36    0.88
   9  -2 -12    4.44    0.83
   7  -9 -12    5.33    0.98
   7   2  12    4.67    0.76
   9  -2 -12    5.36    0.79
  -2   9  12    4.24    0.84
   2   7 -12    5.51    0.84
  -9   7  12    5.25    0.89
   8   1 -12    1.82    0.56
   1   8  12    1.87    0.58
  -8   9  12    3.14    0.73
  -1   9 -12    1.82    0.46
   1   8  12    2.00    0.62
   8  -9  12    2.36    0.42
   9  -1  12    2.83    0.57
   9  -8 -12    1.59    0.55
   9  -1 -12    2.25    0.52
   9  -8  12    2.77    0.46
   1   8 -12    2.85    0.59
  -1   9  12    2.14    0.60
  -9   8  12    2.17    0.64
   8   1  12    1.42    0.44
   9  -1 -12    2.14    0.62
  -1   9  12    2.81    0.77
   8  -9 -12    2.36    0.66
   9  -9 -12   22.53    1.74
   9  -9  12   24.23    1.31
   0   9  12   23.26    1.88
   9   0 -12   24.20    1.50
   0   9  12   25.13    1.77
   9   0 -12   21.83    1.75
   9   0  12   25.22    1.59
  -9   9  12   22.69    1.74
   0   9 -12   21.39    1.54
  10  -5  12    0.73    0.28
  10  -5 -12    1.39    0.46
   5   5  12    0.26    0.32
  10  -5 -12    1.26    0.45
   5   5 -12    0.97    0.41
   5 -10 -12    0.92    0.49
  -5  10  12    0.18    0.35
   4   6  12   -0.04    0.24
   6   4 -12    0.10    0.28
  10  -6 -12    0.23    0.31
  -6  10  12    0.03    0.29
   4 -10 -12    0.27    0.42
  10  -4  12    0.03    0.21
  10  -4 -12    0.16    0.27
  -4  10  12   -0.16    0.45
   6 -10 -12    0.31    0.38
   6   4  12    0.40    0.29
  10  -4 -12    0.29    0.31
  10  -6  12    0.36    0.23
   4   6 -12    0.58    0.31
   3   7  12    1.31    0.49
   7   3 -12    1.61    0.49
   3 -10 -12    2.35    0.73
  10  -7 -12    1.53    0.51
  -7  10  12    1.44    0.56
  10  -3  12    1.37    0.40
  10  -3 -12    0.96    0.47
   3   7 -12    1.60    0.51
   7   3  12    0.46    0.35
  10  -7  12    1.34    0.36
  -3  10  12    1.65    0.56
 -10   7  12    2.08    0.64
  10  -3 -12    0.79    0.38
   7 -10 -12    1.95    0.61
  10  -8 -12    3.56    0.75
   8   2 -12    3.63    0.79
   2   8  12    3.56    0.74
  -8  10  12    4.32    0.87
   8 -10  12    3.01    0.46
  -2  10 -12    4.20    0.67
  10  -2  12    3.99    0.65
   8 -10 -12    3.02    0.76
   2   8 -12    3.34    0.68
  10  -2 -12    2.98    0.60
  10  -2 -12    3.54    0.78
  -2  10  12    3.13    0.76
  -2  10  12    2.33    0.64
  10  -8  12    3.72    0.55
   8   2  12    3.47    0.66
 -10   8  12    3.56    0.79
   9 -10  12    1.79    0.36
  -1  10 -12    1.77    0.46
   9   1 -12    0.43    0.38
   1   9  12    1.04    0.43
  10  -1  12    1.72    0.47
  -9  10  12    2.25    0.66
  10  -9 -12    2.33    0.65
   1   9  12    1.68    0.63
  -1  10  12    1.28    0.51
   9   1  12    1.26    0.43
  -1  10  12    0.82    0.43
   1   9 -12    1.44    0.45
  10  -1 -12    1.32    0.41
  10  -1 -12    1.81    0.57
   9 -10 -12    2.19    0.65
  10  -9  12    1.66    0.36
 -10   9  12    1.22    0.56
  10 -10  12    5.16    0.60
   0  10  12    5.09    0.97
   0  10 -12    3.65    0.70
   0  10  12    6.17    0.97
 -10  10  12    6.04    1.03
  10 -10 -12    4.37    0.91
  10   0  12    5.15    0.78
  10   0 -12    4.94    0.94
   5 -11 -12    1.15    0.55
  11  -6 -12    0.56    0.37
  -6  11  12    1.29    0.54
  11  -6 -12    1.45    0.55
  11  -5  12    0.83    0.32
   6   5 -12    0.22    0.37
   5   6  12    0.93    0.39
   6 -11 -12    0.77    0.48
  11  -5 -12    1.09    0.47
  11  -6  12    0.78    0.30
   6   5  12    0.85    0.37
   5   6 -12    0.70    0.38
  11  -5 -12    0.38    0.29
  -5  11  12    0.61    0.66
   4   7  12    1.85    0.53
  11  -4  12    1.25    0.40
   4 -11 -12    1.30    0.62
  -7  11  12    0.85    0.51
   7   4 -12    0.45    0.39
  11  -7 -12    0.65    0.39
  11  -4 -12    0.54    0.43
   4   7 -12    1.34    0.45
  11  -7  12    1.30    0.36
   7 -11 -12    1.38    0.62
 -11   7  12    0.46    0.54
  -4  11  12    0.66    0.46
  11  -4 -12    0.36    0.31
   7   4  12    0.96    0.41
   3 -11 -12    5.20    1.04
  11  -8 -12    6.10    0.98
  11  -3  12    6.70    0.85
   8   3 -12    5.42    0.98
  -8  11  12    7.17    1.16
   3   8  12    6.65    0.98
  11  -8  12    7.82    0.78
   3   8 -12    5.92    0.94
  11  -3 -12    7.94    0.99
  -3  11  12    7.15    1.14
 -11   8  12    6.35    1.05
   8 -11 -12    6.96    1.12
  11  -3 -12    4.60    0.91
   8   3  12    5.63    0.85
  -9  11  12    1.08    0.51
   2   9  12    1.48    0.53
  11  -9 -12    1.37    0.54
   9   2 -12    1.15    0.48
   9 -11  12    1.09    0.30
  11  -2  12    0.87    0.37
  -2  11 -12    1.04    0.39
  11  -2 -12    1.25    0.41
   9   2  12    0.96    0.38
 -11   9  12    1.43    0.59
   9 -11 -12    1.07    0.51
   2   9 -12    0.74    0.44
  -2  11  12    1.20    0.48
  11  -2 -12    1.35    0.53
  -2  11  12    0.95    0.51
  11  -9  12    0.99    0.31
   1  10  12    6.80    1.14
  10   1 -12    5.75    1.05
  11  -1  12    6.56    0.86
  11 -10 -12    6.48    1.07
   1  10  12    7.53    1.08
  10 -11  12    7.13    0.60
  -1  11 -12    5.13    0.80
 -10  11  12    6.23    1.09
   1  10 -12    5.79    0.91
  10 -11 -12    7.56    1.20
  11  -1 -12    5.21    0.99
  11 -10  12    6.07    0.69
  10   1  12    6.77    0.91
 -11  10  12    5.86    1.08
  -1  11  12    9.34    1.34
  -1  11  12    4.88    0.89
   0  11 -12    4.13    0.76
  11 -11  12    4.23    0.57
 -11  11  12    4.79    0.98
   0  11  12    5.09    0.88
  11   0  12    4.73    0.74
   0  11  12    5.85    1.07
  11 -11 -12    3.69    0.88
  11   0 -12    5.25    1.00
  12  -6 -12    3.67    0.76
  12  -6  12    3.42    0.57
   6   6 -12    3.40    0.79
   6   6  12    2.73    0.61
  12  -6 -12    3.28    0.81
  -6  12  12    1.67    0.82
   6 -12 -12    3.12    0.82
  12  -7 -12    3.38    0.77
   5   7  12    4.76    0.81
   7   5 -12    3.48    0.80
  12  -5  12    4.46    0.68
  -7  12  12    4.62    0.97
   5 -12 -12    4.37    0.96
   7   5  12    3.34    0.67
  12  -5 -12    3.73    0.82
   5   7 -12    3.94    0.79
   7 -12 -12    5.18    1.02
  12  -5 -12    3.59    0.74
  12  -7  12    4.70    0.66
  -5  12  12    6.13    1.08
   8   4 -12    1.28    0.48
  -8  12  12    0.23    0.42
   4 -12 -12   -0.13    0.37
  12  -4  12    0.36    0.28
   4   8  12    0.25    0.34
  12  -8 -12    0.08    0.29
 -12   8  12    0.16    0.46
  12  -4 -12    0.44    0.29
   8   4  12    0.31    0.31
  12  -8  12   -0.10    0.20
  12  -4 -12    0.41    0.37
   8 -12 -12   -0.09    0.33
  -4  12  12   -0.56    0.36
   4   8 -12    0.68    0.37
  -9  12  12    3.93    0.91
   9   3 -12    4.44    0.91
  12  -9 -12    3.49    0.77
   3   9  12    3.40    0.75
  12  -3  12    3.80    0.65
  12  -3 -12    4.41    0.91
   9 -12 -12    5.46    1.01
   3   9 -12    4.96    0.85
  12  -9  12    4.81    0.63
 -12   9  12    4.25    0.93
  12  -3 -12    3.69    0.72
  -3  12  12    4.65    0.97
   9   3  12    3.72    0.68
   2  10  12    1.93    0.57
  -2  12 -12    1.26    0.40
  10   2 -12    1.32    0.53
  12 -10 -12    1.56    0.57
 -10  12  12    1.53    0.68
  12  -2  12    2.08    0.50
  10 -12 -12    0.91    0.56
  10   2  12    1.16    0.43
 -12  10  12    1.25    0.61
  -2  12  12    1.61    0.62
  12  -2 -12    0.74    0.42
  12 -10  12    1.79    0.39
  -2  12  12    0.75    0.42
  12  -2 -12    1.20    0.43
   2  10 -12    1.56    0.51
  11 -12  12    2.73    0.43
  -1  12 -12    2.51    0.55
  11   1 -12    1.66    0.62
   1  11  12    1.81    0.56
  12  -1  12    1.84    0.47
   1  11  12    3.17    0.76
  12 -11 -12    1.87    0.62
 -11  12  12    2.20    0.70
  -1  12  12    1.26    0.52
   1  11 -12    1.83    0.51
  11 -12 -12    0.74    0.50
 -12  11  12    2.62    0.77
  11   1  12    1.97    0.51
  12  -1 -12    2.54    0.69
  12 -11  12    2.19    0.41
  -1  12  12    2.67    0.71
   0  12  12   12.09    1.66
  12   0  12   12.16    1.19
   0  12 -12   11.54    1.29
  12 -12 -12   10.10    1.42
  12 -12  12   11.51    0.83
 -12  12  12   11.37    1.55
   0  12  12   10.66    1.32
  12   0 -12   11.55    1.53
  -7  13  12    1.91    0.86
  13  -6  12    2.21    0.49
   6   7  12    1.92    0.54
  13  -7 -12    1.67    0.55
  13  -7 -12    2.18    0.69
   6 -13 -12    2.16    0.73
   7   6 -12    2.37    0.70
   7   6  12    2.12    0.60
  13  -6 -12    1.81    0.57
   6   7 -12    2.84    0.71
  -6  13  12    2.38    0.68
   7 -13 -12    1.87    0.68
  13  -6 -12    2.26    0.68
  13  -7  12    2.77    0.52
   5 -13 -12    5.91    1.09
  -8  13  12    5.95    1.11
  13  -5  12    4.48    0.71
  13  -8 -12    6.11    1.01
   8   5 -12    5.89    1.04
   5   8  12    6.13    0.96
  13  -8  12    6.48    0.76
  13  -5 -12    5.29    0.93
   5   8 -12    5.88    1.01
 -13   8  12    6.59    1.13
   8   5  12    6.71    0.95
   8 -13 -12    6.86    1.17
  13  -5 -12    5.37    1.03
  -5  13  12    5.06    1.09
   4 -13 -12    0.54    0.45
  13  -4  12    1.17    0.39
   9   4 -12    0.36    0.43
  -9  13  12    0.63    0.48
   4   9  12    0.82    0.42
  13  -9 -12    1.10    0.49
  13  -4 -12    0.62    0.34
   4   9 -12    0.37    0.37
  13  -4 -12    0.41    0.40
 -13   9  12    1.28    0.63
  13  -9  12    0.37    0.26
   9   4  12    0.63    0.33
  -4  13  12    0.89    0.51
   9 -13 -12    0.39    0.39
 -10  13  12   -0.43    0.39
   3  10  12    0.41    0.38
  13  -3  12    0.37    0.32
  10   3 -12    0.04    0.33
  13 -10 -12    0.34    0.37
  -3  13  12    0.31    0.30
 -13  10  12    0.13    0.45
  13  -3 -12   -0.09    0.34
  -3  13  12   -0.05    0.40
   3  10 -12    0.12    0.32
  13 -10  12   -0.06    0.21
  13  -3 -12    0.23    0.28
  10 -13 -12    0.18    0.38
  10   3  12    0.20    0.27
  -2  13 -12    0.59    0.36
  13  -2  12    2.01    0.51
  13 -11 -12    2.37    0.71
 -11  13  12    2.85    0.81
  11   2 -12    1.28    0.54
   2  11  12    1.76    0.54
   2  11 -12    1.95    0.56
  -2  13  12    0.88    0.50
  11 -13 -12    3.29    0.82
  11   2  12    1.78    0.51
 -13  11  12    2.18    0.71
  13 -11  12    2.44    0.44
  -2  13  12    1.54    0.56
  13  -2 -12    2.48    0.71
  13  -1  12    0.92    0.39
  13 -12 -12    1.51    0.59
  12   1 -12    1.13    0.59
  12 -13  12    1.48    0.33
 -12  13  12    1.01    0.59
   1  12  12   -0.11    0.40
   1  12  12    0.89    0.51
  -1  13 -12    0.82    0.37
 -13  12  12    0.67    0.50
  -1  13  12    0.37    0.32
  12   1  12    1.29    0.43
  12 -13 -12   -0.05    0.36
  -1  13  12   -0.29    0.42
  13 -12  12    0.80    0.29
   1  12 -12    1.39    0.47
  13  -1 -12    1.99    0.64
 -13  13  12    0.39    0.50
  13 -13  12    0.75    0.29
   0  13 -12    0.43    0.40
  13   0  12    0.83    0.38
   0  13  12    0.58    0.41
   0  13  12    1.05    0.56
  13 -13 -12    1.26    0.59
  13   0 -12    2.55    0.73
  14  -7 -12   12.99    1.47
   7 -14 -12   13.12    1.66
   7   7 -12   14.72    1.66
  14  -7 -12   14.15    1.69
  -7  14  12   12.46    1.70
   7   7  12   13.35    1.34
  14  -7  12   12.34    1.00
   8   6 -12    0.83    0.51
  14  -6  12    1.00    0.36
   6 -14 -12    1.27    0.62
  -8  14  12   -0.02    0.74
   6   8  12    0.68    0.37
  14  -8 -12    0.02    0.30
 -14   8  12    1.33    0.71
  14  -6 -12    0.80    0.40
   8 -14 -12    1.37    0.60
  14  -8  12    0.62    0.31
   8   6  12    0.90    0.40
  14  -6 -12    0.30    0.46
  -6  14  12    1.03    0.61
   6   8 -12    0.81    0.45
  14  -9 -12    1.73    0.62
   9   5 -12    1.34    0.55
  14  -5  12    0.71    0.34
   5 -14 -12    1.46    0.61
   5   9  12    1.52    0.52
  -9  14  12    0.46    0.48
   5   9 -12    0.87    0.47
   9 -14 -12    1.43    0.58
  -5  14  12    0.88    0.57
  14  -5 -12    0.74    0.40
 -14   9  12    1.12    0.59
  14  -5 -12    0.58    0.46
   9   5  12    1.00    0.40
  14  -9  12    0.82    0.35
  14 -10 -12    0.16    0.40
 -10  14  12    0.34    0.46
   4 -14 -12    0.28    0.47
   4  10  12    0.25    0.29
  10   4 -12   -0.02    0.45
  14  -4  12    0.16    0.24
  14  -4 -12    0.97    0.47
  14 -10  12   -0.11    0.22
 -14  10  12    0.72    0.55
  10 -14 -12    0.41    0.47
   4  10 -12    0.82    0.45
  14  -4 -12    0.54    0.36
  10   4  12    0.75    0.38
  -4  14  12    0.90    0.55
  11   3 -12    0.10    0.36
 -11  14  12    0.42    0.48
  14  -3  12    0.63    0.33
   3  11  12    0.07    0.29
  14 -11 -12   -0.13    0.31
  14  -3 -12    0.51    0.40
  14 -11  12   -0.13    0.22
  -3  14  12    0.40    0.47
  11   3  12    0.23    0.31
   3  11 -12    0.56    0.35
  11 -14 -12    0.12    0.37
 -14  11  12   -0.31    0.40
  -3  14  12   -0.03    0.31
 -12  14  12    0.16    0.48
  12   2 -12    0.51    0.47
  -2  14 -12    0.83    0.37
   2  12  12    0.21    0.33
  14 -12 -12   -0.15    0.33
  14  -2  12   -0.10    0.23
 -14  12  12    0.30    0.50
  -2  14  12   -0.12    0.51
  12 -14 -12    0.38    0.41
  12   2  12    0.66    0.35
   2  12 -12    0.43    0.37
  -2  14  12    0.33    0.38
  14 -12  12    0.07    0.22
  14  -2 -12    0.79    0.53
 -13  14  12    1.77    0.71
  14  -1  12    1.07    0.41
   1  13  12    3.00    0.67
   1  13  12    2.71    0.76
  14 -13 -12    1.81    0.59
  -1  14 -12    1.59    0.52
  13   1 -12    1.85    0.63
  13   1  12    1.74    0.47
   1  13 -12    2.21    0.65
  14  -1 -12    1.89    0.70
  -1  14  12    2.58    0.64
 -14  13  12    3.02    0.93
  14 -13  12    2.25    0.46
  -1  14  12    2.97    0.83
  13 -14 -12    2.51    0.77
   0  14 -12    2.70    0.61
  14   0 -12    1.66    0.68
  14 -14  12    1.88    0.46
 -14  14  12    2.43    0.84
  14 -14 -12    1.57    0.66
  14   0  12    2.12    0.51
   0  14  12    3.43    0.93
   0  14  12    1.91    0.61
  15  -8 -12    0.63    0.44
  -8  15  12    1.05    0.54
   7   8  12    1.20    0.44
   8   7 -12    0.12    0.35
   7 -15 -12    0.10    0.46
  15  -7  12    0.44    0.30
   8   7  12    0.17    0.26
   7   8 -12    0.30    0.35
  -7  15  12    0.06    0.48
   8 -15 -12    1.21    0.55
  15  -7 -12    0.35    0.38
  15  -8  12    0.72    0.31
  15  -7 -12   -0.43    0.39
  15  -6  12    1.68    0.42
   6 -15 -12    0.36    0.42
  15  -9 -12    0.40    0.42
   9   6 -12    0.43    0.47
   6   9  12    1.37    0.42
  -9  15  12    0.71    0.84
 -15   9  12    0.65    0.59
   9 -15 -12    0.76    0.45
  15  -6 -12    0.16    0.41
  15  -9  12    0.85    0.34
   6   9 -12    0.47    0.46
   9   6  12    0.97    0.37
  15  -6 -12    0.16    0.34
  -6  15  12    2.09    0.75
   5 -15 -12   -0.12    0.43
  15  -5  12    1.35    0.41
 -10  15  12   -0.21    0.41
  10   5 -12    0.40    0.45
   5  10  12    1.00    0.43
  15 -10 -12    0.87    0.48
  15 -10  12    1.05    0.34
  15  -5 -12    0.40    0.41
  15  -5 -12    0.43    0.48
   5  10 -12    0.86    0.50
  10   5  12    0.72    0.35
  -5  15  12    0.75    0.54
  10 -15 -12    0.54    0.51
 -15  10  12    1.46    0.67
  15 -11 -12    1.18    0.54
  15  -4  12    0.21    0.28
 -11  15  12    0.63    0.57
   4  11  12    1.38    0.46
  11   4 -12    0.28    0.39
  15 -11  12    0.63    0.31
   4  11 -12    0.65    0.44
  -4  15  12    1.29    0.59
  15  -4 -12    0.75    0.44
  11 -15 -12    0.56    0.48
 -15  11  12    1.33    0.67
  15  -4 -12    0.74    0.48
  11   4  12    1.33    0.44
  15 -12 -12    0.79    0.54
   3  12  12    0.10    0.36
  15  -3  12    0.69    0.33
  12   3 -12    0.77    0.46
 -12  15  12    0.26    0.47
  -3  15  12    0.89    0.56
  15  -3 -12    0.54    0.46
  12 -15 -12    0.68    0.43
  -3  15  12    0.28    0.36
 -15  12  12    0.67    0.59
  12   3  12    0.58    0.30
   3  12 -12    0.71    0.43
  15 -12  12    0.24    0.27
  13   2 -12    0.95    0.55
 -13  15  12    1.04    0.66
  15  -2  12    1.56    0.43
  15 -13 -12    1.70    0.61
  -2  15 -12    0.97    0.40
   2  13  12    0.88    0.42
  15  -2 -12    1.44    0.65
 -15  13  12    1.58    0.70
  -2  15  12    1.49    0.76
  15 -13  12    1.18    0.36
  13   2  12    0.87    0.39
  13 -15 -12    0.13    0.39
  -2  15  12    0.96    0.46
   2  13 -12    1.03    0.44
   1  14  12    1.10    0.50
  -1  15 -12    0.76    0.42
   1  14  12    0.81    0.50
  15 -14 -12    0.54    0.50
  15  -1  12    0.42    0.27
 -14  15  12    1.72    0.72
  14   1 -12    1.51    0.59
  -1  15  12    0.98    0.41
   1  14 -12    0.34    0.40
  15 -14  12    1.15    0.36
  15  -1 -12    2.06    0.69
  14   1  12    1.02    0.40
  -1  15  12    1.10    0.56
  14 -15 -12    1.69    0.70
 -15  14  12    1.18    0.67
  15 -15 -12    1.15    0.54
   0  15  12    1.39    0.51
   0  15  12    0.21    0.60
  15   0 -12    0.26    0.52
  15   0  12    1.01    0.38
   0  15 -12    1.01    0.44
 -15  15  12    0.99    0.60
   8   8  12    0.77    0.36
  -8  16  12    1.60    0.59
   8   8 -12    2.29    0.69
  16  -8 -12    1.37    0.56
   8 -16 -12    1.30    0.60
  16  -8  12    1.48    0.43
  16  -9 -12    1.16    0.51
  -9  16  12    2.32    0.75
   7 -16 -12    1.49    0.65
   9   7 -12    0.75    0.52
   7   9  12    0.42    0.36
  16  -7  12    1.14    0.40
   7   9 -12    0.98    0.56
 -16   9  12    2.46    0.85
  16  -7 -12    0.86    0.54
  -7  16  12    1.45    0.67
   9   7  12    0.69    0.39
  16  -9  12    1.66    0.43
  16  -7 -12    1.12    0.49
   9 -16 -12    2.12    0.69
   6  10  12   -0.05    0.30
  16 -10 -12    0.27    0.36
   6 -16 -12   -0.05    0.43
  10   6 -12    0.00    0.37
 -10  16  12   -0.17    0.45
  16  -6  12    0.07    0.24
   6  10 -12   -0.46    0.36
  16 -10  12    0.01    0.23
  16  -6 -12    0.20    0.35
  10 -16 -12    0.19    0.48
 -16  10  12    0.46    0.58
  10   6  12    0.19    0.31
  -6  16  12   -0.53    0.45
  16  -6 -12    1.01    0.49
  16 -11 -12   -0.34    0.35
   5 -16 -12    1.34    0.57
  16  -5  12    1.13    0.38
 -11  16  12    1.11    0.52
   5  11  12    0.50    0.35
  11   5 -12    0.92    0.55
  -5  16  12    0.81    0.59
  16 -11  12    0.86    0.32
  11   5  12    1.66    0.49
  16  -5 -12    1.12    0.58
 -16  11  12    1.50    0.74
  16  -5 -12    0.33    0.41
   5  11 -12    0.75    0.43
  11 -16 -12    1.08    0.54
   4  12  12    1.43    0.47
 -12  16  12    1.30    0.72
  16  -4  12    1.88    0.45
  16 -12 -12    2.02    0.68
  12   4 -12    2.00    0.71
  12 -16 -12    0.68    0.56
  -4  16  12    2.42    0.89
  -4  16  12    1.70    0.57
 -16  12  12    1.52    0.76
  16 -12  12    1.77    0.42
   4  12 -12    1.72    0.59
  16  -4 -12    1.26    0.59
  12   4  12    2.06    0.49
 -13  16  12    0.93    0.56
  16  -3  12    0.46    0.30
   3  13  12    0.63    0.37
  16 -13 -12    0.75    0.48
  13   3 -12    0.84    0.48
 -16  13  12   -0.17    0.46
  16  -3 -12    0.35    0.43
   3  13 -12   -0.26    0.32
  -3  16  12    0.39    0.62
  13   3  12    0.35    0.30
  16 -13  12    0.05    0.26
  13 -16 -12    0.25    0.41
  -3  16  12    0.04    0.33
  16 -14 -12    1.19    0.62
  16  -2  12    2.21    0.54
  14   2 -12    2.58    0.82
   2  14  12    2.30    0.57
  -2  16 -12    2.22    0.63
 -14  16  12    1.08    0.66
  16 -14  12    2.90    0.56
  14 -16 -12    3.11    0.90
  16  -2 -12    3.17    0.86
  -2  16  12    3.88    0.95
 -16  14  12    2.25    0.82
  -2  16  12    2.47    0.67
   2  14 -12    1.72    0.64
  14   2  12    2.00    0.51
  -1  16 -12   -0.74    0.34
  15   1 -12    0.40    0.42
  16  -1  12    0.36    0.25
 -15  16  12    0.17    0.52
  16 -15 -12    0.31    0.44
   1  15  12    0.47    0.54
   1  15  12    0.79    0.39
  16 -15  12    0.21    0.40
   1  15 -12   -0.19    0.29
  15   1  12    0.44    0.27
  16  -1 -12   -0.63    0.39
  15 -16 -12   -0.16    0.45
  -1  16  12    0.06    0.51
  -1  16  12   -0.39    0.31
 -16  15  12    0.00    0.48
 -16  16  12    2.10    0.83
   0  16  12    1.75    0.54
  16   0 -12    3.10    0.85
   0  16 -12    2.15    0.63
  16   0  12    1.43    0.44
   0  16  12    2.86    0.83
  16 -16 -12    1.05    0.59
   9   8 -12    0.35    0.49
   8 -17 -12    1.13    0.56
  17  -8  12    1.03    0.40
  -9  17  12    1.94    0.71
   8   9  12    0.55    0.33
  17  -9 -12    1.83    0.57
   9   8  12    1.53    0.47
  -8  17  12    1.53    0.60
   9 -17 -12    1.08    0.57
  17  -9  12    1.38    0.40
  17  -8 -12    0.71    0.43
   8   9 -12    0.80    0.51
 -17   9  12    1.21    0.80
  17  -8 -12    0.71    0.50
 -10  17  12   -0.23    0.49
  17  -7  12    0.07    0.24
  17 -10 -12   -0.37    0.37
  10   7 -12   -0.50    0.36
   7 -17 -12    0.98    0.56
   7  10  12   -0.13    0.28
 -17  10  12    0.36    0.61
  17 -10  12    0.31    0.26
  17  -7 -12   -0.05    0.33
  17  -7 -12    0.34    0.44
   7  10 -12   -0.66    0.34
  10   7  12    0.38    0.32
  10 -17 -12    0.27    0.48
  -7  17  12    0.12    0.53
   6 -17 -12    0.70    0.60
   6  11  12    1.24    0.44
  17 -11 -12    0.91    0.44
 -11  17  12    0.44    0.52
  17  -6  12    0.57    0.36
  11   6 -12    1.96    0.71
  17  -6 -12    0.06    0.31
  17  -6 -12    1.08    0.55
 -17  11  12    1.20    0.71
  11   6  12    1.25    0.41
   6  11 -12   -0.09    0.39
  -6  17  12    0.46    0.64
  11 -17 -12    0.86    0.51
  17 -11  12    0.38    0.29
  17  -5  12    0.12    0.29
   5  12  12   -0.22    0.31
 -12  17  12   -0.34    0.49
  12   5 -12    0.52    0.46
  17 -12 -12    0.48    0.45
  -5  17  12   -0.11    0.60
  17  -5 -12    0.26    0.44
  12   5  12    0.54    0.26
  17 -12  12    0.43    0.30
   5  12 -12    0.49    0.41
 -17  12  12    0.68    0.65
  12 -17 -12   -0.52    0.42
  17  -4  12    0.93    0.36
  13   4 -12    1.22    0.54
   4  13  12    1.88    0.56
 -13  17  12    0.53    0.62
  17 -13 -12    1.19    0.56
  -4  17  12    1.65    0.72
  17 -13  12    0.57    0.36
  -4  17  12    1.67    0.60
  13   4  12    1.49    0.45
  17  -4 -12    1.10    0.57
  13 -17 -12    1.37    0.60
   4  13 -12    1.15    0.54
 -17  13  12    1.48    0.78
   3  14  12    0.07    0.36
 -14  17  12   -0.58    0.45
  17  -3  12    0.18    0.27
  17 -14 -12    0.88    0.50
  14   3 -12    0.57    0.45
  17  -3 -12    0.20    0.47
   3  14 -12   -0.52    0.30
 -17  14  12    0.38    0.56
  14   3  12    0.21    0.29
  17 -14  12    0.03    0.24
  -3  17  12    0.14    0.46
  14 -17 -12    0.31    0.44
  -3  17  12    0.06    0.60
 -15  17  12   -0.22    0.48
  15   2 -12   -0.31    0.40
  17  -2  12    0.08    0.20
  17 -15 -12   -0.20    0.38
   2  15  12   -0.39    0.31
  17  -2 -12   -0.27    0.40
   2  15 -12   -0.24    0.33
  15   2  12    0.64    0.32
  15 -17 -12    0.88    0.50
  17 -15  12    0.70    0.45
  -2  17  12   -0.42    0.31
  -2  17  12    0.72    0.62
 -17  15  12    0.33    0.59
  -1  17 -12   -0.38    0.35
  17  -1  12   -0.14    0.24
  16   1 -12    1.46    0.49
  17 -16 -12   -0.38    0.39
   1  16  12   -0.59    0.33
 -16  17  12    0.18    0.52
  -1  17  12   -0.38    0.55
  17  -1 -12    0.78    0.57
  16 -17 -12   -0.12    0.40
  -1  17  12    0.41    0.34
 -17  16  12   -0.51    0.51
   1  16 -12   -0.08    0.38
  16   1  12    0.15    0.31
   0  17 -12    0.72    0.46
  17   0 -12    0.59    0.51
  17   0  12    0.62    0.33
 -17  17  12    0.11    0.56
   0  17  12    0.64    0.39
   0  17  12   -0.55    0.58
  17 -17 -12    1.44    0.65
   9   9  12    1.36    0.45
   9   9 -12    0.91    0.58
  18  -9  12    0.78    0.33
  -9  18  12    2.64    0.95
  18  -9 -12    0.95    0.58
   9 -18 -12    1.64    0.66
 -18   9  12    0.72    0.81
 -10  18  12    0.11    0.54
  10   8 -12    0.56    0.44
  18  -8  12    0.04    0.23
   8 -18 -12    0.85    0.57
  18 -10 -12    0.49    0.46
   8  10  12   -0.48    0.30
   8  10 -12   -0.29    0.39
  18  -8 -12    1.10    0.55
 -18  10  12   -0.07    0.60
  10 -18 -12    0.33    0.48
  18  -8 -12    1.11    0.45
  18 -10  12    0.44    0.29
  10   8  12   -0.36    0.29
  -8  18  12   -0.44    0.50
   7 -18 -12    0.89    0.60
   7  11  12    1.45    0.41
 -11  18  12    0.65    0.67
  18  -7  12    1.56    0.44
  11   7 -12    0.92    0.57
  18 -11 -12    2.35    0.74
 -18  11  12    1.13    0.73
  -7  18  12    0.66    0.67
  11 -18 -12    0.54    0.48
  18 -11  12    0.91    0.33
  11   7  12    1.46    0.43
  18  -7 -12    1.66    0.62
   7  11 -12    1.84    0.61
  18  -7 -12    2.26    0.65
  18  -6  12    0.29    0.24
  12   6 -12    0.12    0.45
 -12  18  12    0.13    0.55
  18 -12 -12   -0.25    0.36
   6 -18 -12   -0.60    0.45
   6  12  12    0.22    0.32
  18  -6 -12    1.11    0.46
   6  12 -12    0.17    0.45
  12 -18 -12   -0.22    0.39
  12   6  12   -0.04    0.22
 -18  12  12   -0.18    0.55
  18  -6 -12    0.91    0.46
  -6  18  12    0.59    0.55
  18 -12  12    0.13    0.25
 -13  18  12   -1.06    0.45
  18 -13 -12   -0.10    0.39
   5  13  12   -0.14    0.27
  13   5 -12    0.72    0.48
  18  -5  12    0.15    0.29
  13   5  12    0.90    0.34
  -5  18  12   -0.05    0.34
  -5  18  12    0.39    0.58
 -18  13  12    0.21    0.58
   5  13 -12   -0.46    0.38
  13 -18 -12    0.02    0.49
  18 -13  12    0.05    0.27
  18  -5 -12   -0.61    0.41
   4  14  12   -0.02    0.35
  14   4 -12    1.30    0.56
  18 -14 -12    0.21    0.43
 -14  18  12    0.23    0.57
  18  -4  12    0.35    0.26
  -4  18  12   -0.27    0.38
  -4  18  12   -0.72    0.60
   4  14 -12    0.77    0.44
  18  -4 -12    0.05    0.42
  14 -18 -12    0.52    0.40
  14   4  12   -0.05    0.26
 -18  14  12   -0.50    0.51
  18 -14  12    0.43    0.36
  15   3 -12   -0.54    0.44
 -15  18  12   -0.08    0.57
  18 -15 -12    0.52    0.50
   3  15  12    0.81    0.39
  18  -3  12    0.53    0.34
  18 -15  12    0.69    0.44
  15   3  12    0.69    0.30
  18  -3 -12   -0.53    0.44
 -18  15  12    0.23    0.56
  -3  18  12    1.36    0.43
  -3  18  12    0.59    0.59
   3  15 -12    0.01    0.39
  15 -18 -12    0.59    0.49
 -16  18  12    1.65    0.68
  18  -2  12    0.61    0.26
  18 -16 -12    1.07    0.58
  16   2 -12    0.63    0.56
  16   2  12    0.25    0.28
   2  16 -12   -0.27    0.42
  16 -18 -12    1.05    0.56
  -2  18  12    0.30    0.62
 -18  16  12    0.55    0.62
  18 -16  12    0.17    0.37
  -2  18  12   -0.36    0.36
  18  -2 -12    0.48    0.47
  17   1 -12    0.27    0.47
 -17  18  12    0.60    0.55
  -1  18 -12   -0.07    0.41
  18 -17 -12    0.47    0.51
  18  -1  12    0.33    0.28
  18  -1 -12    0.12    0.50
   1  17 -12   -0.16    0.43
  17 -18 -12    0.86    0.56
  -1  18  12    1.83    0.74
 -18  17  12    0.58    0.67
  17   1  12    0.27    0.25
   0  18 -12    0.93    0.52
 -18  18  12    0.16    0.56
  18   0  12    0.53    0.33
  18 -18 -12    0.27    0.47
   0  18  12    1.30    0.73
  18   0 -12   -0.01    0.52
   9  10  12    1.18    0.43
  10   9 -12    0.17    0.48
  19 -10 -12    0.36    0.45
  19  -9  12    0.78    0.34
 -10  19  12    0.54    0.64
 -19   9  12    0.20    0.75
   9 -19 -12    0.76    0.55
 -19  10  12    1.63    0.80
  19  -9 -12    0.91    0.49
  19 -10  12    0.68    0.32
   9  10 -12    1.22    0.59
  10 -19 -12    0.73    0.56
  -9  19  12   -0.82    0.56
  10   9  12   -0.23    0.30
 -11  19  12   -0.56    0.51
  19  -8  12    0.04    0.24
  11   8 -12   -0.56    0.42
  19 -11 -12   -0.07    0.36
   8 -19 -12    0.00    0.44
   8  11  12    0.32    0.31
 -19  11  12   -0.30    0.55
  19 -11  12   -0.22    0.23
  -8  19  12    0.19    0.61
   8  11 -12    0.89    0.50
  19  -8 -12    0.62    0.41
  11 -19 -12    0.42    0.44
  19  -8 -12    0.00    0.48
  11   8  12   -0.06    0.27
  19 -12 -12    1.69    0.66
 -12  19  12    1.37    0.66
  19  -7  12    0.91    0.34
   7 -19 -12    0.41    0.47
  12   7 -12    0.67    0.49
   7  12  12    0.36    0.32
  19  -7 -12    0.18    0.44
   7  12 -12    0.27    0.50
  12   7  12    0.96    0.35
  -7  19  12    0.18    0.60
  19  -7 -12    0.73    0.51
  19 -12  12    0.32    0.31
 -19  12  12    0.19    0.61
  12 -19 -12    2.01    0.74
  19  -6  12    0.26    0.30
  13   6 -12   -0.34    0.46
 -13  19  12    0.31    0.66
   6  13  12    0.22    0.36
  19 -13 -12    0.31    0.54
  -6  19  12   -0.37    0.54
 -19  13  12   -0.40    0.55
  13   6  12    0.63    0.34
  19 -13  12   -0.12    0.26
  13 -19 -12    1.06    0.53
   6  13 -12    0.03    0.39
  19  -6 -12    0.39    0.48
 -14  19  12    1.65    1.05
  19  -5  12    0.88    0.36
  14   5 -12    2.94    0.85
  19 -14 -12    2.41    0.74
  19  -5 -12    3.06    0.86
  -5  19  12    1.88    0.56
  19 -14  12    2.07    0.66
   5  14 -12    1.94    0.65
  -5  19  12    1.90    0.78
  14   5  12    1.78    0.50
 -19  14  12    1.54    0.81
  14 -19 -12    0.94    0.57
  15   4 -12    0.35    0.52
  19  -4  12    0.33    0.30
  19 -15 -12    1.04    0.56
 -15  19  12   -0.44    0.54
   4  15 -12    0.03    0.39
  19 -15  12   -0.22    0.35
  15   4  12   -0.18    0.24
  19  -4 -12    0.14    0.46
  15 -19 -12   -0.12    0.44
  -4  19  12    1.84    0.72
  -4  19  12    0.25    0.40
 -19  15  12    0.09    0.60
  16   3 -12   -0.16    0.52
 -16  19  12   -0.20    0.56
  19 -16 -12    0.58    0.52
  19  -3  12    0.15    0.29
 -19  16  12   -0.13    0.55
   3  16 -12   -0.30    0.42
  19 -16  12    0.43    0.41
  -3  19  12    0.28    0.62
  16 -19 -12    0.63    0.53
  19  -3 -12    0.31    0.51
  16   3  12    0.06    0.26
  17   2 -12    0.51    0.61
 -17  19  12    0.06    0.55
  19  -2  12   -0.25    0.24
  19 -17 -12    0.31    0.48
   2  17 -12    0.04    0.45
  -2  19  12    0.16    0.60
  17 -19 -12   -0.46    0.40
  19  -2 -12    0.20    0.53
  17   2  12    0.21    0.32
 -19  17  12    0.44    0.60
  20 -10  12    0.80    0.39
  10 -20 -12    0.59    0.54
  10  10  12    0.91    0.37
  10  10 -12    1.54    0.70
 -10  20  12   -0.34    0.59
 -20  10  12    0.47    0.72
  20 -10 -12    0.36    0.46
 -11  20  12    0.86    0.64
  20  -9  12    0.76    0.40
   9 -20 -12    0.56    0.56
  20 -11 -12    0.50    0.49
  11   9 -12    1.62    0.65
   9  11  12    0.64    0.35
 -20  11  12    0.99    0.83
  20  -9 -12    1.65    0.59
  11 -20 -12    0.57    0.48
   9  11 -12    0.79    0.51
  11   9  12    0.08    0.32
  20 -11  12    1.04    0.38
  -9  20  12    1.01    0.73
 -12  20  12    1.17    0.73
  12   8 -12    1.57    0.75
  20 -12 -12    2.02    0.65
   8 -20 -12    2.67    0.73
  20  -8  12    1.45    0.44
  -8  20  12    0.51    0.64
  12 -20 -12    1.99    0.71
 -20  12  12    1.34    0.81
  20  -8 -12    3.38    0.95
  12   8  12    2.15    0.50
  20  -8 -12    1.21    0.64
   8  12 -12    1.21    0.67
  20 -12  12    2.66    0.58
  20  -7  12    0.30    0.28
 -13  20  12    1.33    0.80
  13   7 -12    0.22    0.53
  20 -13 -12    0.62    0.52
   7 -20 -12    0.24    0.50
  20  -7 -12   -0.28    0.56
   7  13 -12   -0.71    0.49
  -7  20  12    1.61    0.76
  20 -13  12    0.08    0.26
  13   7  12   -0.25    0.27
 -20  13  12   -0.09    0.64
  13 -20 -12   -0.31    0.40
 -14  20  12   -0.11    0.59
  20  -6  12   -0.01    0.26
  20 -14 -12    0.59    0.48
  14   6 -12    0.26    0.51
  20  -6 -12   -0.32    0.50
  -6  20  12    0.00    0.65
   6  14 -12    1.05    0.49
  -6  20  12    0.27    0.43
  14 -20 -12    0.70    0.49
  14   6  12   -0.02    0.30
  20 -14  12    0.39    0.48
 -20  14  12   -0.45    0.56
 -15  20  12    0.42    0.64
  20  -5  12   -0.06    0.25
  20 -15 -12    0.73    0.63
  15   5 -12    0.06    0.52
  -5  20  12   -0.33    0.39
 -20  15  12    0.10    0.56
  15 -20 -12   -0.92    0.39
  15   5  12    0.43    0.31
   5  15 -12    0.58    0.44
  20 -15  12   -0.11    0.39
  20  -5 -12   -0.14    0.56
  -5  20  12    0.29    0.66
  -4  20  12   -1.10    0.65
   4  16 -12    0.54    0.48
  10 -21 -12    0.00    0.51
  21 -11 -12    1.69    0.58
 -11  21  12   -0.36    0.72
  11  10 -12    0.07    0.47
  21 -10  12    0.10    0.30
  10  11 -12    1.50    0.63
  11 -21 -12    0.14    0.55
 -10  21  12   -0.90    0.68
  21 -10 -12    0.26    0.45
  21 -11  12    0.01    0.32
  21 -12 -12    0.62    0.59
 -12  21  12    1.40    0.86
  12   9 -12    1.04    0.60
   9 -21 -12    0.18    0.54
  21  -9 -12   -0.42    0.43
  12 -21 -12    0.68    0.54
   9  12 -12    0.04    0.47
  -9  21  12    0.16    0.64
  21 -12  12    0.11    0.37
  12   9  12    0.73    0.35
   8  13 -12    0.73    0.53
  -8  21  12    0.04    0.73
   0   0  13    0.94    0.33
   0  -1  13   -0.10    0.19
  -1   1  13    0.14    0.23
   0   1 -13    0.03    0.16
  -1   1  13    0.02    0.24
   0   1  13   -0.22    0.19
  -1   0  13   -0.25    0.19
   1   0  13    0.09    0.22
   1  -1  13    0.23    0.22
   1   0 -13   -0.37    0.16
   2  -1  13   53.07    2.58
  -1   2  13   55.28    2.71
  -1  -1  13   53.35    2.53
   1  -2  13   51.86    2.50
  -2   1  13   51.16    2.60
  -1   2  13   50.67    2.42
   1   1 -13   53.80    2.49
   1   1  13   53.06    2.66
   2   0  13    0.05    0.24
  -2   0  13   -0.37    0.20
   0  -2  13   -0.02    0.20
   2   0 -13   -0.05    0.18
   2  -2  13   -0.15    0.16
  -2   2  13    0.06    0.20
  -2   2  13   -0.13    0.18
   0   2  13   -0.18    0.19
   0   2 -13   -0.01    0.17
   3  -2 -13    1.83    0.51
   1   2  13    1.85    0.52
  -1  -2  13    1.10    0.34
   3  -1  13    1.24    0.41
  -2   3  13    1.37    0.35
  -2   3  13    1.55    0.50
   2  -3  13    1.40    0.39
   2   1 -13    1.67    0.38
   3  -2  13    0.95    0.36
  -3   2  13    1.22    0.42
   3  -1 -13    1.29    0.35
  -1   3  13    1.21    0.33
   2   1  13    1.23    0.44
  -1   3  13    1.15    0.45
   1  -3  13    0.61    0.27
   1   2 -13    1.35    0.35
  -2  -1  13    1.10    0.34
   0   3 -13   -0.04    0.19
   0  -3  13   -0.12    0.19
  -3   3  13    0.04    0.23
   3   0  13   -0.04    0.23
   3  -3 -13    0.02    0.26
   3   0 -13    0.14    0.23
   0   3  13   -0.05    0.20
  -3   0  13   -0.12    0.18
   3  -3  13   -0.42    0.15
   2   2  13   16.18    1.26
   2   2 -13   15.09    1.11
   4  -2 -13   13.20    1.10
  -2   4  13   15.72    1.11
   2  -4  13   15.53    1.03
   4  -2  13   14.64    1.10
   4  -2 -13   14.93    1.24
  -2   4  13   17.95    1.34
  -2  -2  13   15.05    1.05
   4  -3 -13    8.18    1.07
   1   3  13    8.77    1.05
   3   1 -13    8.57    0.91
  -1  -3  13    8.10    0.78
  -3   4  13    8.62    0.86
   4  -1  13    9.85    1.00
   3  -4  13    7.23    0.79
   4  -3  13    8.45    0.88
  -1   4  13    8.58    0.86
   4  -1 -13    9.01    1.03
  -1   4  13   10.39    1.12
   1  -4  13    8.38    0.73
   4  -1 -13    9.79    0.88
  -3  -1  13    7.11    0.80
   1   3 -13   10.16    0.82
  -4   3  13    7.96    0.86
   3   1  13    8.88    1.01
   3  -4 -13    8.35    1.14
   0   4  13    0.14    0.27
   4  -4 -13    0.00    0.24
  -4   4  13    0.11    0.24
   0  -4  13    0.11    0.19
   4   0  13   -0.18    0.20
   0   4 -13    0.21    0.19
   4   0 -13   -0.46    0.17
   4   0 -13   -0.10    0.21
   4  -4  13    0.07    0.19
   5  -3 -13    2.09    0.56
  -2  -3  13    1.76    0.40
   5  -2  13    2.62    0.52
   2   3  13    2.41    0.61
  -3   5  13    2.51    0.51
   3   2 -13    1.62    0.44
   3  -5  13    1.95    0.40
  -2   5  13    2.52    0.52
  -2   5  13    2.49    0.60
  -3  -2  13    2.06    0.45
   2   3 -13    2.05    0.48
   5  -3  13    2.02    0.47
   2  -5  13    2.54    0.45
   5  -2 -13    1.60    0.47
   5  -2 -13    1.88    0.48
   3   2  13    1.61    0.48
   3  -5 -13    2.32    0.63
   1   4  13    4.92    0.84
  -1  -4  13    4.57    0.57
   5  -4 -13    5.76    0.93
  -4   5  13    4.09    0.68
   5  -1  13    4.61    0.72
   4   1 -13    5.18    0.76
   4  -5  13    4.54    0.62
  -5   4  13    4.77    0.71
   5  -4  13    5.90    0.73
   1   4 -13    4.79    0.69
   4  -5 -13    4.41    0.83
  -1   5  13    4.99    0.74
   5  -1 -13    4.47    0.74
   1  -5  13    5.24    0.60
  -1   5  13    4.17    0.78
   4   1  13    5.16    0.79
   5  -1 -13    3.93    0.69
   0   5  13    0.32    0.30
   0   5 -13    0.12    0.23
   5   0 -13    0.10    0.19
   5   0 -13    0.36    0.28
   5  -5  13    0.04    0.22
  -5   5  13   -0.24    0.21
   5  -5 -13    0.12    0.30
   5   0  13   -0.31    0.18
  -3   6  13   31.18    1.91
   6  -3 -13   29.72    1.92
   3   3 -13   32.78    1.93
   6  -3  13   33.91    1.81
   6  -3 -13   31.13    1.96
   3  -6  13   30.59    1.60
   3  -6 -13   36.30    2.26
   3   3  13   32.14    1.96
   4   2 -13    2.59    0.56
   2   4  13    2.62    0.61
  -4   6  13    2.17    0.49
   4  -6  13    2.27    0.44
   6  -4 -13    3.11    0.69
   6  -2  13    2.53    0.53
   6  -4  13    3.36    0.57
   4   2  13    3.22    0.65
   6  -2 -13    1.48    0.47
   2   4 -13    2.16    0.51
  -4  -2  13    2.13    0.40
  -2   6  13    2.88    0.57
   6  -2 -13    1.85    0.52
  -6   4  13    2.35    0.60
   2  -6  13    3.08    0.46
  -2   6  13    2.59    0.63
   4  -6 -13    3.94    0.82
   5  -6  13    9.68    0.79
   5   1 -13   12.72    1.09
   5   1 -13    9.80    0.98
   1   5  13   10.16    1.17
   6  -5 -13   11.66    1.29
  -5   6  13    9.34    1.03
   6  -1  13   11.97    0.98
   6  -5  13    8.73    0.88
   1   5 -13   10.20    0.91
  -1   6  13   10.08    1.14
  -6   5  13    8.70    0.99
   5   1  13    9.04    1.04
   5  -6 -13   11.63    1.33
   6  -1 -13    9.82    1.05
  -1   6  13   11.01    1.22
   6  -1 -13    8.93    1.06
   6   0 -13   -0.23    0.19
   6   0 -13    0.20    0.27
   6   0  13    0.04    0.22
  -6   6  13    0.10    0.29
   6  -6  13   -0.11    0.20
   0   6  13    0.02    0.29
   6  -6 -13    0.35    0.35
   0   6 -13   -0.17    0.22
   3   4  13    2.23    0.58
   7  -4 -13    1.57    0.50
   7  -4 -13    1.30    0.44
   4   3 -13    1.64    0.49
   4  -7  13    1.95    0.38
   3  -7 -13    1.14    0.54
   7  -3  13    2.43    0.50
  -4   7  13    1.70    0.47
   3   4 -13    1.83    0.49
   7  -3 -13    2.19    0.55
  -3   7  13    2.76    0.58
   4  -7 -13    1.39    0.55
   7  -4  13    2.39    0.49
   4   3  13    3.21    0.67
   7  -3 -13    1.03    0.41
   5   2 -13    5.48    0.74
   7  -2  13    5.91    0.79
   7  -5 -13    5.65    0.92
   5   2 -13    7.15    0.96
   2   5  13    6.05    0.93
  -5   7  13    5.57    0.83
   5  -7  13    5.33    0.62
   5   2  13    6.03    0.87
  -7   5  13    6.09    0.89
   7  -5  13    5.65    0.72
  -2   7  13    5.72    0.88
  -2   7  13    6.62    1.01
   7  -2 -13    5.47    0.87
   5  -7 -13    6.88    1.10
   2   5 -13    5.62    0.82
   7  -2 -13    6.60    0.91
   1   6  13    2.84    0.66
   7  -6 -13    1.42    0.48
   6  -7  13    3.01    0.51
  -6   7  13    4.00    0.75
   7  -1  13    1.86    0.48
   6   1 -13    1.55    0.53
   6   1 -13    2.32    0.51
  -7   6  13    3.13    0.68
  -1   7  13    1.70    0.55
   7  -6  13    2.66    0.47
   7  -1 -13    1.69    0.45
  -1   7  13    3.16    0.67
   6  -7 -13    1.61    0.56
   6   1  13    3.34    0.66
   1   6 -13    2.15    0.51
   7  -1 -13    2.10    0.54
   0   7 -13    0.12    0.22
   7  -7 -13   -0.04    0.28
   7   0 -13    0.29    0.24
   7   0  13   -0.15    0.19
   0   7  13   -0.56    0.31
   7  -7  13    0.10    0.24
  -7   7  13   -0.16    0.30
   7   0 -13    0.07    0.26
   0   7  13   -0.13    0.22
  -4   8  13    6.88    0.98
   8  -4  13    6.77    0.82
   8  -4 -13    3.79    0.76
   4  -8 -13    3.82    0.86
   8  -4 -13    4.62    0.79
   4   4 -13    4.93    0.83
   4   4  13    8.64    1.06
   8  -5 -13    0.65    0.39
  -5   8  13    0.99    0.43
   8  -3  13    1.51    0.40
   5  -8  13    0.92    0.29
   5   3 -13    0.01    0.25
   3   5  13    0.85    0.39
   3  -8 -13    0.25    0.43
  -3   8  13    1.78    0.52
   5   3  13    0.92    0.41
   8  -3 -13    0.84    0.36
   3   5 -13    1.00    0.41
   8  -3 -13    0.62    0.38
   5  -8 -13    0.40    0.45
   8  -5  13    1.09    0.34
   6   2 -13    2.74    0.65
   8  -2  13    3.74    0.64
   2   6  13    3.44    0.73
   6  -8  13    3.12    0.48
   8  -6 -13    2.05    0.60
  -6   8  13    4.68    0.82
  -2   8  13    4.74    0.87
   6   2  13    3.34    0.67
   6  -8 -13    1.89    0.65
   2   6 -13    2.61    0.58
   8  -6  13    3.30    0.56
   8  -2 -13    1.84    0.57
   8  -2 -13    2.80    0.58
  -2   8  13    3.84    0.77
  -8   6  13    3.97    0.77
   1   7  13    5.52    0.93
   7  -8  13    4.96    0.61
   8  -1  13    5.75    0.82
  -7   8  13    6.41    0.96
   7   1 -13    4.10    0.79
   8  -7 -13    4.99    0.91
   8  -1 -13    3.49    0.73
   8  -7  13    5.47    0.67
   7  -8 -13    5.41    0.99
  -8   7  13    5.70    0.91
  -1   8  13    5.98    1.02
   7   1  13    5.74    0.86
  -1   8  13    4.56    0.85
   1   7 -13    4.82    0.77
   8  -1 -13    4.18    0.72
   0   8 -13   -0.25    0.24
   8   0 -13   -0.03    0.27
   0   8  13   -0.13    0.37
   8  -8  13    0.12    0.22
   8   0  13    0.00    0.22
   0   8  13    0.40    0.32
   8  -8 -13    0.10    0.35
  -8   8  13   -0.28    0.30
   8   0 -13   -0.13    0.17
   9  -4  13    0.01    0.20
   9  -5 -13   -0.17    0.24
   4  -9 -13    0.69    0.49
   5   4 -13   -0.04    0.27
  -5   9  13   -0.17    0.28
   4   5  13    0.32    0.29
   9  -5 -13    0.45    0.29
   9  -4 -13    0.69    0.35
   5  -9 -13    0.25    0.39
   5   4  13    0.13    0.24
   9  -5  13    0.19    0.19
  -4   9  13    0.57    0.37
   4   5 -13    0.30    0.30
   9  -4 -13    0.17    0.25
   9  -3  13    6.76    0.86
   3   6  13    6.63    0.97
   3  -9 -13    6.36    1.13
   9  -6 -13    5.24    0.90
   6   3 -13    6.91    1.05
  -6   9  13    5.87    0.98
   6  -9 -13    5.15    0.98
   9  -3 -13    5.05    0.87
  -9   6  13    5.10    0.91
  -3   9  13    5.49    0.94
   3   6 -13    5.48    0.89
   9  -3 -13    4.64    0.79
   9  -6  13    6.21    0.76
   6   3  13    5.11    0.81
   7  -9  13    0.65    0.26
   2   7  13    1.50    0.52
   9  -2  13    1.49    0.45
  -7   9  13    0.76    0.42
   7   2 -13    0.69    0.42
   9  -7 -13    1.01    0.46
   9  -2 -13    0.99    0.42
  -2   9  13    1.18    0.55
   2   7 -13    1.12    0.42
   7   2  13    1.44    0.44
  -2   9  13    1.41    0.54
  -9   7  13    1.56    0.57
   7  -9 -13    1.86    0.63
   9  -7  13    1.44    0.37
   9  -2 -13    0.39    0.34
   8   1 -13    3.47    0.73
   9  -8 -13    2.78    0.69
   1   8  13    2.92    0.68
   8  -9  13    4.63    0.57
   9  -1  13    3.86    0.66
  -8   9  13    4.57    0.88
   8   1  13    4.01    0.71
  -1   9  13    3.55    0.88
  -9   8  13    4.63    0.86
   8  -9 -13    4.29    0.89
   9  -8  13    4.57    0.61
   9  -1 -13    4.31    0.70
   1   8 -13    3.50    0.67
  -1   9  13    4.54    0.88
   9  -1 -13    3.17    0.75
   9   0 -13   -0.50    0.25
   9  -9  13    0.02    0.19
   9  -9 -13   -0.41    0.25
   0   9  13   -0.16    0.29
   0   9 -13    0.35    0.28
  -9   9  13    0.05    0.37
   0   9  13    0.18    0.46
   9   0  13   -0.02    0.26
   5   5  13    1.24    0.45
  -5  10  13    0.27    0.38
  10  -5  13    1.41    0.38
   5 -10 -13    1.10    0.55
  10  -5 -13    1.08    0.53
   5   5 -13    1.02    0.42
  10  -5 -13    0.42    0.33
  -6  10  13    3.77    0.82
   6   4 -13    3.13    0.71
  10  -4  13    4.76    0.72
   4 -10 -13    3.65    0.86
   4   6  13    3.90    0.76
  10  -6 -13    3.02    0.73
   4   6 -13    3.89    0.76
  -4  10  13    5.33    0.96
   6 -10 -13    2.98    0.81
  10  -6  13    4.66    0.67
   6   4  13    4.99    0.81
  10  -4 -13    3.49    0.76
  10  -4 -13    4.02    0.76
  10  -7 -13    0.11    0.31
  -7  10  13    0.68    0.47
   3   7  13    0.92    0.44
  10  -3  13    0.61    0.33
   7   3 -13    0.11    0.34
  10  -3 -13    0.06    0.31
   7   3  13    0.07    0.26
  10  -3 -13    0.04    0.23
   3   7 -13    0.02    0.31
   7 -10 -13    0.13    0.36
  10  -7  13    0.25    0.23
 -10   7  13    0.38    0.47
  -3  10  13   -0.22    0.33
   2   8  13   11.61    1.34
   8   2 -13   12.01    1.45
  10  -2  13   11.86    1.04
   8 -10  13   13.58    0.87
  10  -8 -13   12.08    1.41
  -8  10  13   13.58    1.48
  -2  10  13   11.27    1.47
   8 -10 -13   10.79    1.46
  10  -2 -13   10.55    1.36
  -2  10  13   14.42    1.50
  10  -2 -13    9.79    1.14
   2   8 -13   12.07    1.27
   8   2  13   10.92    1.18
 -10   8  13   12.01    1.37
  10  -8  13   14.85    1.00
  10  -1  13   10.94    1.14
  10  -9 -13   11.47    1.40
  -9  10  13   10.53    1.36
   9 -10  13   11.97    0.83
   9   1 -13   12.93    1.48
  -1  10 -13   12.25    1.07
   1   9  13   10.59    1.31
  10  -1 -13   12.69    1.49
 -10   9  13    9.74    1.29
   9   1  13   11.11    1.18
   1   9 -13   10.53    1.20
   9 -10 -13   12.07    1.49
  10  -1 -13    9.25    1.07
  10  -9  13   12.65    0.91
  -1  10  13   10.51    1.32
  -1  10  13   11.49    1.46
   0  10 -13    0.32    0.31
  10   0 -13    0.09    0.33
  10   0  13    0.40    0.31
   0  10  13   -0.07    0.27
  10 -10 -13   -0.16    0.29
 -10  10  13    0.06    0.45
   0  10  13    0.15    0.37
  10 -10  13    0.19    0.22
  11  -5  13    4.00    0.65
  -6  11  13    3.21    0.81
   6   5 -13    4.31    0.84
   5 -11 -13    3.56    0.92
   5   6  13    3.71    0.74
  11  -6 -13    2.68    0.73
  11  -6 -13    3.13    0.70
  11  -5 -13    3.82    0.76
   6   5  13    3.81    0.73
   5   6 -13    4.13    0.82
  11  -6  13    3.91    0.63
  -5  11  13    3.52    1.02
  11  -5 -13    2.69    0.73
   6 -11 -13    4.78    1.02
   4 -11 -13    2.46    0.80
   4   7  13    1.04    0.46
  11  -7 -13    0.92    0.48
  11  -4  13    0.65    0.34
  -7  11  13    1.59    0.63
   7   4 -13    1.18    0.49
   4   7 -13    2.67    0.65
  11  -7  13    2.12    0.48
  11  -4 -13    0.98    0.47
  11  -4 -13    2.41    0.61
   7 -11 -13    0.87    0.52
  -4  11  13    1.33    0.60
 -11   7  13    1.27    0.59
   7   4  13    2.07    0.53
   3   8  13    2.89    0.67
   8   3 -13    2.43    0.69
  11  -8 -13    2.02    0.62
  11  -3  13    2.20    0.53
  -8  11  13    0.83    0.54
  11  -8  13    2.30    0.48
   3   8 -13    1.94    0.56
  11  -3 -13    2.35    0.66
   8   3  13    2.16    0.56
  11  -3 -13    1.80    0.52
  -3  11  13    2.68    0.72
 -11   8  13    2.24    0.72
   8 -11 -13    0.95    0.50
   9   2 -13    2.15    0.67
  -9  11  13    1.35    0.58
  11  -2  13    1.86    0.48
   2   9  13    1.58    0.57
  11  -9 -13    2.06    0.66
  -2  11  13    1.27    0.58
  11  -2 -13    1.84    0.50
  11  -9  13    2.08    0.43
  11  -2 -13    0.80    0.49
 -11   9  13    1.86    0.67
   2   9 -13    1.39    0.52
  -2  11  13    1.62    0.60
   9   2  13    0.69    0.39
   9 -11 -13    2.20    0.70
  10 -11  13   18.03    1.06
  10   1 -13   14.18    1.65
   1  10  13   18.28    1.54
  11  -1  13   16.01    1.26
 -10  11  13   17.97    1.80
  11 -10 -13   13.82    1.63
  -1  11  13   19.45    1.60
  -1  11  13   19.20    1.74
   1  10 -13   15.22    1.35
  10   1  13   16.60    1.31
  11  -1 -13   16.52    1.77
  10 -11 -13   17.45    1.78
 -11  10  13   15.50    1.65
  11 -10  13   17.38    1.11
 -11  11  13   -0.72    0.33
  11 -11  13    0.42    0.24
  11   0  13    0.05    0.25
   0  11  13    0.17    0.38
  11 -11 -13    0.17    0.36
   0  11 -13    0.42    0.29
  11   0 -13   -0.02    0.38
   0  11  13    0.25    0.32
  12  -6 -13    6.81    1.15
  12  -6  13    6.81    0.84
   6   6 -13    7.31    1.14
   6   6  13    5.94    0.93
  12  -6 -13    5.90    0.98
   6 -12 -13    6.21    1.14
  -6  12  13    5.41    1.21
   7   5 -13    0.51    0.44
   5   7  13   -0.46    0.23
  -7  12  13    0.04    0.40
  12  -5  13    0.13    0.27
  12  -7 -13   -0.31    0.27
   5 -12 -13    0.41    0.51
   7 -12 -13    0.28    0.38
  12  -7  13    0.68    0.33
  -5  12  13   -0.35    0.32
  12  -5 -13    0.68    0.46
  12  -5 -13    0.26    0.32
 -12   7  13    0.53    0.61
   7   5  13    0.89    0.42
   5   7 -13    0.88    0.45
   4 -12 -13    3.66    0.88
  -8  12  13    1.93    0.67
   8   4 -13    1.72    0.61
  12  -4  13    1.29    0.43
  12  -8 -13    2.26    0.64
   4   8  13    1.87    0.55
   4   8 -13    2.00    0.58
 -12   8  13    2.04    0.72
  12  -8  13    1.87    0.44
  12  -4 -13    1.82    0.50
  12  -4 -13    1.59    0.59
   8   4  13    1.85    0.52
  -4  12  13    2.13    0.71
   8 -12 -13    1.19    0.57
  12  -9 -13    1.58    0.59
   9   3 -13    0.92    0.45
  -9  12  13    1.56    0.58
   3   9  13    1.48    0.52
  12  -3  13    0.55    0.33
   9   3  13    1.15    0.43
 -12   9  13    1.01    0.61
   9 -12 -13    1.88    0.65
  -3  12  13    0.94    0.46
  12  -9  13    1.78    0.41
   3   9 -13    1.73    0.55
  -3  12  13    0.43    0.49
  12  -3 -13    0.69    0.40
  12  -3 -13    1.21    0.59
   2  10  13    1.05    0.51
 -10  12  13    2.01    0.71
  10   2 -13    3.54    0.86
  12  -2  13    2.05    0.53
  12 -10 -13    2.10    0.68
  10   2  13    1.85    0.52
  10 -12 -13    3.22    0.78
  12 -10  13    2.50    0.47
  -2  12  13    2.43    0.72
  -2  12  13    2.54    0.68
  12  -2 -13    1.47    0.58
 -12  10  13    1.33    0.63
   2  10 -13    2.47    0.58
   1  11  13    0.90    0.51
  12  -1  13    0.49    0.34
  11   1 -13    0.75    0.45
 -11  12  13    0.99    0.55
  12 -11 -13    2.01    0.64
  11 -12  13    0.97    0.27
  12  -1 -13    1.43    0.56
  -1  12  13    0.92    0.55
  11   1  13    0.82    0.36
  12 -11  13    1.34    0.36
 -12  11  13    1.09    0.60
   1  11 -13    1.82    0.50
  -1  12  13    0.21    0.34
  11 -12 -13    1.46    0.61
 -12  12  13   -0.31    0.41
  12 -12  13    0.05    0.20
   0  12 -13    0.02    0.31
   0  12  13   -0.05    0.30
  12   0 -13   -0.37    0.33
  12   0  13   -0.14    0.22
  12 -12 -13   -0.36    0.31
  13  -6  13    1.21    0.38
  -7  13  13    1.28    0.85
   6   7  13    1.01    0.41
   6 -13 -13    2.89    0.80
   7   6 -13    1.72    0.61
  13  -7 -13    0.72    0.40
  13  -6 -13    2.17    0.65
  -6  13  13    1.66    0.61
   7 -13 -13    1.03    0.61
   7   6  13    1.37    0.50
   6   7 -13    1.45    0.57
  13  -7  13    1.16    0.37
  13  -6 -13    1.73    0.59
  13  -8 -13    2.04    0.61
  13  -5  13    2.16    0.53
   5   8  13    2.51    0.63
   8   5 -13    1.14    0.57
   5 -13 -13    2.47    0.81
  -8  13  13    2.93    0.77
  13  -5 -13    2.30    0.63
  -5  13  13    2.24    0.71
   8 -13 -13    2.44    0.74
   8   5  13    1.15    0.47
  13  -5 -13    1.81    0.57
  13  -8  13    2.13    0.48
   5   8 -13    1.39    0.55
 -13   8  13    1.85    0.73
   9   4 -13    1.39    0.57
  -9  13  13    1.68    0.62
   4 -13 -13    2.28    0.75
  13  -9 -13    2.45    0.69
   4   9  13    1.57    0.52
  13  -4  13    1.52    0.46
  13  -4 -13    2.18    0.62
 -13   9  13    2.00    0.73
   9 -13 -13    1.24    0.58
  13  -9  13    1.47    0.40
   9   4  13    1.83    0.52
  13  -4 -13    1.63    0.51
  -4  13  13    1.49    0.65
   4   9 -13    1.57    0.58
 -10  13  13    2.02    0.74
  13 -10 -13    0.65    0.52
  13  -3  13    2.54    0.55
  10   3 -13    1.26    0.58
   3  10  13    2.77    0.67
 -13  10  13    2.26    0.80
   3  10 -13    2.74    0.69
  13 -10  13    2.51    0.51
  -3  13  13    1.27    0.58
  -3  13  13    2.15    0.66
  13  -3 -13    2.35    0.66
  10   3  13    2.14    0.54
  13  -3 -13    2.11    0.58
  10 -13 -13    2.24    0.69
  11   2 -13    5.84    1.11
   2  11  13    4.73    0.87
  13  -2  13    4.59    0.75
  13 -11 -13    4.98    1.00
 -11  13  13    5.25    1.12
 -13  11  13    5.74    1.11
  -2  13  13    3.62    0.98
   2  11 -13    4.45    0.82
  13  -2 -13    3.90    0.89
  11 -13 -13    4.52    0.94
  11   2  13    4.60    0.78
  -2  13  13    4.30    0.90
  13 -11  13    4.71    0.63
  13  -1  13    0.48    0.30
  13 -12 -13    0.48    0.43
 -12  13  13    1.00    0.60
  12   1 -13    0.08    0.40
   1  12  13    0.07    0.34
  12   1  13    0.28    0.29
  13 -12  13    0.41    0.25
  -1  13  13    0.52    0.36
  13  -1 -13    0.51    0.42
 -13  12  13    0.23    0.54
   1  12 -13    1.02    0.45
  -1  13  13    1.29    0.60
  12 -13 -13    0.49    0.42
   0  13  13    0.13    0.34
  13   0 -13   -0.01    0.42
  13 -13 -13    0.51    0.42
  13   0  13    0.03    0.24
  13 -13  13    0.33    0.22
   0  13 -13    0.28    0.31
 -13  13  13    0.03    0.44
   7   7 -13    1.08    0.53
   7 -14 -13    1.52    0.65
  14  -7 -13    1.65    0.55
  14  -7  13    0.76    0.32
   7   7  13    1.43    0.48
  -7  14  13    2.14    0.67
  14  -7 -13    0.55    0.54
   6 -14 -13    0.89    0.55
  14  -8 -13    0.53    0.38
   6   8  13    0.25    0.27
   8   6 -13    0.31    0.36
  -8  14  13   -0.24    0.72
  14  -6  13   -0.17    0.24
  14  -6 -13    0.41    0.40
  14  -6 -13   -0.15    0.27
   6   8 -13    0.68    0.41
  -6  14  13    0.13    0.51
   8   6  13    0.45    0.31
   8 -14 -13    0.44    0.51
 -14   8  13   -0.24    0.48
  14  -8  13    0.40    0.26
  -9  14  13    0.12    0.39
   9   5 -13    0.69    0.51
  14  -5  13    0.59    0.33
   5 -14 -13    1.59    0.70
   5   9  13    1.29    0.46
  14  -9 -13    0.86    0.45
  14  -9  13    0.60    0.31
  -5  14  13    0.44    0.52
 -14   9  13    0.96    0.62
   5   9 -13    0.78    0.45
  14  -5 -13    1.08    0.52
   9 -14 -13    0.70    0.48
  14  -5 -13    0.36    0.44
   9   5  13    0.08    0.28
  14  -4  13    1.34    0.43
  10   4 -13    0.65    0.42
 -10  14  13    0.93    0.61
   4  10  13    0.80    0.39
  14 -10 -13    0.81    0.52
  -4  14  13    2.49    0.75
 -14  10  13    1.68    0.71
   4  10 -13    0.20    0.43
  10   4  13    1.22    0.43
  14  -4 -13    0.93    0.48
  14  -4 -13    1.62    0.55
  10 -14 -13    0.90    0.52
  14 -10  13    1.61    0.40
  11   3 -13    3.22    0.82
  14  -3  13    1.88    0.49
   3  11  13    2.86    0.69
 -11  14  13    3.64    0.94
  14 -11 -13    2.03    0.69
  11 -14 -13    1.95    0.68
  -3  14  13    2.92    0.83
 -14  11  13    2.38    0.79
  11   3  13    1.95    0.54
  14 -11  13    2.52    0.47
  -3  14  13    2.16    0.63
  14  -3 -13    1.84    0.67
   3  11 -13    3.45    0.74
  14  -2  13    1.09    0.40
  12   2 -13    0.62    0.46
   2  12  13    0.35    0.36
 -12  14  13    1.25    0.63
  14 -12 -13    0.25    0.41
  -2  14  13    1.25    0.50
  12   2  13    0.63    0.32
  14 -12  13    0.28    0.25
  14  -2 -13    0.73    0.48
  12 -14 -13    0.54    0.46
 -14  12  13    0.91    0.62
  -2  14  13    0.43    0.50
   2  12 -13    0.99    0.41
   1  13  13   -0.11    0.33
  13   1 -13    0.91    0.46
 -13  14  13   -0.01    0.43
  14  -1  13   -0.11    0.22
  14 -13 -13    0.93    0.54
   1  13 -13    0.25    0.35
  13   1  13    0.22    0.27
  -1  14  13    0.39    0.34
  13 -14 -13    0.00    0.43
  -1  14  13   -0.35    0.48
 -14  13  13    0.32    0.57
  14 -13  13    0.32    0.26
  14  -1 -13   -0.46    0.38
  14   0  13    0.28    0.27
   0  14  13    0.77    0.40
  14   0 -13    0.23    0.43
  14 -14 -13   -0.67    0.33
   0  14 -13   -0.13    0.31
 -14  14  13   -0.13    0.48
   8   7 -13   -0.51    0.35
  15  -7  13   -0.02    0.24
   7 -15 -13    0.08    0.43
   7   8  13    0.20    0.32
  15  -8 -13    0.30    0.39
  -8  15  13    0.37    0.49
   8 -15 -13    0.31    0.52
  15  -8  13   -0.20    0.23
  -7  15  13    0.24    0.50
  15  -7 -13    0.63    0.42
   7   8 -13   -0.29    0.34
   8   7  13   -0.04    0.27
  15  -7 -13    0.15    0.34
 -15   8  13   -0.07    0.55
  -9  15  13    3.83    1.17
   6   9  13    3.05    0.67
   9   6 -13    4.27    0.95
  15  -6  13    3.76    0.65
   6 -15 -13    4.40    1.06
  15  -9 -13    5.25    0.99
  15  -6 -13    4.51    0.98
  -6  15  13    3.65    0.96
 -15   9  13    4.21    1.03
   6   9 -13    3.13    0.81
   9 -15 -13    5.02    1.04
  15  -6 -13    3.52    0.79
   9   6  13    4.18    0.75
  15  -9  13    2.94    0.57
  15 -10 -13    1.54    0.61
 -10  15  13    0.36    0.50
  15  -5  13    1.37    0.42
  10   5 -13    0.57    0.50
   5 -15 -13    0.99    0.61
   5  10  13    0.58    0.40
  -5  15  13    2.62    0.88
  10   5  13    1.64    0.47
 -15  10  13    1.17    0.70
  10 -15 -13    1.06    0.58
   5  10 -13    0.16    0.38
  15 -10  13    1.54    0.41
  15  -5 -13    0.80    0.46
  15  -5 -13    0.14    0.40
  11   4 -13    0.62    0.46
   4  11  13    0.70    0.42
  15  -4  13    0.27    0.29
  15 -11 -13    0.06    0.35
 -11  15  13   -0.15    0.41
  -4  15  13   -0.34    0.30
  -4  15  13   -0.88    0.46
   4  11 -13    0.05    0.39
 -15  11  13   -0.69    0.40
  11   4  13    0.44    0.31
  11 -15 -13   -0.06    0.43
  15  -4 -13   -0.65    0.32
  15 -11  13   -0.01    0.21
  12   3 -13    1.24    0.54
  15  -3  13    1.99    0.50
 -12  15  13    0.18    0.56
   3  12  13    1.84    0.59
  15 -12 -13    1.43    0.60
  15  -3 -13    1.08    0.53
  -3  15  13    1.75    0.74
   3  12 -13    0.09    0.37
  15 -12  13    1.18    0.35
  12 -15 -13    2.23    0.73
  -3  15  13    0.52    0.38
 -15  12  13    1.30    0.69
  12   3  13    1.83    0.49
   2  13  13   -0.04    0.32
 -13  15  13    0.81    0.60
  15  -2  13    0.16    0.26
  13   2 -13   -0.86    0.35
  15 -13 -13   -0.17    0.34
  15 -13  13    0.16    0.23
  -2  15  13    1.19    0.53
   2  13 -13    0.38    0.39
  -2  15  13    0.42    0.37
  15  -2 -13   -0.44    0.36
  13   2  13    0.26    0.25
 -15  13  13    0.74    0.58
  13 -15 -13    0.12    0.39
  15 -14 -13    0.83    0.54
   1  14  13    1.01    0.49
  15  -1  13    0.97    0.39
  14   1 -13    1.38    0.55
 -14  15  13    0.46    0.59
  14 -15 -13    1.17    0.59
  -1  15  13    1.31    0.64
   1  14 -13    1.01    0.49
  14   1  13    0.47    0.32
  15 -14  13    1.12    0.38
  15  -1 -13    0.64    0.48
 -15  14  13    2.79    0.84
  -1  15  13    1.28    0.49
   0  15 -13   -0.43    0.30
 -15  15  13    0.02    0.55
  15   0 -13    0.58    0.52
   0  15  13   -0.18    0.33
  15   0  13    0.11    0.25
  15 -15 -13   -0.10    0.37
   8 -16 -13    0.69    0.58
  -8  16  13    0.84    0.61
  16  -8 -13    0.86    0.46
   8   8 -13    1.48    0.59
  16  -8  13    1.15    0.39
   8   8  13    1.62    0.49
  16  -7  13    0.82    0.37
  -9  16  13    0.71    0.61
   7   9  13    0.81    0.40
   7 -16 -13    0.70    0.55
  16  -9 -13   -0.29    0.34
   9   7 -13    0.49    0.44
   7   9 -13    0.53    0.48
   9 -16 -13   -0.50    0.46
  16  -9  13    0.57    0.32
  16  -7 -13    0.42    0.47
   9   7  13    1.00    0.35
 -16   9  13    0.91    0.74
  16  -7 -13    0.91    0.49
  -7  16  13    0.10    0.57
  16  -6  13   -0.12    0.23
  10   6 -13    0.33    0.50
 -10  16  13   -0.63    0.43
   6 -16 -13    0.36    0.45
   6  10  13   -0.20    0.26
  16 -10 -13    0.50    0.40
  16  -6 -13    0.82    0.37
  16  -6 -13    0.20    0.40
  16 -10  13   -0.11    0.20
   6  10 -13    0.06    0.34
  -6  16  13   -0.69    0.48
  10 -16 -13   -0.21    0.40
 -16  10  13    0.06    0.60
  10   6  13    0.33    0.32
 -11  16  13   -0.67    0.42
  11   5 -13    0.54    0.46
   5  11  13    0.24    0.32
  16  -5  13    0.21    0.27
  16 -11 -13   -0.51    0.32
   5  11 -13   -0.44    0.32
  16 -11  13   -0.18    0.20
  11 -16 -13   -0.25    0.35
  -5  16  13    0.12    0.49
  11   5  13   -0.05    0.25
 -16  11  13   -0.17    0.49
  16  -5 -13   -0.14    0.41
 -12  16  13   -0.19    0.50
  12   4 -13    0.53    0.46
   4  12  13   -0.11    0.31
  16 -12 -13    0.47    0.44
  16  -4  13    0.09    0.27
 -16  12  13   -0.19    0.49
  16  -4 -13    0.14    0.39
   4  12 -13    0.05    0.36
  12   4  13   -0.17    0.23
  16 -12  13   -0.24    0.23
  -4  16  13   -0.30    0.49
  12 -16 -13    0.67    0.45
  -4  16  13    0.06    0.31
  13   3 -13    0.17    0.43
 -13  16  13    0.36    0.53
  16 -13 -13    0.43    0.44
  16  -3  13    0.39    0.27
   3  13  13    1.01    0.47
  13 -16 -13    1.50    0.58
  -3  16  13    0.56    0.42
 -16  13  13    0.45    0.58
  16 -13  13    0.50    0.27
   3  13 -13    0.99    0.45
  13   3  13    0.48    0.30
  16  -3 -13    0.12    0.42
  -3  16  13    1.08    0.57
  16  -2  13    0.22    0.23
   2  14  13   -0.22    0.31
 -14  16  13    0.04    0.47
  14   2 -13   -0.41    0.41
  16 -14 -13   -0.07    0.42
   2  14 -13   -0.52    0.37
  -2  16  13   -0.07    0.37
  14   2  13    0.54    0.29
 -16  14  13   -0.19    0.47
  -2  16  13   -0.23    0.54
  14 -16 -13    0.13    0.41
  16 -14  13    0.20    0.26
  16  -2 -13   -0.05    0.38
 -15  16  13   -0.03    0.51
   1  15  13   -0.43    0.32
  15   1 -13    0.60    0.51
  16  -1  13   -0.10    0.24
  16 -15 -13   -0.70    0.34
  -1  16  13   -1.11    0.53
  15 -16 -13   -0.11    0.39
  15   1  13   -0.08    0.23
  -1  16  13   -0.10    0.31
 -16  15  13    0.83    0.60
   1  15 -13    0.16    0.40
  16  -1 -13   -0.93    0.40
  16   0 -13    0.38    0.45
 -16  16  13   -0.29    0.58
   0  16 -13    0.04    0.35
  16   0  13   -0.18    0.24
   0  16  13   -0.27    0.35
  16 -16 -13   -0.91    0.39
  17  -8  13    0.04    0.28
   8 -17 -13    0.14    0.41
   9   8 -13    0.57    0.49
   8   9  13   -0.18    0.27
  17  -9 -13    0.21    0.49
  -9  17  13    0.54    0.53
   8   9 -13   -0.38    0.36
  -8  17  13   -0.65    0.48
   9 -17 -13    1.02    0.59
   9   8  13    0.09    0.27
  17  -8 -13    0.08    0.36
 -17   9  13    0.27    0.66
  17  -9  13    0.02    0.28
   7  10  13   -0.28    0.30
  17  -7  13    0.50    0.33
 -10  17  13   -0.50    0.45
  17 -10 -13    0.01    0.40
  10   7 -13    0.62    0.41
   7 -17 -13    0.83    0.60
  17  -7 -13   -0.44    0.33
  17 -10  13    0.22    0.28
  10   7  13    0.31    0.29
  10 -17 -13    0.48    0.52
  17  -7 -13   -0.21    0.41
 -17  10  13    0.00    0.61
  -7  17  13    0.08    0.61
   7  10 -13    0.30    0.42
  17 -11 -13    1.61    0.67
   6 -17 -13    2.45    0.74
  17  -6  13    1.30    0.42
  11   6 -13    1.31    0.60
 -11  17  13    1.75    0.84
   6  11  13    2.29    0.62
   6  11 -13    0.86    0.56
  11 -17 -13    2.09    0.75
  17  -6 -13    1.07    0.57
  17 -11  13    1.76    0.45
 -17  11  13    1.51    0.80
  11   6  13    1.62    0.51
  17  -6 -13    0.64    0.44
  -6  17  13    1.45    0.61
  12   5 -13   -0.11    0.44
   5  12  13    0.04    0.35
  17  -5  13    0.61    0.32
 -12  17  13   -0.18    0.54
  17 -12 -13   -0.43    0.35
  17  -5 -13   -0.23    0.47
   5  12 -13    0.27    0.42
  17 -12  13   -0.02    0.24
 -17  12  13   -0.05    0.55
  -5  17  13    0.01    0.63
  12 -17 -13   -0.03    0.40
  12   5  13   -0.31    0.26
  -5  17  13   -0.17    0.32
  17 -13 -13    2.84    0.78
   4  13  13    1.90    0.52
  17  -4  13    2.12    0.51
 -13  17  13    3.25    0.93
  13   4 -13    1.26    0.64
  13   4  13    1.98    0.50
  17 -13  13    2.46    0.53
 -17  13  13    2.88    0.95
  17  -4 -13    3.94    0.96
  13 -17 -13    1.77    0.65
   4  13 -13    2.35    0.68
  -4  17  13    3.44    0.94
  -4  17  13    1.81    0.63
  17 -14 -13    1.30    0.66
  17  -3  13    0.87    0.34
   3  14  13   -0.29    0.38
  14   3 -13    0.60    0.63
 -14  17  13   -1.14    0.48
  -3  17  13    0.32    0.67
 -17  14  13    1.62    0.80
  14   3  13    0.60    0.33
  14 -17 -13    0.50    0.54
  -3  17  13    0.98    0.45
  17  -3 -13    1.04    0.52
  17 -14  13    0.66    0.34
   3  14 -13    0.63    0.41
   2  15  13    0.18    0.38
  17  -2  13    0.92    0.38
  17 -15 -13    2.28    0.78
  15   2 -13    0.39    0.48
 -15  17  13   -0.40    0.51
 -17  15  13    0.14    0.62
  17 -15  13    1.22    0.52
  -2  17  13    0.74    0.46
  15   2  13    0.65    0.32
  15 -17 -13    0.82    0.49
  17  -2 -13    1.20    0.55
  -2  17  13    1.18    0.70
   2  15 -13    1.09    0.62
   1  16  13    0.85    0.43
  17 -16 -13   -0.15    0.48
 -16  17  13    0.88    0.64
  17  -1  13    0.55    0.34
  16   1 -13    0.19    0.51
  -1  17  13   -0.30    0.65
   1  16 -13    1.09    0.51
  -1  17  13    0.26    0.41
  17  -1 -13   -0.35    0.50
  16   1  13    0.27    0.31
  16 -17 -13   -0.58    0.40
 -17  16  13    0.62    0.63
  17   0 -13    0.44    0.58
 -17  17  13   -1.07    0.47
  17   0  13   -0.11    0.26
   0  17  13    0.17    0.40
  17 -17 -13   -0.61    0.45
   9   9  13   -0.11    0.29
 -18   9  13    0.14    0.73
  -9  18  13   -1.16    0.55
   9   9 -13    0.24    0.47
  18  -9 -13    0.20    0.42
   9 -18 -13   -0.13    0.46
  18  -9  13    0.22    0.28
 -10  18  13    1.90    0.81
   8  10  13    1.10    0.37
   8 -18 -13    2.63    0.80
  10   8 -13    3.38    0.91
  18  -8  13    2.01    0.49
  18 -10 -13    2.47    0.70
  18  -8 -13    2.66    0.79
  18 -10  13    2.21    0.49
  10   8  13    1.80    0.50
   8  10 -13    3.04    0.78
  10 -18 -13    1.54    0.71
  -8  18  13    2.16    0.82
 -18  10  13    1.36    0.83
  18  -8 -13    1.32    0.61
  18 -11 -13    1.23    0.52
  18  -7  13    0.44    0.36
   7 -18 -13    0.57    0.49
 -11  18  13    0.22    0.64
  11   7 -13    0.98    0.57
   7  11  13    1.17    0.38
  11   7  13   -0.26    0.25
  18  -7 -13    1.03    0.63
  18 -11  13    0.55    0.30
  18  -7 -13    0.56    0.43
  -7  18  13    0.50    0.61
  11 -18 -13    1.02    0.56
 -18  11  13    0.19    0.70
   7  11 -13    0.71    0.46
  18  -6  13    1.04    0.41
   6  12  13    0.42    0.40
  12   6 -13    0.39    0.49
 -12  18  13    0.16    0.58
  18 -12 -13    0.30    0.47
  12   6  13    1.29    0.39
  12 -18 -13    2.40    0.71
  18  -6 -13    0.86    0.53
  18 -12  13    0.79    0.34
 -18  12  13    0.17    0.68
  -6  18  13    1.62    0.75
   6  12 -13    1.08    0.49
   5  13  13    0.04    0.35
  18 -13 -13   -0.02    0.47
 -13  18  13    0.04    0.53
  18  -5  13    1.27    0.43
  13   5 -13    0.18    0.52
 -18  13  13    0.02    0.60
  -5  18  13    0.94    0.50
  13 -18 -13    1.25    0.55
  18  -5 -13   -0.18    0.41
  -5  18  13   -0.33    0.60
  18 -13  13    0.30    0.32
   5  13 -13   -0.09    0.43
  13   5  13    0.44    0.32
  18  -4  13   -0.26    0.22
  18 -14 -13    0.45    0.50
   4  14  13    0.12    0.35
 -14  18  13   -0.22    0.48
  14   4 -13    0.89    0.50
  18  -4 -13    0.86    0.55
  18 -14  13   -0.68    0.22
  -4  18  13   -0.07    0.64
 -18  14  13   -0.36    0.47
  14   4  13   -0.14    0.23
  14 -18 -13   -0.37    0.46
  -4  18  13   -0.35    0.41
  18 -15 -13    1.36    0.63
  15   3 -13    1.70    0.66
  18  -3  13    1.57    0.43
 -15  18  13    0.12    0.59
   3  15  13    2.01    0.54
  18 -15  13    1.30    0.53
  18  -3 -13    0.39    0.50
 -18  15  13    1.35    0.79
  15   3  13    1.40    0.48
  15 -18 -13    2.62    0.85
  -3  18  13    1.09    0.71
   3  15 -13    0.63    0.44
  -3  18  13    0.69    0.46
  18  -2  13    0.17    0.26
  16   2 -13   -0.47    0.46
   2  16  13    1.00    0.48
 -16  18  13    0.34    0.64
  18 -16 -13    0.43    0.49
  16 -18 -13    0.77    0.58
  18  -2 -13   -0.29    0.47
  16   2  13    0.70    0.37
  -2  18  13    0.60    0.69
 -18  16  13    0.91    0.71
   2  16 -13    0.01    0.41
  -2  18  13    0.98    0.47
  18  -1  13    0.20    0.29
  18 -17 -13    0.39    0.48
 -17  18  13    0.57    0.63
  17   1 -13   -0.24    0.52
  17 -18 -13    0.25    0.52
   1  17 -13    1.24    0.47
  17   1  13    0.23    0.28
  -1  18  13    1.20    0.52
  18  -1 -13    0.14    0.50
 -18  17  13    0.64    0.63
  19 -10 -13    1.25    0.59
   9 -19 -13    1.61    0.71
  10   9 -13    1.84    0.71
   9  10  13    2.19    0.57
 -19   9  13    0.41    0.82
 -10  19  13    1.14    0.75
  19  -9  13    1.46    0.42
   9  10 -13    2.22    0.75
  -9  19  13    2.05    0.81
  10 -19 -13    1.56    0.75
  19  -9 -13    2.38    0.77
  19 -10  13    1.58    0.42
 -19  10  13    0.81    0.75
  10   9  13    0.57    0.41
  11   8 -13    1.16    0.57
   8  11  13    0.50    0.36
  19 -11 -13    0.40    0.54
  19  -8  13    0.67    0.34
   8 -19 -13    1.55    0.62
 -11  19  13    0.39    0.59
  11 -19 -13    0.67    0.52
  19  -8 -13    0.74    0.50
   8  11 -13    0.72    0.52
  11   8  13    1.01    0.38
  19  -8 -13   -0.04    0.51
  -8  19  13    0.47    0.57
 -19  11  13    1.00    0.71
  19 -11  13    1.17    0.40
  12   7 -13    0.09    0.51
  19  -7  13    0.17    0.27
   7 -19 -13    2.02    0.68
   7  12  13   -0.38    0.29
 -12  19  13   -0.06    0.55
  19 -12 -13   -0.08    0.47
  -7  19  13   -0.25    0.61
  12   7  13    0.69    0.35
  19 -12  13    0.36    0.30
  19  -7 -13    0.89    0.57
 -19  12  13    0.31    0.63
  12 -19 -13    0.28    0.42
   7  12 -13    0.62    0.51
 -13  19  13    0.72    0.64
  19  -6  13    0.43    0.32
  19 -13 -13    0.64    0.52
   6  13  13    0.67    0.37
  13   6 -13   -0.58    0.43
  13 -19 -13    0.70    0.56
  -6  19  13   -0.19    0.57
  -6  19  13   -0.21    0.42
 -19  13  13    0.44    0.62
   6  13 -13   -0.30    0.43
  19  -6 -13    0.06    0.51
  19 -13  13    0.79    0.37
  13   6  13    0.35    0.27
   5  14  13    0.21    0.41
  19  -5  13   -0.14    0.23
 -14  19  13   -0.06    0.92
  14   5 -13    0.09    0.46
  19 -14 -13    0.52    0.55
  14 -19 -13   -0.43    0.42
  14   5  13    0.18    0.30
 -19  14  13   -0.04    0.55
  19  -5 -13   -0.71    0.46
   5  14 -13   -0.60    0.46
  -5  19  13   -0.13    0.65
  -5  19  13    0.23    0.40
  19 -14  13    0.04    0.28
  19  -4  13   -0.10    0.25
  15   4 -13   -0.74    0.47
 -15  19  13    0.15    0.57
  19 -15 -13    0.14    0.41
  19  -4 -13    0.97    0.54
  15 -19 -13    0.30    0.52
  15   4  13   -0.06    0.25
 -19  15  13   -0.19    0.57
  -4  19  13    1.61    0.66
  -4  19  13    0.58    0.41
  19 -15  13   -0.17    0.42
   4  15 -13   -0.73    0.42
  16   3 -13   -0.01    0.48
  19 -16  13    0.34    0.38
  -3  19  13   -0.07    0.38
  -3  19  13   -0.03    0.67
  16   3  13    0.54    0.29
   3  16 -13    1.24    0.49
 -10  20  13    2.02    0.95
 -20  10  13    1.73    0.88
  10  10 -13    0.80    0.60
  20 -10 -13    1.60    0.58
  10  10  13   -0.14    0.31
  20 -10  13    0.64    0.34
  10 -20 -13    0.90    0.71
  20 -11 -13    0.53    0.46
 -20   9  13   -0.16    0.77
   9  11  13   -0.25    0.32
 -11  20  13    0.39    0.66
  20  -9  13    0.09    0.26
   9 -20 -13    0.46    0.55
  11   9 -13    0.74    0.53
 -20  11  13    0.81    0.74
   9  11 -13    0.64    0.55
  11   9  13    0.20    0.32
  11 -20 -13    0.00    0.50
  -9  20  13   -0.36    0.63
  20  -9 -13   -0.43    0.43
  20 -11  13    0.39    0.27
   8  12  13    0.15    0.31
   8 -20 -13   -0.11    0.48
  20 -12 -13    0.37    0.54
  20  -8  13   -0.08    0.28
  12   8 -13   -0.75    0.44
 -12  20  13   -0.10    0.66
   8  12 -13    0.39    0.48
  12 -20 -13    0.33    0.53
  20 -12  13    0.66    0.35
  12   8  13    0.46    0.31
 -20  12  13    0.16    0.69
  -8  20  13    0.33    0.68
  20  -8 -13   -0.25    0.57
  13   7 -13    0.11    0.51
  20 -13 -13    0.35    0.46
  20  -7  13    0.09    0.26
 -13  20  13   -0.05    0.58
  -7  20  13   -0.28    0.70
  20 -13  13    0.13    0.34
   7  13 -13   -0.84    0.41
  13 -20 -13    0.19    0.49
  13   7  13   -0.20    0.26
  14   6  13    0.05    0.28
   6  14 -13   -0.75    0.44
  -6  20  13    0.62    0.73
  20 -14  13    0.53    0.51
   0   0  14   43.88    2.32
   1   0  14    1.29    0.45
   0   1  14    1.51    0.47
   1  -1  14    0.43    0.30
  -1   1  14    1.33    0.43
  -1   0  14    1.85    0.47
   0  -1  14    1.39    0.41
   1   1 -14   12.20    0.89
  -1  -1  14    9.32    0.97
   1   1  14   10.99    1.12
   1  -2  14   10.51    1.01
  -2   1  14   10.15    1.06
   2  -1  14   11.25    1.09
  -2   1  14   11.41    0.92
  -1   2  14   11.65    1.15
   0  -2  14    3.11    0.57
   2   0  14    4.00    0.69
   0   2  14    3.17    0.64
  -2   2  14    2.52    0.59
   2  -2  14    3.69    0.62
   2   0 -14    3.33    0.53
  -2   2  14    3.25    0.54
  -2   0  14    2.53    0.54
   3  -1  14    1.05    0.42
  -1  -2  14    0.60    0.30
   2   1 -14    0.96    0.34
   1   2  14    0.82    0.41
   2  -3  14    0.65    0.29
  -2   3  14    0.79    0.30
  -2   3  14    0.66    0.38
  -3   1  14    0.36    0.28
  -3   2  14    1.07    0.37
  -2  -1  14    0.40    0.27
   3  -1 -14    0.31    0.27
   2   1  14    1.61    0.46
  -1   3  14    0.52    0.34
   1  -3  14    0.60    0.28
   3  -2  14    0.90    0.37
   1   2 -14    0.92    0.28
  -3   2  14    0.58    0.36
   0  -3  14   17.75    1.17
   3  -3  14   16.40    1.18
  -3   3  14   18.27    1.22
   3   0  14   18.51    1.33
   3   0 -14   15.02    1.17
  -3   0  14   16.44    1.22
   0   3  14   19.24    1.42
   2   2  14   12.95    1.24
   2  -4  14   12.83    0.92
   4  -2 -14    8.78    0.96
  -2  -2  14   11.94    0.92
   4  -2 -14   11.30    1.24
  -2   4  14   10.21    0.89
  -2   4  14    9.45    1.13
   2   2 -14    9.85    0.89
   4  -2  14   11.42    0.97
  -3   4  14    0.85    0.32
   1   3  14    0.96    0.42
   3  -4  14    1.09    0.36
   4  -3 -14    1.25    0.49
   3   1 -14    0.88    0.34
  -1  -3  14    0.92    0.32
   4  -1  14    1.04    0.38
   1  -4  14    0.92    0.34
   1   3 -14    1.15    0.36
   4  -1 -14    0.98    0.46
  -4   3  14    0.40    0.33
   3   1  14    0.65    0.36
   4  -3  14    1.20    0.39
   4  -1 -14    0.86    0.34
  -1   4  14    1.00    0.40
  -3  -1  14    0.90    0.31
   0   4  14    3.39    0.70
   0  -4  14    3.52    0.56
  -4   4  14    3.13    0.58
   4  -4 -14    3.16    0.73
   4   0 -14    3.31    0.62
   4   0  14    3.46    0.66
   4  -4  14    3.59    0.60
   5  -3 -14    0.22    0.31
  -2  -3  14    0.45    0.24
   2   3  14    1.48    0.49
   3  -5  14    0.38    0.26
   3   2 -14    0.37    0.28
  -3   5  14    1.00    0.34
   5  -2  14    1.13    0.42
  -2   5  14    0.98    0.45
   5  -3  14    0.60    0.27
  -3  -2  14    0.70    0.29
   3   2  14    1.14    0.43
   2   3 -14    0.91    0.33
  -2   5  14    1.13    0.35
   5  -2 -14    0.63    0.35
  -5   3  14    1.75    0.51
   5  -2 -14    0.57    0.37
   2  -5  14    1.06    0.32
   1   4  14    0.88    0.44
   4  -5  14    1.30    0.37
   5  -4 -14    1.15    0.50
   5  -1  14    1.32    0.42
   4   1 -14    0.96    0.38
  -4   5  14    0.76    0.37
   1   4 -14    0.69    0.35
  -1   5  14    1.23    0.48
   4  -5 -14    1.31    0.52
   5  -1 -14    0.40    0.32
   4   1  14    1.21    0.46
   5  -4  14    1.35    0.38
   5  -1 -14    1.58    0.47
  -5   4  14    1.04    0.42
  -4  -1  14    1.22    0.37
   1  -5  14    1.00    0.30
   5   0 -14    2.41    0.56
   5   0  14    2.09    0.56
   5  -5 -14    1.39    0.52
   0   5  14    1.61    0.50
   5  -5  14    1.27    0.36
  -5   5  14    2.18    0.52
   5   0 -14    1.55    0.45
   6  -3 -14    3.45    0.71
   6  -3  14    7.20    0.85
   6  -3 -14    5.39    0.87
  -3   6  14    6.65    0.88
   3   3 -14    4.55    0.75
   3  -6  14    5.82    0.67
   3   3  14    5.74    0.90
   2   4  14    0.03    0.28
   6  -2  14    0.65    0.32
   6  -4 -14    0.44    0.36
   4  -6  14    0.71    0.27
   4   2 -14    0.03    0.27
  -4   6  14    0.80    0.34
  -2   6  14    0.27    0.35
  -2   6  14    0.76    0.35
   6  -4  14    0.09    0.22
   4  -6 -14   -0.02    0.33
   4   2  14    0.65    0.35
   2   4 -14    0.31    0.28
   6  -2 -14    0.25    0.32
  -6   4  14    0.36    0.38
   6  -2 -14    0.21    0.30
   1   5  14    4.94    0.88
   6  -5 -14    5.11    0.93
   5  -6  14    4.90    0.65
   5   1 -14    4.41    0.74
  -5   6  14    4.00    0.71
   6  -1  14    4.68    0.75
   5   1 -14    4.76    0.76
   1   5 -14    4.62    0.71
   5   1  14    5.39    0.83
  -6   5  14    4.70    0.79
   6  -1 -14    4.68    0.80
   6  -1 -14    4.30    0.74
  -1   6  14    4.78    0.87
   5  -6 -14    3.63    0.81
   6  -5  14    4.13    0.63
   6   0 -14    7.28    0.93
   6   0 -14    8.38    1.05
   6  -6 -14    6.25    1.05
   6  -6  14    7.46    0.80
  -6   6  14    8.63    1.01
   6   0  14    7.11    0.94
   0   6  14    8.72    1.16
   4  -7  14    1.96    0.41
   3   4  14    0.92    0.47
   7  -3  14    1.10    0.39
   7  -4 -14    2.29    0.60
  -4   7  14    1.43    0.47
   4   3 -14    1.23    0.46
   3   4 -14    2.43    0.56
   7  -3 -14    1.24    0.44
   4   3  14    1.83    0.52
   4  -7 -14    2.68    0.76
  -3   7  14    1.80    0.52
   7  -3 -14    2.51    0.63
   7  -4  14    1.54    0.42
  -5   7  14   13.15    1.17
   5   2 -14   13.85    1.18
   7  -2  14   13.14    1.08
   2   5  14   13.50    1.38
   5  -7  14   11.96    0.89
   7  -5 -14   11.31    1.34
  -2   7  14   12.63    1.30
   5   2  14   12.03    1.25
   5  -7 -14   12.45    1.51
   7  -2 -14   13.03    1.18
   2   5 -14   12.17    1.09
  -2   7  14   13.24    1.41
  -7   5  14   10.92    1.17
   7  -5  14   12.31    0.99
   7  -2 -14   14.41    1.21
  -6   7  14   -0.08    0.31
   6   1 -14   -0.11    0.25
   6  -7  14    0.64    0.29
   7  -1  14    0.40    0.28
   7  -6 -14    0.68    0.37
   6   1 -14    0.38    0.32
   1   6  14    0.37    0.38
   6  -7 -14    0.49    0.37
  -7   6  14    0.39    0.39
  -1   7  14    0.25    0.34
   7  -1 -14    0.81    0.31
   1   6 -14    0.19    0.29
   7  -6  14    0.52    0.24
   6   1  14    0.10    0.28
   7  -1 -14   -0.02    0.26
   7  -7 -14    3.30    0.79
   7  -7  14    4.12    0.60
   0   7  14    3.60    0.79
  -7   7  14    4.27    0.81
   7   0 -14    3.16    0.70
   7   0  14    3.68    0.68
   7   0 -14    3.95    0.69
   8  -4  14    1.75    0.45
   8  -4 -14    2.47    0.63
   4   4 -14    2.50    0.59
  -4   8  14    2.61    0.65
   8  -4 -14    2.07    0.57
   4   4  14    2.12    0.57
   4  -8 -14    2.81    0.78
   3   5  14    0.44    0.36
  -5   8  14    1.03    0.44
   8  -5 -14    0.87    0.40
   5   3 -14    0.62    0.37
   8  -3  14    0.64    0.32
  -3   8  14    0.58    0.40
   5   3  14    0.98    0.42
   3   5 -14    0.56    0.35
   5  -8 -14   -0.07    0.35
   8  -3 -14    0.70    0.31
   8  -3 -14    0.79    0.33
  -8   5  14    0.93    0.54
   8  -5  14    1.06    0.33
   6  -8  14    0.52    0.28
   8  -2  14    1.05    0.37
   2   6  14    1.62    0.54
  -6   8  14    1.06    0.44
   6   2 -14    0.54    0.33
   8  -6 -14    0.50    0.42
   6  -8 -14    1.39    0.56
   2   6 -14    0.31    0.29
  -2   8  14    0.84    0.49
   6   2  14    0.31    0.29
   8  -6  14    1.13    0.35
   8  -2 -14    0.51    0.32
   8  -2 -14    0.22    0.32
  -2   8  14    1.09    0.48
  -8   6  14    0.60    0.45
   8  -1  14    3.06    0.64
   7  -8  14    4.02    0.56
  -7   8  14    2.84    0.72
   8  -7 -14    2.25    0.68
   1   7  14    3.32    0.74
   7   1 -14    2.70    0.65
   7   1  14    4.08    0.74
   7  -8 -14    2.95    0.72
  -8   7  14    3.60    0.77
   1   7 -14    3.23    0.66
   8  -7  14    3.97    0.60
   8  -1 -14    2.47    0.57
   8  -1 -14    3.25    0.69
  -1   8  14    3.38    0.76
  -8   8  14   15.37    1.37
   8   0  14   15.05    1.22
   8  -8  14   15.30    1.03
   0   8  14   12.43    1.44
   8   0 -14   14.32    1.50
   8  -8 -14   12.92    1.55
   4   5  14    1.58    0.53
   9  -5 -14    0.85    0.42
   9  -4  14    1.16    0.38
   5   4 -14    1.54    0.47
   4  -9 -14    1.41    0.57
  -5   9  14    0.78    0.47
   5  -9 -14    1.72    0.66
   9  -4 -14    1.52    0.49
   5   4  14    1.62    0.53
   4   5 -14    1.68    0.51
   9  -4 -14    1.00    0.43
   9  -5  14    1.53    0.42
  -4   9  14    1.07    0.47
   3   6  14    4.21    0.83
  -6   9  14    5.83    0.99
   9  -6 -14    4.25    0.85
   6   3 -14    3.22    0.72
   9  -3  14    5.34    0.78
  -9   6  14    4.35    0.87
   9  -3 -14    2.76    0.69
  -3   9  14    5.62    0.96
   6   3  14    4.01    0.73
   9  -6  14    4.57    0.66
   9  -3 -14    3.29    0.70
   6  -9 -14    4.43    0.94
   3   6 -14    3.98    0.73
   2   7  14    9.51    1.27
  -7   9  14   14.09    1.45
   9  -2  14   13.06    1.09
   9  -7 -14   12.59    1.44
   7   2 -14   10.22    1.30
   7  -9  14   13.15    0.89
   7  -9 -14   11.34    1.50
   9  -2 -14   13.79    1.31
   9  -2 -14   11.79    1.38
   2   7 -14    9.98    1.20
  -2   9  14   11.84    1.41
   9  -7  14   12.02    0.94
  -2   9  14   12.38    1.43
  -9   7  14   11.69    1.31
   7   2  14   10.34    1.20
   8   1 -14    3.26    0.76
   9  -1  14    3.32    0.65
  -8   9  14    2.81    0.76
   9  -8 -14    2.55    0.73
   1   8  14    3.42    0.78
   8  -9  14    3.72    0.51
   9  -8  14    3.06    0.54
  -1   9  14    4.08    0.86
   9  -1 -14    2.25    0.62
   8   1  14    2.75    0.64
   9  -1 -14    2.79    0.63
  -9   8  14    3.10    0.76
   1   8 -14    2.41    0.56
   8  -9 -14    3.43    0.87
   9   0 -14   15.57    1.60
   9  -9 -14   14.23    1.63
   9   0  14   14.05    1.22
   0   9  14   17.73    1.52
  -9   9  14   13.76    1.51
   9  -9  14   16.09    1.05
   5   5  14   13.41    1.40
  10  -5 -14   15.38    1.48
  -5  10  14   14.88    1.57
  10  -5 -14   13.62    1.50
   5   5 -14   13.41    1.46
  10  -5  14   13.04    1.06
   5 -10 -14   15.16    1.76
  10  -4  14    1.87    0.47
   4 -10 -14    1.38    0.62
   4   6  14    1.81    0.58
   6   4 -14    1.37    0.53
  10  -6 -14    1.14    0.48
  -6  10  14    1.95    0.68
  -4  10  14    1.97    0.65
  10  -6  14    1.80    0.48
  10  -4 -14    1.91    0.55
   6 -10 -14    2.60    0.75
   6   4  14    1.88    0.55
 -10   6  14    2.08    0.73
  10  -4 -14    2.24    0.61
   4   6 -14    2.74    0.64
  -7  10  14    4.02    0.84
   7   3 -14    2.09    0.62
  10  -3  14    2.67    0.56
  10  -7 -14    1.38    0.49
   3   7  14    2.11    0.63
  -3  10  14    2.49    0.67
   7 -10 -14    3.48    0.86
   3   7 -14    2.41    0.62
  10  -7  14    2.45    0.49
 -10   7  14    2.44    0.71
  -3  10  14    1.59    0.60
  10  -3 -14    2.66    0.66
  10  -3 -14    2.10    0.56
   7   3  14    2.59    0.63
   8   2 -14    1.13    0.54
   2   8  14    1.44    0.54
  -8  10  14    1.62    0.56
  10  -2  14    1.29    0.43
  10  -8 -14    2.16    0.62
  10  -2 -14    2.04    0.54
  10  -8  14    1.07    0.36
   8 -10 -14    0.82    0.50
  -2  10  14    1.72    0.58
   2   8 -14    1.35    0.46
   8   2  14    0.94    0.44
  10  -2 -14    1.31    0.53
  -2  10  14    0.74    0.45
 -10   8  14    1.32    0.61
   9   1 -14    0.06    0.33
  10  -9 -14    1.68    0.56
   9 -10  14    0.84    0.27
  -9  10  14    0.39    0.43
  10  -1  14    0.85    0.37
   1   9  14    0.97    0.45
  10  -9  14    0.64    0.26
  10  -1 -14    0.03    0.36
   9 -10 -14    0.97    0.52
  -1  10  14    0.95    0.44
   9   1  14    0.42    0.33
 -10   9  14    0.84    0.50
   1   9 -14    1.36    0.46
  10 -10 -14    1.78    0.65
  10 -10  14    1.96    0.41
 -10  10  14    2.00    0.71
  10   0 -14    1.73    0.64
   0  10  14    2.38    0.64
  10   0  14    1.98    0.49
  11  -5  14    0.85    0.35
  -6  11  14    0.59    0.40
   6   5 -14   -0.02    0.32
   5   6  14    0.17    0.28
  11  -6 -14    0.11    0.34
   5 -11 -14    0.82    0.52
  -5  11  14    0.23    0.61
   6   5  14    0.85    0.38
  11  -5 -14    0.32    0.39
  11  -6  14    0.53    0.31
   5   6 -14    1.21    0.44
   6 -11 -14    0.62    0.42
  11  -5 -14    0.36    0.35
   7   4 -14    0.36    0.35
  11  -4  14    0.19    0.31
   4   7  14    0.64    0.41
   4 -11 -14    0.11    0.39
  -7  11  14    0.49    0.48
  11  -7 -14   -0.17    0.28
  11  -4 -14    0.47    0.36
   4   7 -14    0.19    0.32
  11  -7  14    0.54    0.28
   7   4  14    0.44    0.37
   7 -11 -14   -0.17    0.41
  11  -4 -14    0.27    0.34
 -11   7  14    0.53    0.52
  -4  11  14    0.49    0.44
  11  -3  14    3.19    0.64
  -8  11  14    2.83    0.76
  11  -8 -14    3.89    0.84
   8   3 -14    3.30    0.78
   3   8  14    2.57    0.64
 -11   8  14    3.48    0.84
  11  -8  14    3.10    0.55
  -3  11  14    3.05    0.81
  11  -3 -14    2.55    0.70
  11  -3 -14    2.27    0.58
   8   3  14    3.28    0.68
   3   8 -14    4.15    0.79
   8 -11 -14    3.58    0.90
  -3  11  14    2.84    0.74
  11  -2  14    0.07    0.24
   2   9  14   -0.08    0.31
  -9  11  14    1.55    0.57
  11  -9 -14    0.23    0.38
   9   2 -14    0.08    0.35
  -2  11  14    0.70    0.49
  -2  11  14   -0.02    0.34
 -11   9  14    1.02    0.56
   9 -11 -14    0.16    0.40
  11  -9  14    0.48    0.29
   2   9 -14   -0.19    0.32
   9   2  14    0.35    0.33
  11  -2 -14    0.46    0.38
  11 -10 -14    0.42    0.40
   1  10  14    2.47    0.68
  10   1 -14    1.32    0.54
  11  -1  14    1.77    0.49
 -10  11  14    1.62    0.62
   1  10 -14    1.26    0.54
  -1  11  14    2.39    0.66
 -11  10  14    2.90    0.78
  11 -10  14    1.93    0.41
  11  -1 -14    2.45    0.70
  10 -11 -14    1.70    0.68
  10   1  14    1.65    0.51
  11   0 -14    2.74    0.76
  11   0  14    1.71    0.51
  11 -11  14    2.83    0.49
  11 -11 -14    1.98    0.67
 -11  11  14    1.85    0.72
   0  11  14    2.09    0.63
   6   6 -14    5.51    0.96
  12  -6  14    3.87    0.64
  12  -6 -14    3.27    0.82
  -6  12  14    6.10    1.31
  12  -6 -14    4.22    0.85
   6   6  14    3.80    0.75
   6 -12 -14    3.68    0.90
  12  -5  14    3.92    0.66
   7   5 -14    4.52    0.90
  -7  12  14    3.75    0.93
  12  -7 -14    4.42    0.88
   5 -12 -14    4.29    0.97
   5   7  14    4.65    0.89
   5   7 -14    4.01    0.86
 -12   7  14    4.19    0.96
  12  -5 -14    5.92    0.98
   7 -12 -14    5.07    1.07
   7   5  14    3.28    0.75
  12  -5 -14    3.22    0.78
  -5  12  14    2.43    0.75
  12  -7  14    5.16    0.72
   4   8  14    0.19    0.28
  -8  12  14    0.06    0.38
   8   4 -14    0.64    0.44
  12  -8 -14    0.65    0.43
  12  -4  14    0.20    0.28
 -12   8  14    0.10    0.51
   8 -12 -14    0.32    0.40
   4   8 -14    0.19    0.39
  12  -4 -14    0.51    0.40
  -4  12  14    0.21    0.44
   8   4  14    0.10    0.28
  12  -4 -14    0.70    0.41
  12  -8  14    0.99    0.35
  12  -9 -14    1.80    0.66
   9   3 -14    2.19    0.68
  12  -3  14    3.57    0.66
  -9  12  14    3.24    0.88
   3   9  14    3.62    0.77
 -12   9  14    5.01    0.99
  -3  12  14    2.97    0.82
  -3  12  14    3.20    0.79
  12  -9  14    3.84    0.59
   9 -12 -14    3.67    0.89
   9   3  14    3.26    0.67
   3   9 -14    2.50    0.67
  12  -3 -14    2.37    0.68
  12  -3 -14    3.07    0.79
  10   2 -14    2.23    0.69
 -10  12  14    1.61    0.61
   2  10  14    2.12    0.64
  12  -2  14    1.52    0.44
  12 -10 -14    1.46    0.59
  -2  12  14    1.69    0.58
  12  -2 -14    1.01    0.52
  12 -10  14    1.70    0.41
  -2  12  14    2.42    0.70
 -12  10  14    2.40    0.78
  10   2  14    1.89    0.54
  10 -12 -14    1.45    0.60
   2  10 -14    1.15    0.50
   1  11  14    0.60    0.39
  11   1 -14    1.24    0.50
  12  -1  14    0.92    0.41
  12 -11 -14    1.33    0.58
 -11  12  14    0.17    0.46
   1  11 -14    0.77    0.41
 -12  11  14    0.14    0.49
  12  -1 -14   -0.18    0.35
  11   1  14    0.60    0.34
  -1  12  14   -0.21    0.34
  11 -12 -14    0.43    0.41
  12 -11  14    0.60    0.29
   0  12  14    3.97    0.84
  12   0  14    3.63    0.68
 -12  12  14    6.04    1.14
  12   0 -14    3.30    0.76
  12 -12  14    4.55    0.59
  12 -12 -14    2.72    0.78
  13  -7 -14    1.70    0.60
  13  -6  14    2.42    0.53
   6 -13 -14    2.85    0.82
   7   6 -14    1.14    0.52
  -7  13  14    1.32    0.93
   6   7  14    2.76    0.66
  13  -7  14    3.02    0.56
 -13   7  14    1.27    0.74
   7   6  14    1.28    0.51
  13  -6 -14    1.45    0.56
  13  -6 -14    2.45    0.74
   6   7 -14    2.15    0.68
   7 -13 -14    2.37    0.72
  -6  13  14    2.96    0.85
   5   8  14    1.35    0.51
   8   5 -14    1.53    0.58
  13  -5  14    1.99    0.50
  -8  13  14    1.89    0.64
  13  -8 -14    1.24    0.50
   5 -13 -14    1.06    0.60
  -5  13  14    0.72    0.57
 -13   8  14    2.30    0.79
   5   8 -14    1.85    0.65
  13  -8  14    1.95    0.46
  13  -5 -14    2.19    0.63
  13  -5 -14    1.61    0.61
   8   5  14    1.44    0.49
   8 -13 -14    1.18    0.59
   9   4 -14    0.16    0.37
  -9  13  14   -0.12    0.41
  13  -9 -14   -0.13    0.32
   4   9  14   -0.21    0.31
  13  -4  14   -0.34    0.22
   9   4  14    0.00    0.28
   9 -13 -14    0.20    0.40
  -4  13  14    0.35    0.35
  13  -4 -14   -0.05    0.32
  13  -9  14    0.44    0.28
  13  -4 -14   -0.38    0.31
 -13   9  14    0.20    0.53
  -4  13  14   -0.26    0.41
   4   9 -14    0.05    0.35
  10   3 -14    1.05    0.48
  13  -3  14    1.57    0.48
 -10  13  14    2.12    0.66
   3  10  14    1.04    0.49
  13 -10 -14    1.97    0.67
   3  10 -14    0.53    0.44
  10   3  14    1.31    0.47
 -13  10  14    1.23    0.65
  10 -13 -14    2.00    0.76
  13 -10  14    2.03    0.46
  13  -3 -14    0.92    0.48
  -3  13  14    1.07    0.50
  -3  13  14    1.64    0.64
  11   2 -14    0.40    0.44
 -11  13  14    0.53    0.53
   2  11  14    1.13    0.53
  13 -11 -14    0.78    0.49
  13  -2  14    0.46    0.31
   2  11 -14    1.16    0.47
  -2  13  14    0.82    0.58
  13 -11  14    0.63    0.28
  -2  13  14    0.58    0.35
  11   2  14    0.78    0.36
 -13  11  14    0.60    0.56
  11 -13 -14    0.89    0.51
  13  -2 -14   -0.22    0.38
 -12  13  14   -0.29    0.44
  12   1 -14    0.23    0.42
  13 -12 -14    0.08    0.35
   1  12  14    0.31    0.39
  13  -1  14    0.92    0.37
 -13  12  14    0.55    0.55
  12   1  14   -0.01    0.22
   1  12 -14    0.69    0.40
  13 -12  14    0.49    0.28
  13  -1 -14    0.61    0.49
  12 -13 -14    0.07    0.38
  -1  13  14   -0.09    0.30
 -13  13  14    1.05    0.62
  13   0  14    1.47    0.47
  13 -13 -14    1.18    0.60
  13   0 -14    2.55    0.76
   0  13  14    1.36    0.53
   7 -14 -14    6.85    1.28
  14  -7  14    9.71    1.02
   7   7 -14   10.53    1.46
  14  -7 -14    9.85    1.35
  -7  14  14    9.39    1.47
   7   7  14   10.94    1.30
   6   8  14    0.59    0.37
   6 -14 -14    0.50    0.59
  14  -6  14    0.56    0.32
  14  -8 -14    0.35    0.45
  -8  14  14    1.86    1.01
   8   6 -14    0.86    0.56
   6   8 -14    1.59    0.60
   8   6  14    1.18    0.44
 -14   8  14    1.45    0.72
   8 -14 -14    0.82    0.56
  -6  14  14    0.97    0.56
  14  -6 -14    1.43    0.50
  14  -6 -14    0.95    0.54
  14  -8  14    0.92    0.37
   9   5 -14    1.39    0.55
  14  -9 -14    1.55    0.58
   5 -14 -14    1.53    0.63
  14  -5  14    1.41    0.42
   5   9  14    1.00    0.47
  -9  14  14    0.28    0.54
  14  -5 -14    1.14    0.46
  14  -9  14    0.45    0.31
   9   5  14    0.97    0.45
 -14   9  14    0.68    0.65
  14  -5 -14    0.48    0.43
  -5  14  14    1.52    0.63
   5   9 -14    2.16    0.65
   9 -14 -14    1.81    0.72
 -10  14  14    0.00    0.43
  14 -10 -14    0.13    0.41
  14  -4  14    0.30    0.31
  10   4 -14   -0.24    0.40
   4  10  14   -0.03    0.33
  -4  14  14   -0.12    0.38
  10 -14 -14    0.34    0.46
  10   4  14    0.20    0.32
  14  -4 -14    0.61    0.46
  14 -10  14    0.12    0.25
  -4  14  14    0.79    0.53
 -14  10  14    0.54    0.59
   4  10 -14    0.46    0.42
  11   3 -14    0.19    0.45
   3  11  14    1.07    0.48
 -11  14  14    1.37    0.60
  14 -11 -14    0.58    0.42
  14  -3  14    0.87    0.36
  11 -14 -14    0.08    0.41
  14 -11  14    0.98    0.36
  -3  14  14    0.36    0.43
  14  -3 -14    1.36    0.54
  -3  14  14    1.66    0.60
 -14  11  14    0.31    0.55
   3  11 -14    0.76    0.49
  11   3  14    0.20    0.26
  14  -2  14    0.10    0.29
   2  12  14   -0.06    0.30
  12   2 -14    1.18    0.52
  14 -12 -14    0.86    0.46
 -12  14  14    0.02    0.46
  14 -12  14    0.22    0.23
  -2  14  14    0.01    0.38
   2  12 -14    0.04    0.35
 -14  12  14    0.18    0.49
  14  -2 -14    0.10    0.41
  12   2  14    0.32    0.28
  -2  14  14   -0.23    0.48
  12 -14 -14    0.28    0.42
  14  -1  14    0.43    0.29
  14 -13 -14    0.13    0.41
   1  13  14    0.12    0.36
 -13  14  14    0.02    0.47
  13   1 -14    0.02    0.44
  14 -13  14   -0.07    0.23
  13   1  14    0.15    0.29
  -1  14  14    0.09    0.36
  13 -14 -14    0.07    0.43
 -14  13  14    0.72    0.58
  14  -1 -14    0.22    0.40
   0  14  14    0.36    0.44
  14   0  14    0.59    0.35
  14 -14 -14    0.21    0.45
  14   0 -14    0.10    0.42
 -14  14  14    0.65    0.59
  15  -7  14    0.55    0.30
   7 -15 -14    0.52    0.52
   8   7 -14    0.31    0.43
   7   8  14    0.35    0.33
  15  -8 -14    1.38    0.54
  -8  15  14    0.46    0.47
   7   8 -14    0.79    0.50
  15  -7 -14    1.46    0.61
   8 -15 -14    1.17    0.60
   8   7  14    0.47    0.31
  15  -7 -14    1.40    0.55
  15  -8  14    0.91    0.35
 -15   8  14    0.53    0.67
  -7  15  14    0.24    0.48
  15  -9 -14    1.88    0.66
  15  -6  14    1.80    0.48
   6   9  14    2.65    0.64
   6 -15 -14    1.12    0.61
  -9  15  14    1.95    0.89
   9   6 -14    1.16    0.58
  15  -6 -14    1.29    0.53
   9   6  14    2.02    0.52
   6   9 -14    1.01    0.50
  15  -6 -14    3.07    0.83
 -15   9  14    1.20    0.70
   9 -15 -14    3.33    0.82
  15  -9  14    2.13    0.49
  -6  15  14    1.06    0.63
  15  -5  14   -0.02    0.25
  10   5 -14    1.30    0.50
  15 -10 -14    0.42    0.41
 -10  15  14    0.74    0.56
   5  10  14    0.17    0.32
  15  -5 -14    0.42    0.40
  10 -15 -14    1.10    0.54
 -15  10  14    0.46    0.60
  15  -5 -14    1.94    0.61
   5  10 -14    0.68    0.41
  10   5  14    0.08    0.25
  15 -10  14    0.38    0.32
  -5  15  14   -0.14    0.47
 -11  15  14   -0.59    0.42
  11   4 -14   -0.68    0.37
  15  -4  14    0.20    0.27
   4  11  14    0.99    0.43
  15 -11 -14    0.65    0.46
  -4  15  14    0.25    0.35
  15  -4 -14    1.02    0.48
  -4  15  14    0.44    0.55
  15 -11  14   -0.24    0.22
 -15  11  14    0.44    0.53
  11 -15 -14    0.42    0.44
   4  11 -14   -0.15    0.39
   3  12  14    0.26    0.36
 -12  15  14    0.88    0.66
  12   3 -14    1.48    0.61
  15 -12 -14    0.47    0.43
  15  -3  14    1.56    0.46
   3  12 -14    0.74    0.50
  12   3  14    1.63    0.45
  15 -12  14    0.78    0.32
  15  -3 -14    0.89    0.47
  -3  15  14    0.41    0.59
 -15  12  14    0.71    0.61
  -3  15  14    0.70    0.46
  12 -15 -14    0.71    0.55
   2  13  14    2.79    0.68
  15  -2  14    2.65    0.57
  15 -13 -14    2.36    0.67
  13   2 -14    2.36    0.77
 -13  15  14    3.12    0.88
  -2  15  14    2.16    0.69
  13   2  14    2.06    0.53
  15 -13  14    2.67    0.51
  13 -15 -14    2.97    0.85
 -15  13  14    3.86    1.01
   2  13 -14    2.98    0.73
  15  -2 -14    2.47    0.80
   1  14  14    1.89    0.60
  15 -14 -14    2.08    0.66
  15  -1  14    1.21    0.39
  14   1 -14    1.10    0.56
 -14  15  14    0.58    0.60
  14 -15 -14    0.85    0.57
  15  -1 -14    2.03    0.62
  -1  15  14    2.09    0.59
 -15  14  14    2.38    0.79
  14   1  14    1.53    0.45
   0  15  14    0.83    0.47
  15   0 -14    0.55    0.46
  15 -15 -14    0.12    0.46
  15   0  14   -0.33    0.24
 -15  15  14    0.23    0.52
   8   8  14    0.79    0.40
 -16   8  14    1.08    0.77
  -8  16  14    1.35    0.70
   8   8 -14    0.42    0.48
  16  -8 -14    0.41    0.46
   8 -16 -14    0.74    0.48
  16  -8  14    1.02    0.37
  -9  16  14    0.28    0.55
  16  -7  14    0.64    0.34
   9   7 -14    1.08    0.53
  16  -9 -14    0.41    0.44
   7   9  14   -0.18    0.28
   7 -16 -14   -0.11    0.47
  16  -7 -14    0.13    0.42
   9 -16 -14    0.61    0.52
   9   7  14    0.63    0.38
  16  -9  14    0.38    0.29
   7   9 -14    0.03    0.44
 -16   9  14    0.77    0.66
  -7  16  14   -1.15    0.46
  16  -7 -14    0.90    0.46
   6  10  14    0.41    0.34
   6 -16 -14   -0.20    0.44
 -10  16  14   -1.04    0.43
  16 -10 -14    0.57    0.45
  16  -6  14    0.62    0.31
  10   6 -14    0.50    0.54
  -6  16  14    0.03    0.51
  16 -10  14    0.23    0.26
   6  10 -14    0.28    0.41
  10 -16 -14    0.44    0.43
  16  -6 -14    0.29    0.36
  16  -6 -14    0.43    0.36
  10   6  14    0.36    0.37
 -16  10  14    1.15    0.70
 -11  16  14    0.88    0.64
  16 -11 -14    0.44    0.41
  11   5 -14    1.58    0.58
   5  11  14    1.38    0.47
  16  -5  14   -0.02    0.30
  11   5  14    1.72    0.50
  11 -16 -14    1.95    0.70
   5  11 -14    1.36    0.55
  -5  16  14    0.53    0.44
  16  -5 -14    1.75    0.56
  -5  16  14    1.28    0.70
 -16  11  14    1.49    0.74
  16 -11  14    0.24    0.26
   4  12  14    1.09    0.47
 -12  16  14    0.10    0.59
  16 -12 -14    1.28    0.65
  12   4 -14    1.35    0.55
  16  -4  14    1.69    0.49
  16 -12  14    1.66    0.41
  16  -4 -14    1.63    0.60
 -16  12  14    2.32    0.87
  12   4  14    1.38    0.47
   4  12 -14    0.90    0.46
  12 -16 -14    1.32    0.60
  -4  16  14    1.64    0.55
  -4  16  14    2.35    0.66
  13   3 -14    0.12    0.42
  16 -13 -14    0.23    0.42
 -13  16  14    0.36    0.48
  16  -3  14   -0.03    0.24
   3  13  14    0.57    0.40
  13 -16 -14    0.69    0.44
   3  13 -14    0.33    0.40
  16 -13  14    0.30    0.27
  13   3  14   -0.33    0.25
  -3  16  14    0.91    0.67
  -3  16  14    0.66    0.39
  16  -3 -14    0.70    0.49
 -16  13  14    0.86    0.67
   2  14  14    3.60    0.80
  14   2 -14    2.01    0.75
  16 -14 -14    1.68    0.76
 -14  16  14    3.70    0.94
  16  -2  14    2.96    0.59
  14 -16 -14    2.92    0.85
  16  -2 -14    2.82    0.83
  14   2  14    3.10    0.64
   2  14 -14    1.75    0.60
  -2  16  14    2.90    0.73
 -16  14  14    2.61    0.88
  16 -14  14    2.09    0.51
 -15  16  14    0.56    0.52
   1  15  14    0.10    0.46
  16  -1  14    0.36    0.27
  15   1 -14   -0.05    0.51
  16 -15 -14    1.17    0.58
 -16  15  14    0.77    0.57
  -1  16  14    0.62    0.39
  15 -16 -14   -0.07    0.39
  15   1  14    0.52    0.31
  16  -1 -14   -0.63    0.43
  16   0  14    1.23    0.40
 -16  16  14    1.51    0.78
  16   0 -14    2.41    0.72
  16 -16 -14    1.68    0.64
   0  16  14    1.54    0.62
  17  -8  14    1.39    0.43
  -9  17  14    1.57    0.69
   8 -17 -14    1.07    0.66
   8   9  14    1.05    0.43
  17  -9 -14    1.06    0.44
   9   8 -14   -0.28    0.44
  -8  17  14    0.27    0.62
  17  -9  14    0.51    0.30
   9   8  14    0.94    0.37
 -17   9  14    1.46    0.82
  17  -8 -14    0.95    0.59
   9 -17 -14    0.26    0.50
   8   9 -14    0.82    0.52
  17 -10 -14    0.27    0.41
 -10  17  14   -0.13    0.51
  17  -7  14    0.41    0.29
   7  10  14    1.01    0.42
   7 -17 -14    0.16    0.51
  10   7 -14   -0.03    0.40
   7  10 -14    0.70    0.51
  17 -10  14    1.23    0.38
 -17  10  14    0.79    0.71
  -7  17  14    0.32    0.61
  17  -7 -14    0.08    0.43
  10   7  14    0.62    0.36
  10 -17 -14    0.60    0.50
  17  -7 -14    0.12    0.44
  17  -6  14    1.33    0.38
   6  11  14    1.21    0.43
  11   6 -14    0.90    0.53
  17 -11 -14    0.32    0.48
 -11  17  14    0.14    0.59
  17 -11  14    0.58    0.31
  -6  17  14    0.65    0.64
 -17  11  14    0.47    0.63
  11   6  14    0.98    0.39
  11 -17 -14    1.38    0.60
  17  -6 -14    0.58    0.58
   6  11 -14    0.11    0.47
  17  -5  14    0.31    0.27
  12   5 -14    0.67    0.51
  17 -12 -14    0.00    0.38
 -12  17  14    0.28    0.55
   5  12  14    0.05    0.36
  17  -5 -14    0.71    0.46
  17 -12  14    0.01    0.22
  12   5  14    0.47    0.32
  12 -17 -14    0.42    0.45
  -5  17  14    0.75    0.43
   5  12 -14    0.09    0.47
  -5  17  14    0.21    0.66
 -17  12  14   -0.05    0.58
  13   4 -14    0.49    0.53
  17  -4  14    1.08    0.40
 -13  17  14    0.46    0.57
   4  13  14   -0.14    0.39
  17 -13 -14   -0.02    0.55
  17 -13  14    0.46    0.31
  13 -17 -14    0.60    0.50
  13   4  14    0.30    0.34
   4  13 -14    0.29    0.52
  -4  17  14    1.11    0.52
  17  -4 -14    1.00    0.53
  -4  17  14    0.26    0.74
 -17  13  14    0.33    0.58
  17 -14 -14    0.49    0.53
  14   3 -14    0.97    0.60
  17  -3  14    0.88    0.33
   3  14  14    0.15    0.45
 -14  17  14    0.67    0.61
 -17  14  14    0.43    0.57
  -3  17  14    0.64    0.65
  17  -3 -14    1.48    0.53
   3  14 -14    0.94    0.41
  17 -14  14    1.23    0.42
  14 -17 -14    0.66    0.53
  14   3  14    0.92    0.41
  -3  17  14    1.09    0.46
  17 -15 -14    0.51    0.49
  17  -2  14    0.15    0.29
 -15  17  14   -0.34    0.57
   2  15  14   -0.27    0.37
  15   2 -14    0.29    0.47
 -17  15  14   -0.90    0.47
  15 -17 -14   -0.27    0.42
  -2  17  14    0.04    0.43
  17  -2 -14   -0.18    0.52
   2  15 -14    0.32    0.40
  15   2  14    0.39    0.36
  17  -1  14   -0.07    0.27
 -16  17  14   -0.03    0.51
  17 -16 -14    0.34    0.42
   1  16  14    0.44    0.35
  16   1 -14    0.65    0.54
  -1  17  14    1.16    0.48
 -17  16  14    0.50    0.55
  17  -1 -14    0.37    0.49
  16 -17 -14   -1.24    0.44
  16   1  14   -0.01    0.24
   0  17  14    0.85    0.56
 -17  17  14    0.48    0.62
  17   0 -14    0.41    0.56
  17   0  14    0.58    0.35
   9   9 -14    0.46    0.51
   9 -18 -14    0.15    0.41
   9   9  14    0.22    0.33
  -9  18  14   -1.24    0.52
  18  -9  14    0.58    0.28
  18  -9 -14   -0.22    0.35
 -18   9  14   -0.10    0.64
   8 -18 -14    0.61    0.58
  18 -10 -14    0.30    0.41
  18  -8  14    0.11    0.29
 -10  18  14   -0.36    0.56
   8  10  14    0.28    0.34
  10   8 -14    0.88    0.48
  18  -8 -14   -0.40    0.36
  10   8  14    0.48    0.33
 -18  10  14    0.06    0.61
  10 -18 -14    0.60    0.53
  18 -10  14    0.33    0.28
   8  10 -14   -0.23    0.42
  -8  18  14   -1.02    0.58
  18  -7  14    0.71    0.33
   7 -18 -14    0.88    0.62
   7  11  14    0.23    0.32
  11   7 -14   -0.79    0.47
  18 -11 -14   -0.18    0.42
 -11  18  14   -0.76    0.54
  -7  18  14    0.47    0.60
  11   7  14    0.50    0.36
  18 -11  14    0.24    0.27
 -18  11  14    0.03    0.61
  18  -7 -14    0.23    0.57
   7  11 -14    0.57    0.52
  11 -18 -14    0.34    0.52
   6  12  14    0.37    0.38
 -12  18  14    0.23    0.57
  18  -6  14    0.27    0.30
  18 -12 -14   -0.20    0.43
  12   6 -14    0.68    0.54
   6  12 -14    0.79    0.47
  18  -6 -14   -0.56    0.47
  12   6  14   -0.12    0.27
  -6  18  14   -0.29    0.55
 -18  12  14    0.18    0.59
  12 -18 -14    0.77    0.54
  18 -12  14    0.09    0.28
  -6  18  14    0.65    0.48
   5  13  14    0.52    0.38
  18 -13 -14    0.48    0.47
  18  -5  14    0.44    0.35
 -13  18  14    0.60    1.00
  13   5 -14   -0.03    0.48
  18 -13  14    0.75    0.33
  -5  18  14    0.09    0.64
  18  -5 -14    0.62    0.52
   5  13 -14    1.70    0.58
  13   5  14    0.24    0.34
  -5  18  14    1.07    0.51
 -18  13  14    0.38    0.61
  13 -18 -14    0.45    0.51
   4  14  14   -0.54    0.35
  18  -4  14    0.02    0.26
 -14  18  14    0.44    0.66
  14   4 -14    0.80    0.57
  18 -14 -14   -0.24    0.41
 -18  14  14    0.10    0.55
  14   4  14    0.60    0.34
  -4  18  14    0.06    0.61
   4  14 -14   -0.15    0.46
  -4  18  14    0.97    0.47
  18  -4 -14    0.68    0.53
  18 -14  14    0.24    0.27
  14 -18 -14    0.36    0.46
  18  -3  14    0.89    0.40
  15   3 -14    1.13    0.63
   3  15  14    1.58    0.58
  18 -15 -14    0.91    0.56
 -15  18  14   -0.22    0.61
  -3  18  14    0.64    0.45
  18  -3 -14    0.84    0.73
   3  15 -14    0.50    0.42
  18 -15  14    1.72    0.59
  15 -18 -14    1.31    0.72
  -3  18  14    2.47    0.72
 -18  15  14    1.85    0.83
  15   3  14    0.62    0.33
   2  16  14    0.22    0.41
 -16  18  14   -0.04    0.62
  16   2  14    0.28    0.33
  -2  18  14    0.01    0.40
   9 -19 -14   -0.45    0.56
  19  -9  14    0.10    0.24
  10   9 -14   -0.40    0.46
  19 -10 -14    0.97    0.53
   9  10  14    0.22    0.36
 -10  19  14    0.59    0.65
 -19   9  14    0.25    0.76
  19  -9 -14    0.72    0.49
  10   9  14    0.58    0.40
  19 -10  14    0.50    0.29
  10 -19 -14    0.55    0.62
 -19  10  14    0.28    0.70
  -9  19  14    0.70    0.73
   9  10 -14    0.77    0.60
  19  -8  14    0.01    0.26
 -11  19  14   -0.76    0.64
  11   8 -14   -1.17    0.42
   8  11  14    0.17    0.32
   8 -19 -14   -0.47    0.50
  11 -19 -14    0.14    0.55
  19  -8 -14    0.32    0.44
  19 -11  14    0.03    0.28
  11   8  14    0.41    0.32
   8  11 -14   -0.01    0.49
 -19  11  14    0.13    0.61
  -8  19  14   -0.60    0.63
  19  -7  14    0.05    0.30
  12   7 -14    0.84    0.57
 -12  19  14    0.77    0.67
  19 -12 -14    0.69    0.57
   7  12  14    1.05    0.41
   7  12 -14    0.41    0.50
 -19  12  14    0.17    0.64
  19  -7 -14    0.77    0.64
  12   7  14   -0.04    0.29
  -7  19  14    0.44    0.68
  19 -12  14    0.30    0.30
  12 -19 -14    0.83    0.60
  13   6 -14    0.44    0.59
  19  -6  14    0.47    0.34
 -13  19  14    0.45    0.58
   6  13  14    0.10    0.43
  19 -13 -14    0.23    0.52
  -6  19  14   -0.53    0.62
  -6  19  14    0.13    0.45
  19 -13  14    0.42    0.33
  13 -19 -14   -0.42    0.50
   6  13 -14    0.44    0.52
 -19  13  14    0.11    0.58
  13   6  14   -0.35    0.30
  19  -6 -14   -1.05    0.48
  19 -14 -14    1.71    0.62
 -14  19  14    0.93    0.75
  14   5 -14    0.32    0.57
   5  14  14    0.62    0.46
  -5  19  14    1.61    0.82
   5  14 -14    0.01    0.51
  -5  19  14    1.36    0.56
  19 -14  14    1.30    0.45
  14   5  14    0.86    0.36
   0   0  15    0.83    0.36
   1   0  15   -0.29    0.21
  -1   0  15    0.01    0.23
   0  -1  15    0.41    0.27
   0   1  15   -0.04    0.24
  -1   1  15   -0.01    0.25
   1  -1  15   -0.44    0.19
   1   1  15    5.89    0.88
  -2   1  15    5.72    0.85
  -1  -1  15    4.47    0.71
   2  -1  15    5.49    0.83
  -1   2  15    7.22    0.97
   1  -2  15    6.72    0.85
  -2   0  15    0.58    0.32
   0   2  15    0.23    0.30
   2  -2  15   -0.20    0.20
   2   0  15    0.22    0.27
  -2   2  15    0.00    0.25
   0  -2  15    0.04    0.21
  -3   1  15    2.84    0.59
  -1  -2  15    1.66    0.44
   2  -3  15    2.79    0.54
   1   2  15    2.02    0.56
   3  -1  15    2.56    0.61
  -2   3  15    1.97    0.56
  -2  -1  15    2.23    0.53
   2   1  15    2.67    0.62
  -1   3  15    1.98    0.56
   3  -2  15    3.25    0.61
  -3   2  15    2.04    0.55
   1  -3  15    2.80    0.53
   3   0  15    0.15    0.26
   3   0 -15   -0.02    0.22
   0   3  15    0.02    0.26
  -3   3  15   -0.29    0.23
   0  -3  15   -0.14    0.20
  -3   0  15    0.04    0.23
   3  -3  15   -0.22    0.21
  -2   4  15    0.00    0.27
  -2  -2  15    0.22    0.25
   2   2  15   -0.04    0.28
   4  -2  15    0.06    0.25
   2  -4  15    0.35    0.25
  -4   2  15   -0.22    0.31
   4  -1  15    7.27    0.93
   4  -3 -15    6.79    1.06
   1   3  15    6.46    1.00
  -3   4  15    6.83    0.99
   3  -4  15    6.15    0.79
   3   1 -15    7.03    0.85
  -4   1  15    5.12    0.78
  -1  -3  15    5.86    0.74
  -1   4  15    6.98    1.01
   3   1  15    5.72    0.89
   4  -3  15    6.92    0.86
  -4   3  15    5.13    0.75
   4  -1 -15    5.42    0.78
  -3  -1  15    5.68    0.78
   1  -4  15    6.23    0.77
   0  -4  15   -0.12    0.21
   0   4  15    0.09    0.31
   4  -4  15   -0.23    0.18
  -4   0  15    0.01    0.22
   4   0 -15   -0.01    0.22
   4   0  15   -0.29    0.21
  -4   4  15   -0.39    0.21
   4  -4 -15   -0.01    0.28
   3  -5  15    1.28    0.37
   2   3  15    1.21    0.48
  -3   5  15    1.99    0.59
   5  -2  15    1.37    0.44
   5  -3 -15    1.25    0.52
   3   2 -15    1.47    0.44
  -5   3  15    1.40    0.46
   3   2  15    1.53    0.51
   5  -2 -15    1.07    0.42
   5  -2 -15    2.04    0.55
   5  -3  15    2.52    0.52
  -3  -2  15    1.05    0.34
   2  -5  15    1.45    0.38
  -2   5  15    1.48    0.55
   4   1 -15   14.34    1.22
   1   4  15   17.59    1.45
   5  -4 -15   17.40    1.49
   5  -1  15   17.90    1.31
   4  -5  15   16.78    1.14
  -4   5  15   15.92    1.25
   4   1  15   17.28    1.35
  -4  -1  15   16.32    1.19
   5  -1 -15   13.90    1.39
  -5   4  15   15.37    1.24
   5  -4  15   19.58    1.26
   5  -1 -15   13.52    1.21
   4  -5 -15   16.57    1.69
  -1   5  15   18.07    1.47
   5   0  15    0.08    0.28
   5  -5  15   -0.27    0.15
   0   5  15   -0.06    0.27
  -5   5  15   -0.35    0.26
   5   0 -15   -0.18    0.29
   5  -5 -15    0.18    0.39
  -3   6  15   12.65    1.38
   6  -3  15   14.23    1.11
   3   3 -15   12.48    1.12
   3   3  15   14.59    1.41
   4   2 -15    2.29    0.55
   4  -6  15    2.80    0.54
   6  -4 -15    1.87    0.60
   6  -2  15    1.29    0.41
  -4   6  15    1.43    0.47
   2   4  15    1.57    0.56
   6  -2 -15    2.21    0.56
   4  -6 -15    1.19    0.53
  -2   6  15    2.79    0.67
   4   2  15    2.62    0.61
  -6   4  15    1.95    0.57
   6  -2 -15    2.17    0.59
   6  -4  15    3.24    0.59
   1   5  15    2.81    0.69
   5   1 -15    3.45    0.66
   5  -6  15    2.68    0.50
  -5   6  15    1.83    0.57
   6  -1  15    2.44    0.58
   6  -5 -15    2.23    0.68
   5  -6 -15    2.30    0.67
   5   1  15    4.16    0.74
   6  -1 -15    2.33    0.57
   6  -5  15    2.86    0.54
  -1   6  15    2.45    0.67
   6  -1 -15    3.10    0.66
  -6   5  15    3.10    0.69
   6  -6 -15   -0.09    0.28
   6   0  15    0.26    0.28
  -6   6  15   -0.06    0.28
   6   0 -15   -0.49    0.20
   0   6  15   -0.10    0.29
   6   0 -15   -0.12    0.26
   6  -6  15   -0.24    0.19
   7  -4 -15    3.33    0.80
   3   4  15    2.34    0.63
   4   3 -15    2.99    0.62
  -4   7  15    2.70    0.63
   7  -3  15    2.15    0.51
   4   3  15    2.59    0.64
  -7   4  15    3.05    0.75
   7  -3 -15    2.30    0.63
   7  -4  15    3.14    0.61
   4  -7 -15    4.76    0.98
   3   4 -15    2.41    0.59
  -3   7  15    3.11    0.73
   7  -3 -15    3.60    0.74
   5  -7  15    3.74    0.57
   7  -5 -15    3.07    0.76
   2   5  15    3.31    0.74
  -5   7  15    3.58    0.73
   7  -2  15    2.93    0.60
   5   2 -15    4.03    0.76
   5   2  15    4.02    0.77
  -7   5  15    5.05    0.86
   7  -5  15    3.64    0.61
   7  -2 -15    3.58    0.72
   5  -7 -15    3.25    0.84
   7  -2 -15    3.60    0.72
  -2   7  15    3.55    0.80
   1   6  15   -0.23    0.30
  -6   7  15   -0.19    0.31
   7  -6 -15   -0.43    0.28
   6   1 -15   -0.15    0.27
   6  -7  15    0.22    0.21
   7  -1  15    0.06    0.24
  -1   7  15    0.21    0.36
   7  -1 -15    0.34    0.30
   6   1  15   -0.12    0.24
   6  -7 -15    0.13    0.37
   7  -6  15    0.26    0.23
   7  -1 -15    0.34    0.29
  -7   6  15   -0.42    0.32
   7   0 -15   -0.23    0.26
   7  -7  15    0.05    0.21
  -7   7  15    0.09    0.32
   0   7  15    0.20    0.33
   7   0  15   -0.23    0.21
   7  -7 -15   -0.13    0.30
   4   4 -15   23.92    1.66
   4  -8 -15   21.37    1.84
  -4   8  15   22.77    1.67
   8  -4 -15   18.35    1.55
   4   4  15   16.24    1.46
   8  -4  15   18.85    1.35
   8  -3  15    0.88    0.38
   5   3 -15    1.09    0.41
   8  -5 -15    0.98    0.46
   3   5  15    0.88    0.45
  -5   8  15    1.83    0.52
   3   5 -15    1.19    0.43
  -3   8  15    1.07    0.52
   5   3  15    0.62    0.41
   5  -8 -15    1.93    0.68
  -8   5  15    0.62    0.50
   8  -5  15    1.02    0.35
   8  -3 -15    0.84    0.41
   8  -3 -15    1.13    0.45
   8  -6 -15    1.35    0.54
   2   6  15    0.74    0.49
   8  -2  15    1.29    0.43
   6   2 -15    1.25    0.50
  -6   8  15    1.19    0.45
   6  -8 -15    0.64    0.50
   6   2  15    1.06    0.44
  -2   8  15    1.19    0.52
   8  -6  15    0.54    0.30
   8  -2 -15    0.55    0.39
  -8   6  15    1.33    0.57
   8  -2 -15    1.14    0.41
   7   1 -15    2.21    0.59
   8  -7 -15    2.04    0.67
   7  -8  15    1.96    0.42
   8  -1  15    2.54    0.58
   1   7  15    1.94    0.65
  -7   8  15    2.66    0.73
  -8   7  15    1.82    0.61
   8  -7  15    2.67    0.50
   8  -1 -15    0.78    0.41
  -1   8  15    1.83    0.63
   7   1  15    2.00    0.54
   8  -1 -15    0.23    0.34
   7  -8 -15    1.54    0.62
   8  -8  15   -0.06    0.20
   8   0 -15   -0.15    0.25
   0   8  15   -0.06    0.24
  -8   8  15   -0.06    0.33
   8  -8 -15   -0.61    0.27
   8   0  15   -0.22    0.22
   5   4 -15    2.46    0.60
   9  -4  15    1.97    0.49
  -5   9  15    1.95    0.60
   4  -9 -15    2.08    0.65
   4   5  15    2.12    0.62
   9  -5 -15    2.05    0.64
   4   5 -15    2.00    0.56
   5  -9 -15    1.43    0.68
   9  -4 -15    1.92    0.57
  -4   9  15    2.63    0.69
   5   4  15    2.64    0.63
   9  -5  15    1.60    0.43
  -9   5  15    2.83    0.83
   9  -4 -15    1.86    0.55
   3   6  15    3.67    0.81
   6   3 -15    2.46    0.65
   9  -3  15    3.03    0.62
   9  -6 -15    3.29    0.77
  -6   9  15    3.87    0.83
   9  -3 -15    3.43    0.71
   9  -6  15    3.47    0.60
   6  -9 -15    2.00    0.68
   9  -3 -15    2.87    0.69
  -3   9  15    3.96    0.87
   6   3  15    2.78    0.66
  -9   6  15    2.81    0.72
   3   6 -15    3.36    0.72
   7   2 -15    3.42    0.75
   9  -2  15    2.22    0.55
  -7   9  15    2.98    0.77
   9  -7 -15    2.87    0.82
   2   7  15    2.99    0.72
  -2   9  15    3.21    0.78
  -9   7  15    1.65    0.60
   7   2  15    2.67    0.62
   9  -2 -15    2.87    0.69
   9  -7  15    2.30    0.51
   7  -9 -15    2.87    0.78
   9  -2 -15    2.36    0.63
   8  -9  15    0.53    0.28
   9  -8 -15    0.36    0.39
  -8   9  15    0.58    0.39
   9  -1  15   -0.26    0.23
   1   8  15    0.40    0.39
   8   1 -15    0.55    0.32
  -9   8  15    0.56    0.44
   9  -8  15    0.28    0.25
   8   1  15    0.44    0.31
   8  -9 -15    0.04    0.39
  -1   9  15   -0.03    0.33
   9  -1 -15   -0.17    0.27
   9  -9  15    0.37    0.24
   9   0  15    0.10    0.26
  -9   9  15   -0.11    0.39
   9   0 -15   -0.21    0.28
   0   9  15   -0.09    0.27
   9  -9 -15   -0.12    0.32
  -5  10  15    6.14    1.04
   5 -10 -15    6.28    1.21
  10  -5  15    6.29    0.84
  10  -5 -15    7.25    1.11
   5   5  15    6.58    1.04
   5   5 -15    5.27    0.93
  10  -5 -15    6.59    1.06
   6   4 -15    0.90    0.43
  10  -4  15    0.09    0.25
   4   6  15    0.28    0.36
  10  -6 -15    0.23    0.32
  -6  10  15    0.11    0.40
 -10   6  15    0.25    0.50
   6 -10 -15    0.30    0.45
  -4  10  15    0.06    0.39
   6   4  15    0.00    0.26
  10  -4 -15   -0.08    0.31
   4   6 -15    0.21    0.32
  10  -6  15   -0.06    0.25
  10  -4 -15    0.36    0.32
  10  -3  15    3.48    0.67
   3   7  15    4.02    0.86
   7   3 -15    3.70    0.79
  -7  10  15    3.90    0.85
  10  -7 -15    3.86    0.83
   7   3  15    3.12    0.69
 -10   7  15    3.61    0.84
  -3  10  15    2.38    0.66
  10  -3 -15    3.35    0.72
  10  -3 -15    3.95    0.83
   3   7 -15    2.89    0.67
   7 -10 -15    2.57    0.74
  10  -7  15    2.91    0.56
  -8  10  15    0.03    0.37
   8   2 -15   -0.04    0.33
  10  -2  15    0.77    0.35
   2   8  15    0.82    0.46
  10  -8 -15    0.31    0.44
   8 -10 -15    0.84    0.54
   8   2  15    0.32    0.29
  -2  10  15    0.60    0.40
 -10   8  15    0.14    0.50
  10  -2 -15    0.75    0.33
  10  -8  15    0.26    0.23
  10  -2 -15    0.77    0.39
  10  -9 -15    4.78    0.99
   9   1 -15    6.71    1.14
  10  -1  15    7.01    0.93
  -9  10  15    5.71    1.09
   1   9  15    5.47    1.00
  -1  10  15    5.91    1.08
  10  -9  15    6.71    0.76
   9   1  15    4.84    0.85
 -10   9  15    5.86    1.05
  10  -1 -15    8.41    1.21
   9 -10 -15    4.04    0.96
  10   0 -15   -0.19    0.29
 -10  10  15    0.32    0.46
  10   0  15   -0.08    0.26
  10 -10 -15   -0.34    0.34
   0  10  15    0.25    0.34
  10 -10  15    0.38    0.25
  -6  11  15    2.53    0.73
   5 -11 -15    2.01    0.75
   5   6  15    2.18    0.65
  11  -6 -15    1.41    0.54
  11  -5  15    2.29    0.51
   6   5 -15    2.03    0.59
  -5  11  15    2.56    0.71
 -11   6  15    1.69    0.75
   5   6 -15    1.94    0.60
  11  -6  15    2.47    0.54
   6   5  15    1.20    0.48
  11  -5 -15    1.71    0.57
   6 -11 -15    1.23    0.71
  11  -5 -15    2.22    0.59
  11  -7 -15    2.86    0.73
  -7  11  15    3.13    0.78
  11  -4  15    2.48    0.57
   4   7  15    3.11    0.75
   7   4 -15    2.66    0.68
  11  -4 -15    3.60    0.79
   7   4  15    3.23    0.72
  11  -7  15    3.80    0.63
 -11   7  15    3.47    0.86
  -4  11  15    3.60    0.84
   7 -11 -15    2.41    0.74
   4   7 -15    3.12    0.69
  11  -4 -15    3.26    0.74
  -8  11  15    1.78    0.70
   8   3 -15    2.84    0.78
  11  -3  15    3.83    0.69
  11  -8 -15    4.65    0.93
   3   8  15    2.10    0.66
   3   8 -15    3.05    0.70
  11  -3 -15    4.13    0.87
  -3  11  15    2.49    0.69
  11  -3 -15    2.77    0.68
   8 -11 -15    3.57    0.90
 -11   8  15    3.39    0.87
   8   3  15    3.44    0.71
  11  -8  15    3.87    0.60
  11  -2  15    1.90    0.51
  -9  11  15    2.15    0.70
  11  -9 -15    2.25    0.71
   2   9  15    2.36    0.66
   9   2 -15    1.84    0.58
   9   2  15    1.93    0.54
  -2  11  15    2.27    0.72
  11  -9  15    2.01    0.44
  11  -2 -15    2.20    0.61
 -11   9  15    1.76    0.67
   9 -11 -15    2.55    0.78
 -10  11  15    6.10    1.08
   1  10  15    6.40    1.11
  10   1 -15    5.90    1.09
  11 -10 -15    5.74    1.08
  11  -1  15    6.55    0.92
  11  -1 -15    6.08    1.10
  11 -10  15    5.94    0.70
  -1  11  15    4.63    0.98
  10   1  15    5.28    0.86
 -11  10  15    5.50    1.06
  10 -11 -15    7.51    1.28
  11   0 -15   -0.18    0.34
  11   0  15    0.39    0.31
 -11  11  15    0.29    0.47
  11 -11 -15    0.16    0.40
   0  11  15   -0.04    0.32
  12  -6  15    1.95    0.50
   6   6 -15    1.22    0.57
  12  -6 -15    1.27    0.50
   6   6  15    0.38    0.34
   6 -12 -15    1.73    0.62
  -6  12  15    0.67    0.67
  12  -7 -15    1.74    0.58
   5   7  15    1.87    0.55
  -7  12  15    3.59    0.86
   5 -12 -15    3.49    0.95
  12  -5  15    1.92    0.53
   7   5 -15    2.67    0.69
  12  -5 -15    2.17    0.71
  12  -7  15    1.84    0.46
  12  -5 -15    3.55    0.78
  -5  12  15    1.66    0.63
   7 -12 -15    1.18    0.63
 -12   7  15    1.88    0.77
   7   5  15    2.65    0.68
   5   7 -15    2.81    0.74
  -8  12  15    2.85    0.80
   8   4 -15    3.84    0.86
  12  -4  15    5.22    0.76
  12  -8 -15    3.70    0.84
   4   8  15    3.21    0.78
  12  -4 -15    4.33    0.81
   8   4  15    2.97    0.69
  12  -4 -15    3.87    0.86
 -12   8  15    4.41    0.95
  -4  12  15    4.29    0.92
   4   8 -15    2.52    0.69
  -4  12  15    6.08    1.13
   8 -12 -15    2.87    0.88
  12  -8  15    3.57    0.62
   9   3 -15    0.06    0.38
  12  -3  15    0.63    0.34
   3   9  15    0.30    0.39
  12  -9 -15    0.91    0.51
  -9  12  15   -0.53    0.39
   9   3  15    0.12    0.31
   9 -12 -15    1.10    0.54
 -12   9  15    0.28    0.49
  12  -3 -15    0.95    0.51
  -3  12  15    0.54    0.37
  12  -9  15    0.34    0.24
   3   9 -15    0.33    0.43
  12 -10 -15    1.12    0.55
  10   2 -15    1.78    0.62
   2  10  15    0.93    0.50
  12  -2  15    0.81    0.38
 -10  12  15    0.17    0.48
  10 -12 -15    1.02    0.60
 -12  10  15    1.40    0.64
  10   2  15    1.23    0.42
  12 -10  15    0.65    0.32
  -2  12  15    1.47    0.56
  12  -2 -15    0.91    0.51
  11   1 -15    0.70    0.47
   1  11  15   -0.20    0.32
  12 -11 -15    0.86    0.45
  12  -1  15    0.13    0.29
 -11  12  15    0.73    0.49
  12  -1 -15    0.36    0.41
  12 -11  15    0.62    0.27
  -1  12  15    0.02    0.33
 -12  11  15    0.56    0.56
  11 -12 -15    0.90    0.52
  11   1  15   -0.11    0.27
   0  12  15    0.14    0.38
  12 -12 -15   -0.28    0.31
  12   0 -15   -0.61    0.36
 -12  12  15    0.38    0.50
  12   0  15   -0.11    0.28
   7   6 -15   -0.03    0.40
   6   7  15    0.03    0.27
  13  -6  15   -0.09    0.24
  -7  13  15    0.63    0.71
   6 -13 -15    0.68    0.51
  13  -7 -15    0.30    0.38
   7   6  15    0.18    0.34
  13  -7  15    0.33    0.32
  -6  13  15    0.03    0.48
 -13   7  15    0.21    0.54
   7 -13 -15    0.93    0.57
   6   7 -15    0.80    0.42
  13  -6 -15    0.43    0.40
  13  -6 -15   -0.13    0.35
   5   8  15    4.82    0.91
  -8  13  15    4.46    0.98
   8   5 -15    3.00    0.83
  13  -5  15    4.21    0.71
   5 -13 -15    3.85    0.98
  13  -8 -15    4.61    0.94
  -5  13  15    6.46    1.23
   8   5  15    4.16    0.80
  13  -8  15    5.00    0.74
   8 -13 -15    2.93    0.87
   5   8 -15    3.34    0.78
  13  -5 -15    3.60    0.84
  13  -5 -15    4.53    0.91
 -13   8  15    4.39    1.01
  13  -4  15    0.76    0.38
  -9  13  15    0.30    0.50
   9   4 -15    0.64    0.46
   4   9  15    0.47    0.41
  13  -9 -15    0.61    0.41
   9   4  15    0.24    0.32
  13  -4 -15    0.22    0.35
   4   9 -15    0.06    0.41
  13  -9  15    0.51    0.27
  -4  13  15    0.07    0.51
 -13   9  15    0.05    0.49
   9 -13 -15    0.72    0.49
  -4  13  15    0.61    0.44
   3  10  15    0.70    0.48
  13 -10 -15    2.34    0.68
 -10  13  15    2.27    0.72
  10   3 -15    0.31    0.44
  13  -3  15    1.08    0.43
  10   3  15    0.92    0.42
  10 -13 -15    0.60    0.50
  -3  13  15    0.82    0.51
  13 -10  15    1.18    0.37
 -13  10  15    0.66    0.56
   3  10 -15    0.72    0.46
  13  -3 -15    1.76    0.58
  11   2 -15    2.12    0.67
  13 -11 -15    2.88    0.80
  13  -2  15    1.43    0.48
   2  11  15    0.86    0.48
 -11  13  15    3.08    0.84
  13 -11  15    1.81    0.43
  -2  13  15    1.63    0.59
  11   2  15    1.92    0.54
 -13  11  15    2.03    0.78
  13  -2 -15    1.43    0.60
  11 -13 -15    3.38    0.91
  13  -1  15    3.28    0.70
 -12  13  15    4.70    1.08
  13 -12 -15    3.96    0.91
  12   1 -15    4.25    0.96
   1  12  15    3.12    0.86
 -13  12  15    2.98    0.93
  12 -13 -15    3.94    0.95
  -1  13  15    2.60    0.74
  13 -12  15    4.68    0.63
  12   1  15    4.03    0.76
  13  -1 -15    2.82    0.76
  13   0 -15    0.30    0.48
  13 -13 -15   -0.07    0.38
  13   0  15    0.29    0.27
 -13  13  15    0.15    0.55
   0  13  15   -0.07    0.39
  14  -7 -15    0.25    0.33
   7   7 -15   -0.17    0.40
  -7  14  15    0.17    0.44
 -14   7  15   -0.22    0.62
   7 -14 -15    0.13    0.42
   7   7  15    0.40    0.36
  14  -7  15    0.44    0.29
  -8  14  15    2.56    0.91
   8   6 -15    1.26    0.56
   6   8  15    1.11    0.45
  14  -8 -15    0.88    0.50
  14  -6  15    1.34    0.44
   6 -14 -15    0.62    0.54
   6   8 -15    2.26    0.63
  -6  14  15    0.58    0.55
 -14   8  15    1.73    0.78
  14  -8  15    0.90    0.37
   8 -14 -15    1.90    0.70
  14  -6 -15    1.56    0.51
   8   6  15    0.95    0.41
  14  -6 -15    2.16    0.68
   9   5 -15    0.98    0.47
  14  -5  15    0.84    0.36
  -9  14  15    0.47    0.53
  14  -9 -15    0.37    0.41
   5   9  15    1.19    0.54
   9   5  15    1.40    0.47
   5   9 -15    0.85    0.49
   9 -14 -15    1.50    0.67
  14  -9  15    1.30    0.39
  14  -5 -15    0.97    0.47
  -5  14  15    0.59    0.55
 -14   9  15    2.00    0.78
  14  -5 -15    1.17    0.53
  14 -10 -15   -0.68    0.34
   4  10  15    0.26    0.34
 -10  14  15   -0.38    0.44
  14  -4  15    0.32    0.31
  10   4 -15    0.11    0.37
  14  -4 -15   -0.43    0.35
  14 -10  15    0.45    0.28
  10 -14 -15   -0.65    0.40
  10   4  15   -0.03    0.28
  -4  14  15    0.10    0.53
   4  10 -15    0.97    0.50
  -4  14  15    0.75    0.46
 -14  10  15   -0.35    0.49
   3  11  15    1.13    0.52
  11   3 -15    1.10    0.55
 -11  14  15    0.60    0.57
  14  -3  15    0.84    0.40
  14 -11 -15    1.35    0.55
   3  11 -15    0.86    0.45
  11 -14 -15    0.30    0.52
  14 -11  15    0.86    0.33
 -14  11  15    0.41    0.60
  -3  14  15    0.49    0.46
  11   3  15    1.16    0.41
  14  -3 -15    1.06    0.55
  12   2 -15    0.36    0.43
  14 -12 -15    0.09    0.36
 -12  14  15    0.28    0.48
   2  12  15   -0.28    0.33
  14  -2  15    0.74    0.35
  14 -12  15    0.51    0.27
  -2  14  15    0.23    0.41
  14  -2 -15    0.16    0.37
  12   2  15    0.49    0.34
  12 -14 -15    0.29    0.46
 -14  12  15    0.10    0.54
  14 -13 -15    0.93    0.53
   1  13  15    0.96    0.46
  13   1 -15    1.29    0.57
  14  -1  15    0.90    0.38
 -13  14  15    0.75    0.65
  13   1  15    1.20    0.44
 -14  13  15    0.85    0.65
  14  -1 -15    0.82    0.53
  13 -14 -15    1.92    0.68
  -1  14  15    0.31    0.44
 -14  14  15   -0.08    0.50
   0  14  15    1.05    0.45
  14   0  15    0.09    0.25
  14 -14 -15    0.09    0.42
  14   0 -15   -0.38    0.47
  -8  15  15    0.21    0.59
  15  -7  15    0.19    0.30
   7 -15 -15    0.97    0.60
   8   7 -15    0.94    0.53
  15  -8 -15    0.50    0.48
   7   8  15    0.57    0.43
  -7  15  15    0.60    0.57
 -15   8  15    0.27    0.64
  15  -8  15    0.32    0.30
   8   7  15    0.44    0.38
   8 -15 -15    1.61    0.70
  15  -7 -15    0.99    0.50
   7   8 -15    0.88    0.50
  15  -9 -15    2.16    0.68
  15  -6  15    2.67    0.58
   6   9  15    1.78    0.55
   9   6 -15    2.29    0.75
   6 -15 -15    2.82    0.88
  -9  15  15    3.29    0.95
 -15   9  15    1.38    0.81
   6   9 -15    2.03    0.71
  15  -6 -15    1.52    0.69
  15  -9  15    2.29    0.52
   9 -15 -15    2.45    0.91
   9   6  15    1.55    0.52
  -6  15  15    2.83    0.91
  15  -6 -15    1.28    0.58
  15 -10 -15    0.85    0.48
  15  -5  15    0.30    0.28
   5  10  15   -0.20    0.34
 -10  15  15   -0.18    0.47
  10   5 -15    0.25    0.46
  10 -15 -15   -0.29    0.49
  -5  15  15   -0.13    0.39
 -15  10  15    0.22    0.59
  15  -5 -15   -0.50    0.37
  10   5  15    0.51    0.34
  15 -10  15    0.30    0.28
   5  10 -15    1.04    0.54
  -5  15  15    1.30    0.61
  11   4 -15    3.14    0.83
  15 -11 -15    5.30    1.10
  15  -4  15    3.22    0.64
   4  11  15    3.54    0.78
 -11  15  15    3.37    0.95
  -4  15  15    4.45    0.95
  11 -15 -15    3.80    0.96
  15 -11  15    2.89    0.55
  11   4  15    2.74    0.61
  -4  15  15    3.07    0.89
  15  -4 -15    2.97    0.81
 -15  11  15    2.70    0.91
   4  11 -15    3.81    0.82
  15 -12 -15    0.44    0.48
 -12  15  15    0.55    0.62
  12   3 -15    1.15    0.50
  15  -3  15    1.38    0.47
   3  12  15    1.17    0.50
   3  12 -15    0.44    0.43
  -3  15  15    1.60    0.52
  15  -3 -15    0.67    0.50
  12 -15 -15    0.62    0.51
  12   3  15    0.51    0.38
 -15  12  15    0.26    0.58
  15 -12  15    0.45    0.29
  15  -2  15    1.34    0.46
  15 -13 -15    0.15    0.47
 -13  15  15    0.02    0.56
   2  13  15    0.86    0.49
  13   2 -15    0.19    0.48
  15  -2 -15    1.15    0.64
  15 -13  15    0.98    0.32
  13   2  15    1.01    0.44
  -2  15  15    1.11    0.46
 -15  13  15    1.65    0.74
  13 -15 -15    1.20    0.60
  15 -14 -15   -0.45    0.38
 -14  15  15   -0.05    0.45
  14   1 -15    0.54    0.45
  15  -1  15   -0.22    0.23
   1  14  15   -0.34    0.34
 -15  14  15    0.13    0.48
  14   1  15    0.15    0.27
  -1  15  15    0.65    0.43
  14 -15 -15    0.58    0.47
  15  -1 -15    0.12    0.46
  15 -15 -15   -0.14    0.37
  15   0  15   -0.45    0.25
 -15  15  15   -0.78    0.49
   0  15  15   -0.40    0.37
  15   0 -15   -0.62    0.45
   8   8  15    3.06    0.67
   8   8 -15    4.92    0.99
   8 -16 -15    3.67    0.94
  16  -8  15    3.85    0.71
  16  -8 -15    4.21    0.93
 -16   8  15    4.39    1.13
  -8  16  15    2.83    0.88
   7   9  15    0.00    0.34
  16  -9 -15    0.75    0.51
   9   7 -15   -0.56    0.40
  -9  16  15    0.80    0.64
  16  -7  15    0.39    0.29
   7 -16 -15   -0.15    0.49
   9   7  15    0.40    0.36
  16  -7 -15    0.47    0.46
  -7  16  15    0.22    0.58
 -16   9  15    0.44    0.65
  16  -9  15    0.42    0.29
   9 -16 -15   -0.49    0.41
   7   9 -15   -0.04    0.44
  16  -7 -15    0.53    0.51
  16 -10 -15    0.06    0.47
 -10  16  15   -0.81    0.50
   6  10  15    0.48    0.37
  16  -6  15    0.51    0.32
  10   6 -15    1.28    0.53
   6  10 -15   -0.17    0.42
  16  -6 -15    0.91    0.52
  16 -10  15    0.18    0.27
  -6  16  15   -0.37    0.49
  10 -16 -15    0.79    0.52
 -16  10  15    0.51    0.65
  10   6  15    0.24    0.36
  11   5 -15    0.47    0.47
  16  -5  15    0.48    0.33
   5  11  15    0.55    0.44
  16 -11 -15   -0.41    0.38
 -16  11  15    0.53    0.59
  16 -11  15    0.61    0.29
   5  11 -15    0.33    0.45
  -5  16  15    0.77    0.65
  -5  16  15    0.75    0.46
  11 -16 -15    0.64    0.58
  16  -5 -15    0.45    0.54
  11   5  15    0.39    0.32
  16 -12 -15    2.32    0.72
  12   4 -15    3.57    0.85
   4  12  15    1.91    0.65
 -12  16  15    2.11    0.81
  16  -4  15    3.03    0.62
  16 -12  15    2.81    0.52
   4  12 -15    1.88    0.57
  -4  16  15    1.08    0.56
  12 -16 -15    3.00    0.87
 -16  12  15    3.00    0.95
  16  -4 -15    3.01    0.89
  12   4  15    2.14    0.57
  16  -3  15    0.12    0.27
   3  13  15    0.72    0.45
  13   3 -15    1.92    0.64
  16 -13 -15    0.01    0.44
 -13  16  15   -0.45    0.57
  13   3  15   -0.56    0.28
  16  -3 -15    0.83    0.51
  -3  16  15    1.01    0.56
  16 -13  15    0.91    0.35
  13 -16 -15    0.19    0.51
 -16  13  15    0.98    0.72
   2  14  15    1.57    0.59
  16 -14 -15    0.10    0.49
  14   2 -15   -0.54    0.45
  16  -2  15    0.31    0.30
 -14  16  15    0.67    0.58
  16  -2 -15    0.65    0.49
 -16  14  15    0.24    0.56
  14   2  15    0.40    0.35
  14 -16 -15   -0.28    0.39
  -2  16  15    0.00    0.38
   1  15  15    1.11    0.50
  16 -15 -15    0.91    0.53
 -15  16  15    0.59    0.65
  15   1 -15    2.56    0.71
  16  -1  15    0.70    0.36
  16  -1 -15    1.67    0.62
 -16  15  15    0.83    0.65
  15 -16 -15    2.20    0.76
  -1  16  15   -0.06    0.42
  15   1  15    0.47    0.40
 -16  16  15   -0.16    0.55
   0  16  15    0.08    0.39
  16   0  15   -0.02    0.30
  16 -16 -15    0.75    0.57
  16   0 -15    0.17    0.48
   8   9  15    0.37    0.37
  17  -9 -15   -0.36    0.38
  17  -8  15    0.10    0.29
 -17   8  15   -0.28    0.72
  -9  17  15    0.48    0.58
   9   8 -15    0.28    0.45
   8 -17 -15    1.08    0.71
  -8  17  15   -1.05    0.54
  17  -9  15   -0.11    0.24
   9 -17 -15    0.47    0.44
 -17   9  15    0.59    0.72
   8   9 -15   -0.21    0.43
  17  -8 -15   -0.19    0.40
   9   8  15    0.93    0.42
  10   7 -15    0.23    0.47
   7  10  15    0.10    0.38
  17  -7  15   -0.01    0.28
  17 -10 -15   -0.34    0.43
  10   7  15    0.26    0.36
   7  10 -15    0.86    0.56
  17 -10  15    0.53    0.30
  10 -17 -15    1.17    0.62
 -17  10  15    0.44    0.65
  17  -7 -15    0.14    0.53
  -7  17  15   -0.44    0.61
  17  -7 -15   -0.10    0.37
  17 -11 -15    1.04    0.58
  11   6 -15    0.94    0.57
   6  11  15    1.25    0.43
  17  -6  15    0.92    0.37
 -11  17  15    0.28    0.61
  17  -6 -15    1.55    0.65
   6  11 -15    0.54    0.50
 -17  11  15    1.44    0.75
  11   6  15    1.67    0.51
  11 -17 -15    0.77    0.57
  17 -11  15    0.44    0.29
  -6  17  15   -0.17    0.38
  -6  17  15    0.11    0.63
 -12  17  15   -0.38    0.53
  17  -5  15    0.32    0.29
   5  12  15   -0.58    0.32
  12   5 -15    0.68    0.54
  17 -12 -15    0.50    0.49
  12   5  15    0.20    0.33
  -5  17  15    1.17    0.50
  17  -5 -15   -0.12    0.46
  17 -12  15    0.76    0.34
 -17  12  15    0.36    0.62
  -5  17  15   -0.92    0.56
  12 -17 -15    0.21    0.44
   5  12 -15    0.91    0.51
  13   4 -15    1.70    0.69
   4  13  15    1.81    0.60
  17  -4  15    2.60    0.60
  17 -13 -15    2.80    0.81
 -13  17  15    2.87    0.88
   4  13 -15    3.85    0.83
  -4  17  15    3.64    0.87
  13   4  15    2.52    0.63
  17  -4 -15    1.65    0.70
  17 -13  15    2.80    0.52
  13 -17 -15    1.96    0.75
 -17  13  15    3.58    1.04
  17 -14 -15    0.83    0.53
  14   3 -15    1.13    0.57
  17  -3  15    0.20    0.29
   3  14  15    0.64    0.51
 -14  17  15   -0.24    0.55
  14 -17 -15    1.71    0.70
  17  -3 -15    0.06    0.55
 -17  14  15    0.87    0.65
  -3  17  15   -0.37    0.40
  14   3  15    1.10    0.42
  17 -14  15    0.56    0.30
  17  -2  15    0.67    0.35
  17 -15 -15    0.12    0.54
 -15  17  15    0.24    0.60
  15   2 -15    0.97    0.60
   2  15  15    0.29    0.41
 -17  15  15    0.47    0.56
  15   2  15    0.39    0.35
  -2  17  15    0.04    0.43
  17  -2 -15    0.99    0.59
  15 -17 -15    1.33    0.63
 -16  17  15   -0.05    0.56
  16   1 -15    0.68    0.53
  18  -9  15    0.21    0.27
  -9  18  15   -0.73    0.61
  18  -9 -15    0.46    0.47
 -18   9  15    0.46    0.66
   9   9  15    0.10    0.31
   9 -18 -15    0.02    0.51
   9   9 -15    0.54    0.49
 -18   8  15    0.01    0.71
  10   8 -15   -0.51    0.48
  18  -8  15    0.29    0.29
   8 -18 -15    0.03    0.52
 -10  18  15   -0.44    0.55
   8  10  15    0.11    0.34
  18 -10 -15   -0.10    0.43
  10 -18 -15   -0.23    0.60
  -8  18  15   -1.42    0.55
 -18  10  15    0.83    0.68
   8  10 -15   -0.22    0.47
  18 -10  15    0.25    0.28
  18  -8 -15    1.25    0.47
  10   8  15    0.34    0.35
  18 -11 -15   -0.46    0.36
 -11  18  15   -1.04    0.56
   7  11  15    0.35    0.32
  18  -7  15    0.11    0.30
  11   7 -15    0.06    0.54
 -18  11  15   -0.21    0.56
  11 -18 -15    0.03    0.54
  18  -7 -15    1.47    0.57
  -7  18  15    0.87    0.64
  18 -11  15    0.63    0.29
  11   7  15    0.15    0.28
   6  12  15    0.39    0.43
 -12  18  15   -0.10    0.54
  18  -6  15    0.68    0.37
  18 -12 -15    0.85    0.54
  12   6 -15    0.90    0.57
   6  12 -15    1.06    0.51
  12   6  15    0.52    0.38
 -18  12  15    0.69    0.70
  -6  18  15    1.11    0.49
  18  -6 -15    0.62    0.53
  -6  18  15    0.75    0.62
  12 -18 -15    0.80    0.50
  18 -12  15    0.24    0.32
  13   5 -15    0.04    0.53
 -13  18  15    2.03    1.41
  18 -13 -15    0.77    0.51
   5  13  15    0.03    0.40
  18  -5  15    0.49    0.31
  13   5  15    0.38    0.37
   5  13 -15    0.50    0.48
  -5  18  15    0.66    0.67
  18 -13  15    1.10    0.34
  -5  18  15    1.37    0.55
 -18  13  15    1.43    0.77
  18  -5 -15    0.68    0.57
  13 -18 -15    0.41    0.49
  14   4 -15   -0.30    0.53
 -14  18  15    1.02    0.74
   4  14  15    0.95    0.47
  18 -14 -15   -0.62    0.50
 -18  14  15    2.22    0.80
  14   4  15    0.43    0.33
   4  14 -15    0.47    0.48
  -4  18  15    1.34    0.57
  18  -4 -15    0.41    0.59
  18 -14  15    0.58    0.39
  19 -10 -15    0.37    0.53
 -10  19  15   -0.57    0.67
  19  -9  15    0.42    0.33
   9 -19 -15    0.26    0.53
  10   9 -15   -0.99    0.45
   9  10  15    0.02    0.36
  -9  19  15    0.52    0.70
   9  10 -15   -0.31    0.48
  19  -9 -15    0.25    0.41
  10   9  15    0.88    0.37
  10 -19 -15    0.26    0.58
  19 -10  15    0.38    0.28
 -11  19  15   -0.12    0.67
  11   8 -15    0.04    0.51
  -8  19  15    0.34    0.62
   8  11 -15    0.53    0.63
   0   0  16   23.52    1.62
  -1   1  16    1.99    0.56
   0   1  16    1.53    0.49
  -1   0  16    2.83    0.62
   0  -1  16    1.62    0.47
   1  -1  16    3.00    0.63
   1   0  16    2.43    0.57
  -2   1  16    1.20    0.44
   2  -1  16    1.76    0.47
  -1   2  16    1.99    0.55
   1   1  16    1.21    0.47
   1  -2  16    1.52    0.47
  -1  -1  16    1.41    0.46
   2  -2  16   12.83    1.07
   0  -2  16   11.11    1.08
   2   0  16   12.02    1.22
   0   2  16   12.68    1.29
  -2   0  16    9.38    1.07
  -2   2  16   11.79    1.23
  -2   3  16    0.50    0.37
   2  -3  16    0.47    0.30
  -3   1  16    0.18    0.28
  -1  -2  16    0.12    0.27
   1   2  16    0.45    0.36
   3  -1  16    0.16    0.33
  -1   3  16    0.48    0.36
  -3   2  16   -0.09    0.24
   3  -2  16    0.61    0.30
  -2  -1  16    0.46    0.29
   1  -3  16   -0.07    0.25
   2   1  16    0.25    0.33
   0  -3  16    7.17    0.86
   3   0  16    5.16    0.85
   3  -3  16    7.38    0.90
  -3   3  16    5.03    0.86
   0   3  16    7.85    1.08
  -3   0  16    6.74    0.91
   4  -2  16   12.98    1.09
   2  -4  16   12.41    0.99
  -4   2  16   13.65    1.18
  -2  -2  16   11.52    1.01
  -2   4  16   11.15    1.29
   2   2  16   11.82    1.30
  -4   1  16    3.59    0.69
   1   3  16    4.04    0.83
   3  -4  16    4.68    0.69
  -3   4  16    3.61    0.75
   4  -1  16    4.70    0.80
  -4   3  16    4.39    0.79
   1  -4  16    3.51    0.62
  -3  -1  16    5.30    0.76
   4  -1 -16    4.65    0.76
  -1   4  16    3.36    0.76
   3   1  16    3.18    0.68
   4  -3  16    4.73    0.75
   4  -4  16    0.39    0.28
   0   4  16    0.40    0.39
   4   0  16    0.36    0.34
  -4   0  16    0.27    0.28
  -4   4  16    0.68    0.40
   4   0 -16    0.24    0.30
   5  -3 -16    1.34    0.55
  -3   5  16    1.10    0.48
   2   3  16    1.42    0.53
   3  -5  16    1.13    0.37
   5  -2  16    1.29    0.45
   3   2  16    0.91    0.43
   5  -3  16    0.87    0.38
  -2   5  16    0.82    0.44
  -5   3  16    1.65    0.54
  -4   5  16    0.12    0.27
  -5   1  16    0.20    0.26
   5  -4 -16    0.05    0.33
   4  -5  16    0.02    0.22
   4   1 -16    0.41    0.31
   5  -1  16   -0.23    0.21
   1   4  16    1.01    0.45
  -5   4  16    0.15    0.35
  -1   5  16    0.03    0.33
   5  -1 -16    0.32    0.28
   5  -4  16    0.29    0.26
   4   1  16    0.40    0.36
   5  -5 -16   10.07    1.40
   5  -5  16   11.41    0.95
   5   0  16   12.74    1.29
   0   5  16   11.68    1.36
  -5   5  16   10.79    1.15
   5   0 -16   11.47    1.18
  -5   0  16   11.28    1.10
   6  -3  16   16.69    1.27
  -6   3  16   15.79    1.40
   3   3  16   16.74    1.43
  -3   6  16   17.60    1.52
   6  -4 -16    2.36    0.67
   4  -6  16    2.22    0.45
   4   2 -16    1.61    0.47
   6  -2  16    1.24    0.46
   2   4  16    2.12    0.63
   6  -2 -16    1.43    0.47
  -2   6  16    1.69    0.56
   6  -2 -16    2.12    0.61
   4   2  16    1.91    0.57
   6  -4  16    1.94    0.49
  -6   4  16    1.59    0.59
   1   5  16    0.91    0.46
   6  -1  16    0.32    0.35
   5   1 -16    0.23    0.29
  -5   6  16    0.53    0.41
   5  -6  16    0.87    0.33
   6  -5 -16    0.07    0.39
  -1   6  16    1.00    0.49
   5  -6 -16    0.26    0.39
   6  -1 -16    0.56    0.31
   5   1  16    0.84    0.43
  -6   5  16    1.23    0.53
   6  -5  16    0.84    0.34
   6  -1 -16    0.26    0.34
   6   0  16   14.81    1.26
   6  -6 -16   13.47    1.59
   6  -6  16   12.53    1.01
   0   6  16   14.48    1.53
   6   0 -16   13.83    1.25
  -6   6  16   14.30    1.28
   7  -4 -16   -0.06    0.33
   7  -3  16   -0.14    0.21
   3   4  16   -0.07    0.29
   4   3 -16   -0.46    0.26
   7  -4  16   -0.10    0.26
  -3   7  16    0.25    0.36
   7  -3 -16   -0.49    0.23
  -7   4  16   -0.33    0.38
   7  -3 -16   -0.02    0.28
   4   3  16    0.18    0.35
   5   2 -16   16.04    1.37
  -5   7  16   17.35    1.43
   7  -2  16   17.16    1.33
   2   5  16   16.73    1.63
  -2   7  16   16.03    1.62
   5  -7 -16   17.09    1.83
   7  -2 -16   18.00    1.46
   5   2  16   18.13    1.45
   7  -5  16   16.71    1.22
  -7   5  16   16.62    1.43
   1   6  16    0.83    0.49
   6  -7  16    0.93    0.29
   7  -1  16    1.11    0.40
   7  -6 -16    0.69    0.38
  -6   7  16    0.62    0.45
   6   1 -16    1.01    0.40
  -1   7  16    0.38    0.41
   7  -6  16    0.62    0.32
  -7   6  16    0.84    0.47
   7  -1 -16    0.19    0.31
   6  -7 -16    0.50    0.43
   7  -1 -16    0.07    0.31
   6   1  16    0.45    0.35
   0   7  16    1.80    0.62
   7   0 -16    1.94    0.52
   7  -7 -16    1.98    0.62
   7  -7  16    1.44    0.38
   7   0  16    0.46    0.38
  -7   7  16    0.96    0.52
   4   4  16    1.45    0.51
  -4   8  16    1.20    0.54
   8  -4 -16    1.25    0.53
   8  -4  16    1.41    0.44
   4   4 -16    1.31    0.42
   5   3 -16    2.57    0.65
  -5   8  16    1.73    0.58
   3   5  16    1.84    0.64
   8  -3  16    2.83    0.62
   8  -5 -16    1.81    0.63
   8  -5  16    2.35    0.53
   8  -3 -16    2.12    0.62
  -3   8  16    2.81    0.76
  -8   5  16    3.47    0.77
   5  -8 -16    2.34    0.73
   5   3  16    2.08    0.58
   8  -3 -16    0.82    0.45
   2   6  16    1.41    0.56
   8  -2  16    1.30    0.41
  -6   8  16    0.35    0.40
   8  -6 -16    0.63    0.41
   6   2 -16    0.36    0.38
   8  -6  16    0.86    0.35
  -8   6  16    0.91    0.47
   6  -8 -16    0.54    0.48
   8  -2 -16    1.31    0.46
  -2   8  16    0.88    0.50
   8  -2 -16    1.91    0.51
   6   2  16    0.69    0.42
   8  -1  16   -0.37    0.22
   1   7  16    0.15    0.41
   7  -8  16    0.38    0.22
   8  -7 -16   -0.16    0.39
   7   1 -16    0.19    0.36
  -7   8  16    0.52    0.42
   7  -8 -16   -0.03    0.34
  -1   8  16    0.77    0.44
   8  -7  16    0.17    0.20
  -8   7  16    0.04    0.38
   8  -1 -16    0.03    0.29
   7   1  16   -0.49    0.26
   8   0 -16    0.81    0.43
   0   8  16    1.44    0.57
   8   0  16    1.04    0.42
   8  -8 -16    1.40    0.63
  -8   8  16    0.91    0.52
   8  -8  16    1.82    0.42
  -5   9  16    0.40    0.38
   5   4 -16   -0.16    0.29
   9  -4  16    0.50    0.33
   4   5  16    0.04    0.33
   9  -5 -16   -0.37    0.35
  -9   5  16    0.19    0.53
  -4   9  16    0.22    0.37
   9  -5  16   -0.05    0.23
   5  -9 -16   -0.42    0.37
   5   4  16    0.14    0.33
   4   5 -16    0.56    0.33
   9  -4 -16    0.55    0.37
   9  -4 -16   -0.10    0.30
   6   3 -16    7.59    1.14
  -6   9  16    7.65    1.16
   3   6  16    8.30    1.20
   9  -3  16    7.48    0.98
   9  -6 -16    7.74    1.22
   6  -9 -16    6.80    1.22
  -9   6  16    6.95    1.10
   6   3  16    7.74    1.10
   9  -3 -16    6.47    1.05
  -3   9  16    7.36    1.19
   9  -3 -16    6.63    1.06
   9  -6  16    8.06    0.93
   9  -2  16    0.94    0.36
  -7   9  16    0.94    0.54
   2   7  16    1.75    0.61
   7   2 -16    1.20    0.45
   9  -7 -16    1.51    0.58
  -9   7  16    1.29    0.58
   9  -2 -16    0.93    0.47
   7  -9 -16    1.89    0.72
  -2   9  16    1.20    0.55
   9  -2 -16    1.01    0.50
   9  -7  16    1.93    0.45
   7   2  16    1.46    0.49
   9  -8 -16    0.67    0.45
   9  -1  16    0.21    0.30
   8   1 -16    0.79    0.47
   1   8  16    0.47    0.39
  -8   9  16    0.68    0.47
  -1   9  16    0.56    0.41
  -9   8  16    0.66    0.48
   8   1  16    0.44    0.32
   9  -1 -16    1.16    0.51
   9  -8  16    0.92    0.33
   8  -9 -16    0.45    0.46
   9  -9 -16    2.44    0.75
  -9   9  16    3.77    0.87
   9   0 -16    2.88    0.74
   9   0  16    2.76    0.65
   0   9  16    3.90    0.86
   9  -9  16    3.50    0.55
  -5  10  16    6.89    1.07
  10  -5  16    7.07    0.94
   5   5  16    7.06    1.11
  10  -5 -16    6.85    1.14
   5 -10 -16    7.58    1.33
   5   5 -16    7.77    1.14
   4   6  16    4.57    0.92
   6   4 -16    4.54    0.88
  10  -6 -16    4.02    0.90
  10  -4  16    6.05    0.85
  -6  10  16    7.60    1.18
  10  -6  16    5.65    0.80
  -4  10  16    4.44    0.91
   6 -10 -16    4.72    1.07
 -10   6  16    6.02    1.07
  10  -4 -16    5.29    0.99
  10  -4 -16    5.53    1.01
   6   4  16    4.26    0.82
  10  -3  16    1.69    0.49
   7   3 -16    1.72    0.52
  10  -7 -16    2.21    0.71
   3   7  16    2.47    0.70
  -7  10  16    1.11    0.60
   7 -10 -16    2.09    0.79
  -3  10  16    1.44    0.54
  10  -3 -16    0.27    0.38
   7   3  16    2.22    0.62
  10  -3 -16    2.74    0.69
 -10   7  16    0.98    0.60
  10  -7  16    2.09    0.52
   8   2 -16    0.28    0.41
   2   8  16   -0.51    0.29
  10  -2  16   -0.12    0.24
  10  -8 -16   -0.16    0.38
  -8  10  16    0.27    0.42
 -10   8  16    0.06    0.45
   8   2  16    0.31    0.29
  10  -8  16    0.08    0.22
  10  -2 -16    0.23    0.34
  -2  10  16    0.36    0.34
   9   1 -16    0.39    0.35
   1   9  16    0.63    0.40
  -9  10  16    0.04    0.43
  10  -9 -16    0.22    0.41
  10  -1  16    0.26    0.26
  10  -1 -16    0.21    0.37
   9   1  16    0.56    0.35
  -1  10  16    0.74    0.40
  10  -9  16    0.20    0.24
   9 -10 -16   -0.19    0.39
 -10   9  16    0.20    0.47
 -10  10  16    0.87    0.55
   0  10  16    1.26    0.54
  10   0 -16    1.02    0.52
  10   0  16    0.69    0.37
  10 -10 -16    1.01    0.62
  11  -5  16    2.45    0.57
   6   5 -16    5.18    0.97
   5 -11 -16    2.98    0.88
   5   6  16    1.43    0.55
  11  -6 -16    2.09    0.66
  -6  11  16    3.28    0.80
  11  -5 -16    3.22    0.78
  11  -5 -16    2.39    0.72
 -11   6  16    2.62    0.81
  11  -6  16    2.44    0.54
   6 -11 -16    1.02    0.56
   6   5  16    2.42    0.60
   5   6 -16    2.51    0.66
  -7  11  16    1.97    0.68
   7   4 -16    3.12    0.74
   4   7  16    1.41    0.58
  11  -7 -16    2.11    0.66
  11  -4  16    1.84    0.53
   7   4  16    1.99    0.61
  11  -7  16    2.36    0.53
  11  -4 -16    2.35    0.63
  -4  11  16    2.10    0.66
   7 -11 -16    1.66    0.65
  11  -4 -16    1.39    0.53
 -11   7  16    2.31    0.79
  11  -8 -16    0.21    0.36
   3   8  16   -0.06    0.32
   8   3 -16    0.23    0.36
  11  -3  16   -0.11    0.23
  -8  11  16   -0.20    0.40
   8 -11 -16   -0.02    0.41
   8   3  16   -0.12    0.32
 -11   8  16    0.13    0.46
  11  -8  16   -0.10    0.23
  11  -3 -16    0.16    0.35
  -3  11  16   -0.40    0.28
  11  -9 -16    3.62    0.88
  11  -2  16    2.56    0.58
   2   9  16    2.30    0.68
  -9  11  16    2.80    0.86
   9   2 -16    2.09    0.70
  11  -2 -16    2.19    0.65
  -2  11  16    2.80    0.78
  11  -9  16    2.41    0.50
   9   2  16    1.61    0.54
   9 -11 -16    1.74    0.70
 -11   9  16    1.40    0.67
  11  -1  16    1.98    0.54
 -10  11  16    1.32    0.61
   1  10  16    1.46    0.57
  11 -10 -16    1.56    0.66
  10   1 -16    1.64    0.62
  11 -10  16    1.72    0.42
  10 -11 -16    2.13    0.70
 -11  10  16    2.37    0.75
  11  -1 -16    1.62    0.55
  -1  11  16    0.98    0.51
  10   1  16    1.76    0.55
  11   0 -16    0.59    0.43
   0  11  16    0.93    0.45
 -11  11  16    0.46    0.51
  11 -11 -16    0.52    0.45
  11   0  16    0.14    0.28
   6   6 -16    8.82    1.30
   6 -12 -16    9.89    1.56
  12  -6  16    9.24    1.04
  -6  12  16    8.26    1.34
   6   6  16    8.33    1.18
  12  -6 -16    9.50    1.33
 -12   6  16    7.57    1.32
  12  -5  16    2.07    0.55
  -7  12  16    2.83    0.76
   5   7  16    1.91    0.65
  12  -7 -16    2.27    0.71
   7   5 -16    3.50    0.79
   5   7 -16    1.72    0.58
  12  -7  16    2.44    0.54
  12  -5 -16    2.02    0.62
 -12   7  16    2.21    0.79
  12  -5 -16    2.21    0.69
   7   5  16    2.11    0.62
   7 -12 -16    1.99    0.79
  12  -4  16    0.14    0.25
  12  -8 -16   -0.31    0.29
   4   8  16   -0.13    0.35
  -8  12  16    0.18    0.48
   8   4 -16    0.05    0.40
  12  -4 -16    0.39    0.41
  12  -4 -16    0.16    0.35
 -12   8  16   -0.23    0.41
   8 -12 -16    1.13    0.56
  -4  12  16    0.34    0.34
  12  -8  16    0.53    0.27
   8   4  16    0.07    0.26
   3   9  16    0.09    0.42
  12  -9 -16   -0.03    0.33
   9   3 -16    0.49    0.39
  12  -3  16    0.42    0.28
  -9  12  16    0.14    0.44
 -12   9  16    0.44    0.53
   9   3  16    0.55    0.36
   9 -12 -16    0.69    0.57
  12  -3 -16    0.03    0.33
  12  -9  16   -0.46    0.20
  -3  12  16   -0.09    0.35
  12  -2  16    0.24    0.28
  12 -10 -16    0.11    0.41
  10   2 -16   -0.34    0.37
   2  10  16   -0.18    0.33
 -10  12  16    0.38    0.45
 -12  10  16   -0.11    0.47
  12 -10  16   -0.09    0.21
  12  -2 -16   -0.29    0.35
  10   2  16   -0.14    0.23
  10 -12 -16    0.63    0.48
  -2  12  16    1.04    0.49
   1  11  16    1.15    0.56
  12 -11 -16    0.85    0.52
  12  -1  16    0.39    0.33
 -11  12  16    0.73    0.54
  11   1 -16    0.34    0.42
  12 -11  16    1.46    0.35
  -1  12  16    0.44    0.46
  11   1  16    0.60    0.40
  12  -1 -16   -0.46    0.36
 -12  11  16    0.88    0.61
  11 -12 -16    0.86    0.52
  12   0  16    4.38    0.81
 -12  12  16    3.69    0.93
  12 -12 -16    3.60    0.91
   0  12  16    3.30    0.83
  12   0 -16    4.28    0.93
  13  -6  16    3.82    0.68
   6 -13 -16    4.77    1.11
   7   6 -16    3.07    0.79
  -7  13  16    2.45    0.79
   6   7  16    2.73    0.70
  13  -7 -16    3.55    0.83
   7   6  16    3.39    0.75
   7 -13 -16    2.54    0.88
  -6  13  16    4.69    0.97
   6   7 -16    4.59    0.98
 -13   7  16    4.74    1.05
  13  -7  16    4.13    0.68
  13  -6 -16    3.65    0.85
  -8  13  16   -0.10    0.48
  13  -5  16    0.61    0.36
   5   8  16    0.47    0.43
  13  -8 -16    0.90    0.48
   8   5 -16    0.83    0.48
   5   8 -16    0.26    0.44
   8   5  16    0.54    0.36
  -5  13  16    0.17    0.33
  13  -8  16    1.08    0.36
 -13   8  16    0.30    0.56
   8 -13 -16   -0.20    0.45
  13  -5 -16    1.67    0.57
  13  -5 -16    0.75    0.49
   9   4 -16    0.68    0.45
  -9  13  16   -0.02    0.50
  13  -4  16    0.65    0.41
  13  -9 -16    1.22    0.47
   4   9  16    0.79    0.44
   9 -13 -16    0.92    0.65
  13  -9  16    0.93    0.35
   9   4  16    0.67    0.37
 -13   9  16    1.35    0.68
  13  -4 -16    0.75    0.47
  -4  13  16    1.44    0.60
  13 -10 -16    2.82    0.82
  10   3 -16    1.59    0.64
 -10  13  16    0.95    0.56
  13  -3  16    0.95    0.42
   3  10  16    0.40    0.43
 -13  10  16    1.33    0.69
  13  -3 -16    1.75    0.62
  -3  13  16    0.65    0.47
  13 -10  16    1.71    0.40
  10 -13 -16    0.62    0.49
  10   3  16    0.19    0.35
   2  11  16    0.60    0.46
  11   2 -16    0.60    0.49
 -11  13  16    0.20    0.51
  13 -11 -16    0.20    0.42
  13  -2  16   -0.06    0.30
  11   2  16    0.16    0.28
 -13  11  16   -0.35    0.43
  -2  13  16   -0.19    0.32
  13 -11  16   -0.26    0.25
  11 -13 -16   -0.83    0.37
  13  -2 -16    0.54    0.43
 -12  13  16    0.78    0.59
   1  12  16    0.94    0.49
  12   1 -16    0.45    0.48
  13 -12 -16    0.50    0.58
  13  -1  16    0.72    0.33
  12 -13 -16    0.41    0.48
  13  -1 -16    0.05    0.49
 -13  12  16    0.79    0.59
  -1  13  16    0.33    0.38
  12   1  16    1.04    0.42
 -13  13  16    0.15    0.50
   0  13  16    0.93    0.51
  13 -13 -16    0.71    0.53
  13   0 -16    0.76    0.50
  13   0  16   -0.01    0.26
  -7  14  16    9.90    1.54
   7   7  16   10.24    1.34
 -14   7  16    9.14    1.48
  14  -7 -16    9.73    1.41
  14  -7  16    9.89    1.06
   7 -14 -16   10.86    1.66
   7   7 -16    9.29    1.41
   8   6 -16    0.39    0.44
  14  -6  16    0.33    0.29
   6 -14 -16   -0.19    0.56
  -8  14  16   -0.46    0.45
  14  -8 -16    0.67    0.39
   6   8  16    0.32    0.32
  14  -6 -16    0.15    0.43
  14  -6 -16   -0.09    0.35
   8   6  16    0.25    0.33
  14  -8  16    0.08    0.26
   8 -14 -16    1.03    0.62
 -14   8  16    0.43    0.60
  -6  14  16   -0.50    0.45
   6   8 -16   -0.12    0.39
  14  -5  16    2.57    0.59
  -9  14  16    4.32    1.00
  14  -9 -16    2.02    0.71
   9   5 -16    3.43    0.90
   5   9  16    3.82    0.84
   9 -14 -16    2.98    0.90
 -14   9  16    2.97    0.91
   9   5  16    2.46    0.66
  14  -9  16    3.54    0.62
  14  -5 -16    3.56    0.89
  -5  14  16    1.63    0.62
   5   9 -16    2.22    0.68
  14  -4  16    0.06    0.28
  10   4 -16    0.06    0.42
  14 -10 -16    0.78    0.51
   4  10  16    0.75    0.44
 -10  14  16    0.16    0.54
 -14  10  16    0.44    0.56
  14  -4 -16    0.02    0.37
  -4  14  16    0.36    0.40
  10 -14 -16    0.25    0.57
  10   4  16    0.48    0.40
  14 -10  16    0.77    0.34
  11   3 -16    3.16    0.82
   3  11  16    3.88    0.86
 -11  14  16    2.49    0.87
  14  -3  16    1.80    0.54
  14 -11 -16    2.43    0.65
  11 -14 -16    3.64    0.98
  11   3  16    2.43    0.61
  -3  14  16    3.15    0.81
 -14  11  16    4.35    1.01
  14 -11  16    3.55    0.58
  14  -3 -16    2.46    0.75
 -12  14  16    2.73    0.81
  14  -2  16    3.14    0.65
  14 -12 -16    1.94    0.70
   2  12  16    2.26    0.65
  12   2 -16    0.27    0.46
  12 -14 -16    1.65    0.72
 -14  12  16    2.06    0.83
  14 -12  16    1.88    0.39
  12   2  16    2.00    0.56
  -2  14  16    2.55    0.74
  14  -2 -16    2.03    0.69
  14 -13 -16    0.18    0.45
  14  -1  16   -0.24    0.29
  13   1 -16   -0.21    0.43
 -13  14  16    0.32    0.51
   1  13  16    0.62    0.44
  13 -14 -16    0.58    0.51
 -14  13  16   -0.24    0.55
  13   1  16   -0.16    0.27
  14  -1 -16   -0.43    0.42
  -1  14  16    0.50    0.40
   0  14  16    5.73    1.13
  14   0  16    5.26    0.86
  14   0 -16    5.33    1.05
  14 -14 -16    3.59    0.88
 -14  14  16    4.77    1.16
  -8  15  16   -0.02    0.48
  15  -7  16    0.13    0.25
   8   7 -16   -0.40    0.45
  15  -8 -16   -0.01    0.39
   7   8  16   -0.20    0.29
 -15   7  16    0.27    0.73
   7 -15 -16   -0.61    0.38
   8   7  16    0.34    0.36
   8 -15 -16    0.20    0.59
  15  -7 -16   -0.08    0.38
   7   8 -16    0.06    0.45
  15  -8  16   -0.34    0.24
 -15   8  16   -0.25    0.56
  -7  15  16   -0.29    0.49
  15  -6  16    2.39    0.55
  15  -9 -16    1.26    0.59
   9   6 -16    0.41    0.48
   6   9  16    1.34    0.54
  -9  15  16    1.37    0.65
   6   9 -16    1.05    0.54
 -15   9  16    0.92    0.74
  15  -9  16    1.37    0.39
   9   6  16    2.25    0.61
  15  -6 -16    2.59    0.75
   9 -15 -16    0.32    0.51
  -6  15  16    0.38    0.64
  10   5 -16    0.80    0.53
  15 -10 -16    0.56    0.43
  15  -5  16    0.81    0.36
 -10  15  16    2.54    0.74
   5  10  16    0.61    0.39
  -5  15  16    1.23    0.56
  10 -15 -16    0.62    0.57
  15  -5 -16    1.45    0.64
  10   5  16    1.28    0.47
   5  10 -16    0.94    0.58
 -15  10  16    1.06    0.72
  15 -10  16    0.83    0.33
  11   4 -16   -0.09    0.42
 -11  15  16   -1.15    0.47
  15 -11 -16    0.23    0.43
   4  11  16    0.01    0.40
  15  -4  16    0.23    0.33
  15  -4 -16    1.19    0.54
  11 -15 -16   -0.46    0.43
  15 -11  16   -0.32    0.23
  -4  15  16    0.09    0.41
 -15  11  16   -0.48    0.44
  11   4  16    0.26    0.31
  15 -12 -16    0.66    0.47
   3  12  16    1.82    0.64
  15  -3  16    1.10    0.41
  12   3 -16    1.86    0.59
 -12  15  16    0.61    0.53
  12 -15 -16    0.22    0.52
  -3  15  16    1.12    0.51
 -15  12  16    0.96    0.72
  12   3  16    0.55    0.37
  15  -3 -16    1.06    0.54
  15 -12  16    1.67    0.40
  15  -2  16    2.38    0.61
  13   2 -16    3.18    0.88
  15 -13 -16    2.59    0.78
   2  13  16    3.03    0.80
 -13  15  16    2.82    0.83
  13   2  16    2.11    0.57
  13 -15 -16    1.42    0.73
 -15  13  16    3.61    0.98
  -2  15  16    1.16    0.49
  15  -2 -16    2.18    0.73
  15  -1  16   -0.42    0.26
  15 -14 -16    0.95    0.55
   1  14  16    0.05    0.43
  14   1 -16   -0.27    0.48
 -14  15  16   -0.60    0.46
  -1  15  16    0.71    0.50
 -15  14  16   -0.39    0.49
  14 -15 -16   -0.33    0.44
  15  -1 -16   -0.60    0.46
  14   1  16    0.34    0.33
  15   0  16    0.70    0.38
 -15  15  16    0.63    0.62
  15 -15 -16    1.84    0.79
   0  15  16    0.73    0.49
  15   0 -16    0.96    0.55
   8 -16 -16    0.58    0.53
   8   8  16    0.68    0.41
   8   8 -16    1.20    0.58
  -8  16  16    0.21    0.54
 -16   8  16    0.60    0.73
  16  -8  16    1.23    0.39
  16  -8 -16   -0.40    0.42
  16  -9 -16   -0.20    0.43
   7 -16 -16    0.59    0.65
  -9  16  16   -0.66    0.51
   7   9  16   -0.07    0.36
  16  -7  16    0.31    0.34
   9   7 -16    0.24    0.42
   9 -16 -16   -0.20    0.45
   7   9 -16    0.08    0.46
  -7  16  16    0.34    0.61
 -16   9  16    0.39    0.67
  16  -7 -16   -0.79    0.37
   9   7  16    0.11    0.32
  16  -9  16    0.35    0.27
   6  10  16    0.98    0.44
  10   6 -16    0.70    0.59
  16 -10 -16    0.33    0.48
 -10  16  16   -0.16    0.54
  16  -6  16    1.07    0.39
  10   6  16    0.57    0.39
  10 -16 -16    1.31    0.71
 -16  10  16    0.48    0.65
   6  10 -16    1.42    0.62
  -6  16  16    0.97    0.68
  16  -6 -16    1.51    0.66
  -6  16  16    2.11    0.75
  16 -10  16    1.60    0.43
   5  11  16    0.70    0.49
  11   5 -16    0.32    0.51
  16 -11 -16    0.90    0.57
  16  -5  16    0.61    0.31
 -11  16  16    0.17    0.63
  -5  16  16    0.35    0.44
  11   5  16    0.40    0.39
   5  11 -16    1.41    0.58
  16  -5 -16    0.79    0.50
 -16  11  16    1.61    0.76
  16 -11  16    1.04    0.36
  11 -16 -16    0.65    0.65
  16 -12 -16   -0.94    0.43
  12   4 -16   -0.31    0.46
 -12  16  16   -0.12    0.53
   4  12  16   -0.48    0.33
  16  -4  16    0.14    0.30
  16  -4 -16    0.18    0.47
  12   4  16   -0.12    0.30
  12 -16 -16    0.16    0.53
  -4  16  16    0.90    0.46
  16 -12  16   -0.28    0.21
 -16  12  16   -0.39    0.52
 -13  16  16    0.44    0.63
  13   3 -16    0.60    0.59
  16 -13 -16    0.18    0.53
  16  -3  16    0.73    0.36
   3  13  16    0.59    0.45
  13 -16 -16    0.09    0.51
  16 -13  16    0.91    0.34
 -16  13  16    0.30    0.61
  -3  16  16    0.86    0.52
  16  -3 -16    0.43    0.49
  13   3  16    0.66    0.39
  16  -2  16    3.10    0.63
  16 -14 -16    2.00    0.75
  14   2 -16    3.17    0.86
 -14  16  16    2.24    0.83
   2  14  16    1.32    0.56
 -16  14  16    2.05    0.78
  14 -16 -16    3.06    0.90
  14   2  16    1.91    0.56
  -2  16  16    1.71    0.60
  16  -2 -16    1.49    0.59
 -15  16  16    0.50    0.67
   1  15  16    0.58    0.42
  16  -1  16   -0.03    0.29
  16 -15 -16    0.42    0.46
  15   1 -16   -1.10    0.44
  16  -1 -16    0.56    0.52
  -1  16  16    1.36    0.60
 -16  15  16    0.17    0.57
  15   1  16   -0.31    0.28
   8   9  16   -0.15    0.30
  17  -9 -16    0.13    0.46
 -17   8  16    0.19    0.70
   8 -17 -16   -0.87    0.45
   9   8 -16   -0.22    0.49
  -9  17  16    0.78    0.61
  17  -8  16    0.59    0.35
   9 -17 -16    0.28    0.57
   8   9 -16   -0.58    0.44
 -17   9  16    0.13    0.66
   9   8  16    0.29    0.35
  -8  17  16   -0.53    0.57
  17  -9  16    0.71    0.37
  17  -8 -16    0.09    0.44
   7  10  16   -0.20    0.31
  10   7 -16   -0.02    0.53
  17 -10 -16    0.25    0.49
 -10  17  16    0.33    0.60
  17  -7  16    0.12    0.31
  10   7  16   -0.20    0.32
  -7  17  16   -0.96    0.63
  10 -17 -16    1.25    0.67
  17 -10  16    0.27    0.28
 -17  10  16    0.36    0.63
   7  10 -16   -0.85    0.45
  11   6 -16    0.50    0.52
   6  11  16    0.76    0.41
 -11  17  16    0.92    0.70
  17 -11 -16   -0.08    0.51
  17  -6  16    0.14    0.30
 -17  11  16    0.97    0.70
  17 -11  16    0.29    0.29
  11 -17 -16    2.36    0.81
  -6  17  16    0.54    0.42
   6  11 -16   -0.18    0.46
  17  -6 -16    0.35    0.53
  11   6  16    0.39    0.38
  17  -5  16    0.30    0.30
 -12  17  16    0.97    1.00
   5  12  16    1.09    0.43
  12   5 -16    1.16    0.51
  17 -12 -16    0.04    0.53
  12   5  16    0.00    0.34
 -17  12  16    0.71    0.67
  12 -17 -16    0.30    0.61
  17  -5 -16    0.14    0.57
  -5  17  16    0.29    0.46
  17 -12  16    0.81    0.33
  17 -13 -16   -0.29    0.46
  13   4 -16    0.23    0.50
  17  -4  16    0.16    0.30
 -13  17  16   -0.33    0.54
   4  13  16   -0.28    0.36
  17 -13  16   -0.07    0.24
  13 -17 -16   -0.22    0.51
 -17  13  16    0.11    0.52
  13   4  16    0.04    0.31
  17  -4 -16    0.11    0.50
  -4  17  16   -0.58    0.39
  14   3 -16    1.81    0.82
   3  14  16    1.37    0.50
 -14  17  16    2.29    0.97
  17 -14 -16    2.14    0.74
  -3  17  16    1.90    0.65
 -17  14  16    1.41    0.78
  14   3  16    2.87    0.63
  17  -3 -16    2.38    0.73
  -9  18  16    0.73    0.71
 -18   9  16    1.12    0.82
  18  -9  16    0.45    0.33
   9   9  16    0.48    0.37
   9   9 -16    0.11    0.59
   9 -18 -16   -0.68    0.48
  18  -9 -16    0.43    0.49
  18  -8  16    0.32    0.27
 -10  18  16    0.06    0.63
  18 -10 -16   -0.96    0.46
   8 -18 -16   -0.45    0.51
   8  10  16   -0.06    0.36
  10   8 -16    0.04    0.53
 -18   8  16   -0.14    0.74
 -18  10  16   -0.55    0.57
   8  10 -16    0.39    0.53
  10 -18 -16    0.54    0.56
  -8  18  16    0.24    0.67
  18 -10  16    0.67    0.33
  10   8  16    0.21    0.39
  18 -11 -16    1.12    0.54
 -11  18  16   -0.34    0.59
   7  11  16    1.03    0.47
  11   7 -16    0.45    0.54
  -7  18  16    0.38    0.52
  -7  18  16   -0.55    0.66
   7  11 -16   -0.27    0.50
  11   7  16    0.37    0.34
 -18  11  16    0.48    0.71
  18 -11  16    0.65    0.31
   0   0  17    0.37    0.30
  -1   1  17    0.00    0.27
   1   0  17   -0.34    0.25
   0   1  17   -0.20    0.27
   1  -1  17    0.18    0.28
   0  -1  17   -0.20    0.22
  -1   0  17    0.07    0.30
  -2   1  17   11.41    1.20
  -1   2  17   10.72    1.22
   1   1  17    9.43    1.17
   1  -2  17   11.61    1.14
   2  -1  17    8.82    1.08
  -1  -1  17   10.59    1.12
   2  -2  17   -0.05    0.25
  -2   0  17    0.46    0.32
   0   2  17    0.09    0.31
   2   0  17   -0.33    0.25
   0  -2  17    0.10    0.24
  -2   2  17    0.04    0.30
  -2   3  17    1.56    0.52
   1   2  17    1.93    0.59
  -3   1  17    2.07    0.56
  -1  -2  17    2.48    0.52
   3  -1  17    1.52    0.50
   2  -3  17    1.94    0.46
   3  -2  17    1.94    0.48
  -3   2  17    1.41    0.49
   2   1  17    1.66    0.53
  -1   3  17    1.23    0.49
   1  -3  17    1.10    0.40
  -2  -1  17    1.74    0.48
   0   3  17    0.04    0.31
   3   0  17   -0.28    0.25
   3  -3  17   -0.05    0.27
  -3   3  17    0.00    0.24
   0  -3  17    0.36    0.25
  -3   0  17   -0.34    0.24
   4  -2  17    4.15    0.77
   2  -4  17    3.72    0.62
  -2   4  17    4.91    0.89
  -4   2  17    3.72    0.73
   2   2  17    5.35    0.92
   3  -4  17    8.07    0.92
   4  -1  17    6.94    0.98
   1   3  17    7.92    1.12
  -4   1  17    7.16    0.98
  -3   4  17    8.09    1.13
   4  -3  17    5.30    0.81
  -1   4  17    6.96    1.08
   3   1  17    6.55    0.99
  -4   3  17    8.38    1.10
  -3  -1  17    8.97    1.00
   0   4  17   -0.04    0.32
   4   0  17    0.11    0.31
   4  -4  17   -0.03    0.23
  -4   4  17   -0.28    0.25
  -4   0  17   -0.22    0.25
   5  -2  17    2.12    0.53
   2   3  17    1.78    0.58
  -5   2  17    1.76    0.55
  -3   5  17    1.34    0.52
  -2   5  17    1.59    0.57
   3   2  17    2.31    0.61
   5  -3  17    1.64    0.47
  -5   3  17    1.67    0.52
   5  -1  17   17.71    1.40
   1   4  17   18.39    1.58
  -5   1  17   18.63    1.41
   4  -5  17   18.24    1.25
  -4   5  17   17.44    1.51
   4   1  17   19.78    1.52
   5  -4  17   16.55    1.27
  -1   5  17   18.44    1.58
   5  -5  17   -0.02    0.24
   5   0  17   -0.16    0.25
   0   5  17   -0.25    0.31
  -3   6  17   17.24    1.67
   6  -3  17   19.19    1.40
   6  -3 -17   16.42    1.69
   3   3  17   17.78    1.54
   6  -4 -17    2.13    0.65
   2   4  17    1.56    0.55
   6  -2  17    1.62    0.51
  -4   6  17    2.26    0.65
   4   2  17    2.79    0.67
  -2   6  17    2.01    0.64
   6  -4  17    2.85    0.57
   6  -2 -17    2.40    0.54
   1   5  17    0.99    0.52
   6  -1  17    1.48    0.51
   5  -6  17    1.29    0.35
   6  -5 -17    1.74    0.59
  -6   1  17    1.17    0.40
   6  -5  17    0.43    0.27
  -1   6  17    1.16    0.53
   6  -1 -17    1.62    0.47
   5   1  17    1.31    0.49
   6  -6 -17    0.91    0.51
   6   0  17    0.20    0.33
   6  -6  17   -0.21    0.19
   6   0 -17   -0.18    0.27
   0   6  17   -0.10    0.35
   7  -4 -17    1.70    0.60
   7  -3  17    1.45    0.44
  -4   7  17    0.70    0.44
   3   4  17    1.05    0.51
   4   3  17    0.66    0.41
  -7   4  17    0.96    0.56
   7  -4  17    1.89    0.50
   7  -3 -17    1.06    0.46
  -3   7  17    0.84    0.46
   2   5  17    4.42    0.91
   7  -5 -17    4.71    0.97
   7  -2  17    6.14    0.92
   7  -5  17    6.22    0.82
   7  -2 -17    4.44    0.86
   7  -2 -17    5.55    0.94
  -7   5  17    6.41    1.00
   5   2  17    5.93    0.98
  -2   7  17    6.49    1.11
   7  -6 -17    1.60    0.61
   1   6  17    1.42    0.57
   6   1 -17    1.91    0.57
   7  -1  17    1.50    0.51
  -1   7  17    1.53    0.57
  -7   6  17    2.27    0.65
   7  -6  17    1.64    0.43
   6  -7 -17    2.05    0.65
   6   1  17    0.74    0.47
   7  -1 -17    1.52    0.50
   7   0  17    0.46    0.35
   7   0 -17    0.36    0.34
   0   7  17    0.00    0.34
  -7   7  17    0.21    0.41
   7  -7  17   -0.21    0.21
   7  -7 -17   -0.42    0.34
   8  -4  17   32.97    1.95
   4   4  17   32.14    2.17
  -8   4  17   29.23    2.10
  -4   8  17   30.39    2.23
   8  -3  17    1.23    0.45
   3   5  17    1.03    0.50
   8  -5 -17    0.35    0.41
   5   3  17    1.01    0.48
   8  -3 -17    1.07    0.51
   8  -3 -17    1.16    0.46
   8  -5  17    0.59    0.37
  -3   8  17    1.41    0.56
  -8   5  17    0.52    0.55
   2   6  17    0.36    0.34
   8  -2  17    1.81    0.52
   8  -6 -17    1.16    0.59
   6   2 -17    1.32    0.47
   8  -6  17    2.15    0.49
   8  -2 -17    1.29    0.51
  -8   6  17    2.02    0.67
   6  -8 -17    1.52    0.58
   6   2  17    1.00    0.51
   8  -2 -17    1.28    0.52
  -2   8  17    1.08    0.51
   7   1 -17    4.04    0.77
   8  -7 -17    4.55    0.96
   8  -1  17    3.37    0.70
  -7   8  17    3.98    0.85
   1   7  17    3.43    0.84
  -8   7  17    5.34    0.98
   8  -1 -17    5.02    0.89
   7  -8 -17    3.90    0.94
  -1   8  17    3.32    0.81
   8  -7  17    4.29    0.69
   7   1  17    5.51    0.92
   8   0 -17    0.07    0.35
  -8   8  17    0.24    0.42
   8   0  17   -0.08    0.28
   0   8  17    0.42    0.42
   8  -8  17   -0.19    0.23
   8  -8 -17    0.10    0.42
   9  -5 -17   -0.11    0.42
   4   5  17    1.13    0.47
   9  -4  17    0.38    0.31
   9  -4 -17   -0.10    0.36
  -9   5  17    0.82    0.52
  -4   9  17    0.62    0.46
   5   4  17    1.29    0.56
   9  -5  17    0.73    0.34
   6   3 -17    4.94    0.87
   9  -3  17    5.04    0.82
   9  -6 -17    3.49    0.83
   3   6  17    3.64    0.82
   9  -3 -17    2.76    0.71
  -9   6  17    4.09    0.87
   9  -3 -17    4.26    0.82
  -3   9  17    5.12    0.99
   6  -9 -17    3.35    0.88
   6   3  17    4.69    0.89
   9  -6  17    4.10    0.70
  -7   9  17    1.03    0.48
   9  -2  17    1.02    0.40
   7   2 -17    0.79    0.43
   2   7  17    1.23    0.58
   9  -7 -17    1.21    0.60
   7  -9 -17    0.56    0.54
  -2   9  17    0.87    0.50
  -9   7  17    1.61    0.61
   9  -7  17    0.77    0.30
   7   2  17    0.99    0.48
   9  -2 -17    1.27    0.48
   9  -8 -17    2.15    0.68
   9  -1  17    1.45    0.51
   1   8  17    1.62    0.64
   8   1 -17    2.57    0.70
  -8   9  17    2.68    0.72
   9  -8  17    1.57    0.43
   8   1  17    1.67    0.52
   8  -9 -17    2.92    0.79
  -1   9  17    2.19    0.68
   9  -1 -17    1.29    0.51
  -9   8  17    2.11    0.69
   9   0 -17   -0.29    0.30
   9  -9 -17   -0.19    0.39
   9   0  17    0.15    0.33
  -9   9  17   -0.03    0.40
   0   9  17    0.30    0.35
 -10   5  17    4.37    1.01
  10  -5  17    3.55    0.66
   5   5  17    4.74    0.95
  10  -5 -17    5.97    1.07
  -5  10  17    2.76    0.77
   4   6  17    1.18    0.52
  10  -4  17    1.99    0.49
  10  -6 -17    1.37    0.58
   6   4 -17    2.16    0.58
  10  -4 -17    2.05    0.64
   6 -10 -17    1.03    0.64
  -4  10  17    1.33    0.56
   6   4  17    1.64    0.56
  10  -4 -17    1.32    0.47
 -10   6  17    1.31    0.65
  10  -6  17    1.44    0.44
  -7  10  17    0.67    0.53
  10  -3  17    0.67    0.36
   3   7  17   -0.17    0.32
  10  -7 -17    0.01    0.35
   7   3 -17    0.66    0.43
   7 -10 -17    0.77    0.50
   7   3  17    1.19    0.44
  10  -3 -17    0.66    0.39
 -10   7  17   -0.12    0.45
  10  -7  17   -0.07    0.22
  -3  10  17    1.08    0.52
  10  -8 -17    5.66    1.11
   2   8  17    3.42    0.84
  -8  10  17    5.01    1.02
  10  -2  17    4.42    0.82
   8   2 -17    5.47    0.97
  10  -8  17    3.73    0.63
   8   2  17    3.45    0.76
   8 -10 -17    3.49    0.96
 -10   8  17    3.18    0.86
  10  -2 -17    3.17    0.78
  -2  10  17    3.83    0.85
  -9  10  17    2.18    0.71
  10  -9 -17    2.94    0.80
   9   1 -17    2.43    0.66
   1   9  17    1.80    0.65
  10  -1  17    1.87    0.51
   9   1  17    1.70    0.53
  10  -9  17    2.42    0.47
 -10   9  17    2.21    0.72
  10  -1 -17    2.34    0.64
   9 -10 -17    1.53    0.73
  -1  10  17    1.20    0.55
 -10  10  17    0.20    0.42
   0  10  17   -0.12    0.37
  10   0  17    0.35    0.30
  10 -10 -17    0.34    0.40
  11  -5  17    1.35    0.44
   5   6  17    0.70    0.48
   6   5 -17    0.47    0.43
  11  -6 -17   -0.21    0.44
   6   5  17    0.90    0.41
  11  -5 -17    0.87    0.50
   6 -11 -17    1.18    0.54
  11  -6  17    0.68    0.34
 -11   6  17    1.70    0.71
  -5  11  17    1.90    0.68
  11  -7 -17    1.51    0.62
  11  -4  17    2.02    0.53
  -7  11  17    2.02    0.67
   4   7  17    1.66    0.58
   7   4 -17    2.33    0.67
  11  -4 -17    2.39    0.61
   7 -11 -17    2.53    0.83
  11  -7  17    2.36    0.52
   7   4  17    1.36    0.50
  -4  11  17    1.92    0.63
 -11   7  17    1.36    0.66
  11  -4 -17    2.70    0.74
   8   3 -17    2.25    0.69
  -8  11  17    2.23    0.68
  11  -8 -17    1.93    0.72
  11  -3  17    2.69    0.63
   3   8  17    1.41    0.58
   8 -11 -17    1.13    0.65
  11  -3 -17    2.64    0.75
  11  -8  17    1.38    0.42
   8   3  17    2.15    0.62
  -3  11  17    2.17    0.67
 -11   8  17    1.27    0.66
  11  -9 -17   -0.29    0.40
   2   9  17    0.29    0.38
   9   2 -17    0.21    0.40
  -9  11  17    0.72    0.50
  11  -2  17    0.24    0.29
  11  -9  17    0.30    0.24
   9   2  17   -0.17    0.28
  11  -2 -17    1.10    0.49
  -2  11  17    0.23    0.41
 -11   9  17    0.06    0.45
   9 -11 -17    0.28    0.46
  11 -10 -17    6.25    1.18
   1  10  17    6.62    1.14
  10   1 -17    7.02    1.18
  11  -1  17    4.80    0.84
 -10  11  17    7.16    1.22
 -11  10  17    5.03    1.11
  10   1  17    5.83    0.98
  10 -11 -17    4.60    1.07
  -1  11  17    6.34    1.18
  11  -1 -17    6.15    1.11
  11 -11 -17    0.77    0.48
  11   0 -17    0.07    0.37
   0  11  17   -0.12    0.40
 -11  11  17   -0.47    0.47
  11   0  17   -0.02    0.30
   6 -12 -17    2.43    0.85
 -12   6  17    4.39    1.05
  12  -6  17    3.26    0.62
  12  -6 -17    2.32    0.71
   6   6  17    3.88    0.87
  12  -7 -17    2.01    0.67
   7   5 -17    2.60    0.73
   5   7  17    1.97    0.56
  12  -5  17    1.93    0.49
  -7  12  17    2.72    0.75
   7   5  17    1.81    0.62
  -5  12  17    1.10    0.47
  12  -7  17    1.87    0.48
  12  -5 -17    1.99    0.67
   7 -12 -17    2.14    0.81
  12  -5 -17    2.40    0.74
 -12   7  17    1.49    0.72
  -8  12  17    2.29    0.77
  12  -4  17    3.03    0.63
  12  -8 -17    2.79    0.81
   8   4 -17    2.58    0.69
   4   8  17    2.17    0.68
   8 -12 -17    1.36    0.63
  -4  12  17    2.09    0.65
  12  -8  17    2.07    0.47
 -12   8  17    2.00    0.77
   8   4  17    2.17    0.59
  12  -4 -17    1.45    0.56
   3   9  17    1.37    0.54
   9   3 -17    0.01    0.42
  12  -9 -17    0.97    0.50
  -9  12  17   -0.15    0.48
  12  -3  17    1.15    0.43
 -12   9  17    0.26    0.58
  12  -3 -17    1.67    0.56
  12  -9  17    1.32    0.38
  -3  12  17    0.80    0.43
   9   3  17    1.56    0.50
   9 -12 -17    1.02    0.54
  12 -10 -17    0.71    0.55
  12  -2  17    0.90    0.42
 -10  12  17    1.38    0.56
   2  10  17    0.76    0.46
  10   2 -17    0.83    0.49
  12  -2 -17    0.56    0.47
  10   2  17    0.38    0.41
  -2  12  17   -0.38    0.29
  10 -12 -17    0.47    0.63
  12 -10  17    0.61    0.27
 -12  10  17    0.51    0.56
   1  11  17    0.75    0.42
  12  -1  17    0.39    0.36
  11   1 -17    0.54    0.40
  12 -11 -17    0.45    0.47
 -11  12  17    0.31    0.49
  12  -1 -17    0.43    0.42
  -1  12  17    0.36    0.38
 -12  11  17   -0.04    0.49
  11   1  17   -0.23    0.28
  11 -12 -17   -0.21    0.43
  12   0 -17    0.48    0.40
   0  12  17    0.85    0.48
  12 -12 -17   -0.85    0.38
  12   0  17   -0.14    0.28
 -12  12  17   -0.31    0.47
   7   6 -17    0.57    0.47
  13  -7 -17    0.60    0.42
 -13   6  17   -0.25    0.63
  13  -6  17    0.31    0.28
   6   7  17    0.12    0.35
   7 -13 -17    0.33    0.54
   7   6  17   -0.04    0.35
  13  -7  17    0.55    0.28
  13  -6 -17    0.90    0.51
 -13   7  17    0.44    0.62
  13  -5  17    3.66    0.68
   5   8  17    3.52    0.83
  -8  13  17    3.78    0.92
   8   5 -17    2.43    0.74
  13  -8 -17    3.62    0.85
  -5  13  17    2.73    0.77
  13  -5 -17    4.40    1.00
 -13   8  17    3.50    0.96
   8   5  17    3.30    0.74
  13  -8  17    3.41    0.62
   8 -13 -17    3.91    0.99
  -9  13  17    1.26    0.63
  13  -4  17   -0.06    0.29
   4   9  17    1.61    0.56
  13  -9 -17    1.35    0.58
   9   4  17    0.65    0.36
  13  -4 -17    0.46    0.42
  13  -9  17    1.26    0.41
 -13   9  17   -0.26    0.53
   9 -13 -17    0.54    0.50
  -4  13  17    1.08    0.51
  13 -10 -17    0.90    0.54
 -10  13  17    0.83    0.66
   3  10  17    1.60    0.56
  13  -3  17    0.99    0.42
  10   3 -17    1.35    0.56
  -3  13  17    1.77    0.62
  10 -13 -17    2.09    0.78
  13 -10  17    1.45    0.43
 -13  10  17    2.18    0.76
  13  -3 -17    1.69    0.55
  10   3  17    1.49    0.48
   2  11  17    0.00    0.38
 -11  13  17    1.66    0.64
  13 -11 -17    1.29    0.57
  11   2 -17    0.16    0.51
  13  -2  17    0.58    0.39
  13  -2 -17    1.35    0.48
 -13  11  17    0.40    0.56
  11 -13 -17    1.02    0.57
  11   2  17    1.71    0.55
  -2  13  17    0.73    0.43
  13 -12 -17    3.01    0.85
  13  -1  17    1.60    0.47
  12   1 -17    2.71    0.74
 -12  13  17    4.25    0.94
   1  12  17    3.11    0.79
  -1  13  17    3.78    0.91
  13  -1 -17    1.69    0.66
  12 -13 -17    2.29    0.79
  12   1  17    2.47    0.59
 -13  12  17    1.62    0.77
 -13  13  17   -0.13    0.51
   0  13  17    0.01    0.38
  13   0 -17   -0.26    0.45
  13   0  17   -0.10    0.30
  13 -13 -17   -0.03    0.43
  14  -7  17    1.10    0.41
   7   7  17    0.98    0.48
  14  -7 -17    0.30    0.36
   7   7 -17    0.12    0.45
   7 -14 -17    0.86    0.57
 -14   7  17    1.40    0.75
   6   8  17    0.89    0.38
  -8  14  17   -0.13    0.45
  14  -8 -17    0.94    0.52
   8   6 -17    0.96    0.51
  14  -6  17    0.43    0.32
 -14   8  17    0.24    0.58
   8 -14 -17    0.10    0.57
  14  -6 -17    0.37    0.44
  -6  14  17    0.51    0.44
  14  -8  17    0.06    0.28
   8   6  17    0.14    0.30
   9   5 -17    0.03    0.46
   5   9  17    0.92    0.45
  14  -9 -17    0.13    0.46
  14  -5  17    0.87    0.40
  -9  14  17   -0.34    0.53
  -5  14  17   -0.05    0.40
 -14   9  17    0.28    0.61
   9 -14 -17   -0.01    0.52
  14  -9  17    0.55    0.31
   9   5  17    0.31    0.32
  14  -5 -17    0.64    0.46
 -10  14  17   -0.52    0.50
  14  -4  17   -0.15    0.25
  10   4 -17    0.64    0.43
   4  10  17   -0.73    0.27
  14 -10 -17    0.10    0.44
  -4  14  17    0.17    0.40
  10   4  17   -0.07    0.28
  14 -10  17    0.43    0.29
  14  -4 -17   -0.57    0.39
  10 -14 -17    0.63    0.51
 -14  10  17   -0.27    0.52
  14 -11 -17   -0.23    0.39
  11   3 -17    0.28    0.55
   3  11  17    0.99    0.53
 -11  14  17    1.08    0.58
  14  -3  17    0.28    0.35
  -3  14  17    0.83    0.43
  14 -11  17    0.42    0.29
 -14  11  17   -0.10    0.53
  14  -3 -17   -0.62    0.38
  11   3  17    0.55    0.40
  11 -14 -17   -0.22    0.43
  12   2 -17   -0.29    0.44
   2  12  17    0.92    0.53
 -12  14  17   -0.36    0.53
  14 -12 -17   -0.21    0.47
  14  -2  17    0.66    0.35
  -2  14  17    0.18    0.40
  14  -2 -17    0.67    0.44
  12 -14 -17    0.60    0.52
 -14  12  17    0.54    0.56
  12   2  17    1.00    0.46
  14  -1  17    0.68    0.43
   1  13  17    0.14    0.41
 -13  14  17    0.02    0.58
  13   1 -17    0.03    0.46
  14 -13 -17    1.26    0.66
  -1  14  17    0.42    0.46
  13   1  17   -0.08    0.36
 -14  13  17    2.22    0.83
  13 -14 -17    1.03    0.66
  14  -1 -17    0.90    0.56
 -14  14  17   -0.84    0.45
   0  14  17    0.20    0.45
  14   0  17   -0.15    0.26
  14   0 -17   -0.07    0.47
  14 -14 -17    0.73    0.51
   7   8  17    1.03    0.49
 -15   7  17    1.68    0.85
  15  -7  17    1.57    0.48
   8   7 -17    1.87    0.69
  -8  15  17    0.30    0.56
  15  -8 -17    1.40    0.55
  15  -7 -17    1.44    0.54
  15  -8  17    1.66    0.47
   7   8 -17    0.33    0.52
   8 -15 -17   -0.51    0.46
 -15   8  17    1.22    0.73
   8   7  17    2.03    0.61
   9   6 -17    1.80    0.73
  15  -9 -17    2.62    0.72
  15  -6  17    1.78    0.51
  -9  15  17    1.71    0.71
   6   9  17    1.74    0.62
   9 -15 -17    3.20    0.92
  15  -9  17    2.48    0.53
  -6  15  17    2.36    0.69
   9   6  17    1.81    0.55
 -15   9  17    3.03    0.92
  15 -10 -17    0.90    0.53
  15  -5  17    0.91    0.37
 -10  15  17   -0.25    0.53
   5  10  17    0.04    0.37
  10   5 -17    0.46    0.58
 -15  10  17    0.80    0.65
  10 -15 -17    0.27    0.51
  -5  15  17   -0.02    0.36
  15  -5 -17    0.41    0.49
  10   5  17    0.19    0.36
  15 -10  17    0.35    0.28
   4  11  17    3.45    0.80
  11   4 -17    3.77    0.83
  15 -11 -17    4.50    1.01
  15  -4  17    4.66    0.80
 -11  15  17    3.45    0.94
  11   4  17    3.51    0.77
  15 -11  17    3.29    0.57
  15  -4 -17    4.38    0.96
 -15  11  17    3.37    1.00
  11 -15 -17    2.09    0.83
  -4  15  17    3.99    0.88
  15  -3  17    1.67    0.47
  15 -12 -17    0.85    0.58
 -12  15  17    1.12    0.66
  12   3 -17    0.96    0.59
   3  12  17    1.34    0.53
  12 -15 -17    1.94    0.74
  12   3  17    0.62    0.41
  -3  15  17    1.48    0.62
 -15  12  17    0.46    0.65
  15  -3 -17   -0.04    0.53
  13   2 -17    0.61    0.56
  15  -2  17    0.49    0.35
   2  13  17   -0.21    0.41
 -13  15  17    0.82    0.64
  15 -13 -17    0.33    0.50
  -2  15  17    0.37    0.42
 -15  13  17    0.53    0.53
  13   2  17    0.52    0.41
  15  -2 -17    1.13    0.53
  13 -15 -17    1.90    0.72
  15  -1  17    0.48    0.40
   1  14  17    0.65    0.52
 -14  15  17    1.49    0.73
  14   1 -17    2.16    0.77
  15 -14 -17    0.12    0.46
  14 -15 -17    0.19    0.56
  14   1  17    0.46    0.34
  -1  15  17    0.90    0.52
  15  -1 -17    0.01    0.50
 -15  14  17   -0.19    0.51
 -16   8  17    2.71    0.96
   8 -16 -17    3.92    1.00
   8   8  17    3.36    0.79
  16  -8  17    2.80    0.60
   8   8 -17    1.63    0.66
  16  -8 -17    1.57    0.64
  -8  16  17    2.71    0.94
  16  -7  17    0.10    0.29
 -16   7  17    0.76    0.83
   9   7 -17   -0.36    0.46
  -9  16  17   -0.50    0.58
   7   9  17   -0.71    0.33
  16  -9 -17    0.67    0.48
   9   7  17    0.36    0.36
   7   9 -17    0.46    0.57
 -16   9  17   -0.68    0.52
  16  -9  17    0.41    0.30
   9 -16 -17    0.76    0.60
  16  -6  17    1.18    0.45
  16 -10 -17    0.13    0.54
   6  10  17    0.79    0.47
  10   6 -17    0.13    0.58
 -10  16  17    0.33    0.58
 -16  10  17    1.51    0.76
  16 -10  17    1.03    0.39
  10 -16 -17    1.06    0.57
  16  -6 -17   -0.07    0.48
  -6  16  17    0.07    0.37
  10   6  17    0.58    0.40
   5  11  17    0.29    0.38
  16 -11 -17    0.37    0.44
  16  -5  17    0.80    0.38
 -11  16  17    0.03    0.66
  11   5 -17   -0.18    0.45
  11 -16 -17    0.71    0.69
  16  -5 -17    0.15    0.56
 -16  11  17    0.59    0.63
  16 -11  17   -0.09    0.25
  -5  16  17    0.63    0.44
  11   5  17    0.40    0.37
  16  -4  17    1.36    0.47
   4  12  17    2.12    0.66
  12   4 -17    1.67    0.62
 -12  16  17    1.90    0.81
  16 -12 -17    1.52    0.63
  16  -4 -17    1.83    0.73
  -4  16  17    1.53    0.62
  12 -16 -17    0.78    0.63
 -16  12  17    0.73    0.70
  12   4  17    1.48    0.56
  16 -12  17    1.63    0.40
  13   3 -17    1.19    0.64
   3  13  17    0.73    0.51
 -13  16  17    0.29    0.58
  16 -13 -17    0.05    0.47
  16  -3 -17    0.42    0.48
  -3  16  17    0.83    0.49
 -16  13  17   -0.33    0.56
  13   3  17   -0.11    0.29
   8 -17 -17   -0.28    0.52
  17  -9 -17   -0.65    0.47
   9   8 -17    0.19    0.53
 -17   8  17    0.01    0.66
  -9  17  17   -0.47    0.62
   8   9  17   -0.58    0.29
  17  -8  17   -0.64    0.26
  -8  17  17   -0.70    0.66
   9 -17 -17    0.14    0.54
 -17   9  17    0.45    0.63
  17  -9  17    0.05    0.26
   8   9 -17   -0.07    0.48
   9   8  17    0.20    0.34
  17 -10 -17    1.16    0.54
  10   7 -17    1.19    0.60
 -10  17  17    1.35    0.74
 -17   7  17    0.30    0.86
   7  10  17   -0.02    0.42
  17  -7  17    0.68    0.34
 -17  10  17    0.68    0.71
  10   7  17    0.54    0.42
   7  10 -17    1.09    0.68
  17 -10  17    0.22    0.30
  -7  17  17   -0.26    0.43
  11   6 -17   -0.60    0.57
 -11  17  17    0.37    0.76
  17  -6 -17    1.83    0.77
 -17  11  17    1.03    0.75
   0   0  18   36.69    2.22
   0  -1  18    0.69    0.38
   0   1  18    0.64    0.40
  -1   1  18    0.94    0.43
   1  -1  18    0.17    0.32
   1   0  18    1.01    0.43
  -1   0  18    0.82    0.42
   1   1  18    7.86    1.09
  -1   2  18    8.64    1.16
  -2   1  18    8.20    1.09
   1  -2  18    9.19    1.06
  -1  -1  18   11.76    1.18
   2  -1  18    8.87    1.15
  -2   2  18    5.19    0.91
   0  -2  18    6.73    0.92
   2  -2  18    6.26    0.92
   0   2  18    6.66    1.03
  -2   0  18    6.61    0.96
   2   0  18    6.12    0.93
   1   2  18    1.17    0.49
   3  -1  18    1.52    0.52
   2  -3  18    2.12    0.51
  -3   1  18    1.59    0.48
  -2   3  18    1.48    0.53
  -1   3  18    2.23    0.65
   3  -2  18    1.70    0.53
  -2  -1  18    1.64    0.47
  -3   2  18    2.04    0.58
   1  -3  18    1.75    0.45
   2   1  18    1.78    0.61
   0   3  18   19.77    1.62
   3   0  18   20.78    1.57
  -3   0  18   21.05    1.50
   3  -3  18   17.70    1.36
  -3   3  18   18.52    1.56
  -2   4  18    5.84    0.99
   2   2  18    5.09    0.91
   4  -2  18    3.68    0.74
  -4   2  18    5.24    0.89
   1   3  18    0.77    0.44
   3  -4  18    1.67    0.44
   4  -1  18    0.28    0.30
  -4   1  18    0.15    0.32
  -3   4  18    1.66    0.50
  -1   4  18    0.80    0.38
  -4   3  18    0.78    0.43
   4  -3  18    0.90    0.40
   3   1  18    0.59    0.44
  -4   4  18    1.50    0.54
   4  -4  18    1.91    0.49
   0   4  18    0.76    0.50
   4   0  18    1.30    0.45
  -3   5  18    0.72    0.45
   5  -2  18    0.29    0.30
  -5   2  18    1.21    0.43
   2   3  18    1.56    0.60
  -5   3  18    0.66    0.44
  -2   5  18    1.04    0.48
   3   2  18    1.06    0.48
   5  -3  18    1.09    0.42
   1   4  18    5.06    0.95
  -5   1  18    4.23    0.76
   5  -1  18    4.86    0.84
  -4   5  18    4.25    0.84
   4  -5  18    3.79    0.63
   4   1  18    5.24    0.92
  -1   5  18    5.03    0.93
   5  -4  18    3.24    0.63
  -5   4  18    5.02    0.90
   5  -5  18    4.89    0.75
   0   5  18    4.90    0.98
   5   0  18    5.18    0.89
  -5   5  18    4.63    0.88
   6  -3  18    7.65    0.99
   3   3  18    7.00    1.10
  -3   6  18    5.93    1.02
  -6   3  18    5.65    0.93
   2   4  18    0.60    0.44
  -4   6  18    1.03    0.45
   6  -2  18    1.06    0.40
  -6   2  18    1.24    0.47
   6  -4  18    0.50    0.31
  -2   6  18    1.31    0.56
   4   2  18    0.85    0.44
   1   5  18    1.27    0.56
   6  -1  18    1.35    0.52
  -5   6  18    2.38    0.66
   5   1  18    2.24    0.62
  -1   6  18    2.39    0.65
   6  -5  18    2.40    0.54
   6   0  18    3.66    0.78
   6  -6  18    5.27    0.75
   0   6  18    5.24    0.99
   7  -3  18    0.06    0.27
  -4   7  18   -0.06    0.34
   7  -4 -18    0.10    0.38
   3   4  18    0.00    0.30
   4   3  18    0.04    0.41
   7  -3 -18    0.09    0.35
   7  -4  18   -0.26    0.22
  -3   7  18   -0.26    0.29
   7  -5 -18    8.17    1.27
   2   5  18    7.91    1.22
   7  -2  18    7.47    1.05
  -5   7  18    6.80    1.10
   7  -5  18   10.28    1.07
  -2   7  18    8.40    1.28
   5   2  18    8.02    1.17
   7  -6 -18    1.31    0.52
   7  -1  18    0.11    0.31
   1   6  18    1.14    0.53
  -1   7  18    0.49    0.39
   6   1  18    0.51    0.41
   7  -6  18    0.06    0.22
   7   0  18    7.50    1.06
   0   7  18    6.20    1.08
   7  -7 -18    7.04    1.22
  -4   8  18    6.24    1.09
   8  -4 -18    4.53    0.97
   8  -4  18    6.62    0.92
   4   4  18    6.28    1.08
   8  -3  18    1.05    0.41
   3   5  18    0.77    0.50
   8  -5 -18    0.08    0.43
  -5   8  18    1.85    0.62
   8  -3 -18    1.22    0.53
   5   3  18    1.59    0.53
  -3   8  18    0.61    0.42
   8  -5  18    1.28    0.40
   2   6  18   -0.05    0.33
   8  -6 -18    0.35    0.44
   8  -2  18    0.67    0.32
  -2   8  18    0.59    0.43
   8  -6  18    0.40    0.31
   8  -2 -18    0.64    0.43
   6   2  18    0.57    0.40
   8  -7 -18    3.32    0.88
   8  -1  18    2.65    0.66
   1   7  18    3.32    0.80
  -1   8  18    3.26    0.81
   7  -8 -18    3.92    0.91
   8  -1 -18    4.08    0.81
   7   1  18    4.82    0.87
   8  -7  18    3.86    0.65
   8  -8 -18    6.07    1.15
   8   0 -18    7.30    1.12
   8   0  18    6.52    1.00
   0   8  18    6.10    1.13
  -9   4  18    0.09    0.55
   4   5  18   -0.02    0.41
   9  -5 -18    0.06    0.42
  -5   9  18    0.84    0.45
   9  -4  18    0.71    0.35
  -9   5  18    0.87    0.58
  -4   9  18    0.17    0.39
   5   4  18    0.46    0.41
   9  -4 -18    0.81    0.47
   9  -5  18    0.50    0.31
   9  -6 -18    1.67    0.61
   3   6  18    2.45    0.72
   9  -3  18    2.04    0.52
   9  -3 -18    3.05    0.75
   9  -3 -18    2.25    0.66
  -9   6  18    3.73    0.86
   9  -6  18    2.25    0.56
   6   3  18    2.69    0.70
  -3   9  18    1.89    0.65
   9  -7 -18    2.54    0.78
   2   7  18    4.11    0.90
   9  -2  18    5.17    0.86
   9  -2 -18    4.93    0.95
   7   2  18    3.57    0.77
   7  -9 -18    3.02    0.81
  -9   7  18    3.63    0.85
   9  -7  18    4.49    0.73
  -2   9  18    4.75    1.00
   9  -8 -18    1.23    0.58
   1   8  18    0.80    0.54
   9  -1  18    1.56    0.51
   8   1 -18    1.62    0.58
   8   1  18    1.38    0.48
   9  -1 -18    0.87    0.53
   9  -8  18    2.65    0.53
  -1   9  18    1.46    0.58
   8  -9 -18    1.46    0.65
  -9   8  18    1.82    0.72
   9   0  18   15.32    1.56
   9   0 -18   16.30    1.72
   0   9  18   15.26    1.79
  -9   9  18   17.96    1.81
  10  -5 -18    1.46    0.61
 -10   5  18    2.48    0.78
   5   5  18    2.18    0.67
  10  -5  18    2.02    0.52
  -5  10  18    1.32    0.59
  10  -4  18    1.08    0.39
   4   6  18   -0.04    0.37
  10  -6 -18    0.17    0.47
  10  -6  18    1.32    0.41
  -4  10  18    1.69    0.62
  10  -4 -18    1.06    0.52
   6   4  18    1.35    0.52
 -10   6  18    0.93    0.57
  10  -3  18    0.65    0.36
   3   7  18   -0.33    0.35
  10  -7 -18    0.38    0.43
   7   3  18    0.12    0.31
   7 -10 -18    0.60    0.53
  10  -3 -18   -0.53    0.34
  10  -7  18    0.29    0.26
  -3  10  18    0.07    0.38
 -10   7  18    0.52    0.53
   8   2 -18    2.23    0.60
   2   8  18    0.41    0.40
  10  -8 -18    0.69    0.52
  10  -2  18    2.11    0.54
 -10   8  18    1.10    0.63
   8 -10 -18    0.67    0.58
  10  -8  18    0.48    0.36
  10  -2 -18    1.07    0.49
  -2  10  18    0.92    0.52
   8   2  18    1.18    0.50
   9   1 -18    0.99    0.48
  -9  10  18    0.05    0.50
  10  -1  18    0.99    0.38
   1   9  18    0.79    0.47
  10  -9 -18   -0.63    0.46
 -10   9  18    0.51    0.51
  -1  10  18    0.71    0.48
   9 -10 -18    0.64    0.63
   9   1  18    1.16    0.46
  10  -1 -18    0.62    0.46
 -10  10  18    2.66    0.79
  10   0 -18    2.85    0.73
  10   0  18    3.54    0.73
  10 -10 -18    1.98    0.69
   0  10  18    2.29    0.75
  11  -6 -18   -0.27    0.39
 -11   5  18    0.18    0.61
   5   6  18    0.29    0.36
  11  -5  18    0.84    0.34
   6   5  18    0.12    0.40
  -5  11  18    0.16    0.41
 -11   6  18    0.30    0.55
  11  -6  18   -0.11    0.30
  11  -5 -18    0.20    0.44
  11  -7 -18    0.42    0.41
   4   7  18    0.79    0.42
  11  -4  18    0.19    0.32
   7   4  18    0.44    0.42
  11  -7  18    0.22    0.28
   7 -11 -18    0.31    0.41
  11  -4 -18    0.62    0.47
 -11   7  18    0.52    0.59
  -4  11  18    0.12    0.38
  11  -8 -18    4.70    0.99
  11  -3  18    3.56    0.68
   8   3 -18    5.35    0.98
   3   8  18    4.64    0.98
  11  -3 -18    4.63    0.94
   8   3  18    3.84    0.80
 -11   8  18    4.74    1.04
  -3  11  18    3.93    0.93
   8 -11 -18    4.03    1.05
  11  -8  18    3.50    0.63
   9   2 -18    0.93    0.47
  -9  11  18    0.46    0.49
   2   9  18   -0.29    0.29
  11  -2  18    0.12    0.29
  11  -9 -18    0.45    0.41
 -11   9  18    0.38    0.52
  -2  11  18    0.70    0.43
  11  -9  18   -0.19    0.21
  11  -2 -18   -0.09    0.36
   9 -11 -18    0.11    0.43
   9   2  18    0.10    0.31
  11  -1  18    3.08    0.69
  10   1 -18    3.25    0.78
  11 -10 -18    1.90    0.73
   1  10  18    2.74    0.81
 -10  11  18    2.63    0.76
  10 -11 -18    2.44    0.80
  10   1  18    2.65    0.66
 -11  10  18    3.45    0.88
  -1  11  18    1.74    0.62
  11  -1 -18    3.40    0.76
   0  11  18    1.22    0.54
  11   0 -18    1.83    0.63
 -11  11  18    1.44    0.61
  11   0  18    1.43    0.53
  11 -11 -18    1.11    0.65
   6   6  18    0.73    0.48
  12  -6  18    1.94    0.51
 -12   6  18    1.06    0.77
  -6  12  18    1.99    0.71
  12  -6 -18    1.90    0.65
  12  -5  18    1.29    0.44
  12  -7 -18    2.11    0.67
   5   7  18    0.54    0.43
  -5  12  18    2.50    0.80
   7   5  18    1.32    0.53
 -12   7  18    1.12    0.70
   7 -12 -18    1.32    0.70
  12  -7  18    0.88    0.39
  12  -4  18    0.00    0.29
   8   4 -18    0.26    0.43
  12  -8 -18    0.52    0.46
   4   8  18   -0.48    0.35
   8 -12 -18   -0.25    0.43
   8   4  18   -0.37    0.29
  12  -4 -18    0.33    0.44
  -4  12  18   -0.33    0.27
 -12   8  18    0.43    0.57
  12  -8  18    0.26    0.24
  -9  12  18    3.92    1.02
  12  -9 -18    3.60    0.88
  12  -3  18    3.48    0.72
   3   9  18    3.20    0.80
   9   3 -18    2.68    0.79
  -3  12  18    3.90    0.94
 -12   9  18    2.51    0.85
  12  -9  18    5.07    0.75
   9   3  18    3.39    0.78
   9 -12 -18    3.05    0.89
  12  -3 -18    1.71    0.64
  10   2 -18    0.50    0.42
  12  -2  18    0.72    0.38
  12 -10 -18    0.12    0.43
 -10  12  18    0.89    0.56
   2  10  18   -0.23    0.33
  10   2  18   -0.17    0.34
  10 -12 -18    1.49    0.57
  12  -2 -18    1.54    0.63
 -12  10  18    0.88    0.62
  -2  12  18    0.61    0.44
   1  11  18   -0.06    0.33
  12  -1  18   -0.01    0.33
  11   1 -18    1.67    0.63
  12 -11 -18   -0.31    0.44
 -11  12  18   -0.03    0.49
  -1  12  18    0.55    0.48
  11 -12 -18   -0.32    0.46
  12  -1 -18    0.07    0.39
  11   1  18   -0.05    0.30
 -12  11  18    0.42    0.51
 -12  12  18    4.63    1.11
  12   0  18    5.20    0.90
  12 -12 -18    4.33    1.03
   0  12  18    4.16    0.98
  12   0 -18    4.64    1.04
  13  -6  18    0.89    0.38
  13  -7 -18    1.04    0.56
   6   7  18    0.72    0.46
 -13   6  18    0.72    0.69
   7   6  18   -0.03    0.38
  13  -6 -18    0.94    0.53
  -6  13  18    0.28    0.38
 -13   7  18    0.26    0.62
  13  -7  18    0.75    0.38
   5   8  18    1.87    0.68
  13  -8 -18    3.42    0.90
  13  -5  18    2.31    0.55
   8 -13 -18    2.52    0.81
  13  -8  18    1.96    0.49
   8   5  18    2.11    0.57
  -5  13  18    1.84    0.62
 -13   8  18    2.53    0.84
   4   9  18   -0.42    0.29
  13  -4  18    0.21    0.31
  13  -9 -18    0.35    0.48
   9   4 -18    0.20    0.54
 -13   9  18    0.35    0.62
  -4  13  18    0.34    0.39
  13  -9  18    0.02    0.26
   9 -13 -18    1.48    0.78
   9   4  18    0.76    0.41
  13  -4 -18    0.96    0.54
   3  10  18    0.24    0.36
  13  -3  18    0.44    0.36
  13 -10 -18   -0.33    0.49
 -10  13  18    0.21    0.54
  10   3 -18    0.79    0.51
 -13  10  18   -0.07    0.57
  13  -3 -18    1.29    0.53
  10 -13 -18    0.47    0.51
  -3  13  18    0.57    0.42
  10   3  18    1.04    0.40
  13 -10  18    0.98    0.33
  13  -2  18    0.25    0.30
  13 -11 -18   -0.80    0.39
  11   2 -18   -0.16    0.44
   2  11  18   -0.26    0.37
 -11  13  18   -0.55    0.52
  13  -2 -18   -0.58    0.38
 -13  11  18    1.22    0.59
  11   2  18    0.61    0.39
  11 -13 -18    0.27    0.53
  -2  13  18    0.05    0.31
 -12  13  18    0.37    0.48
  13  -1  18    0.68    0.32
  13 -12 -18   -0.31    0.47
  12   1 -18    0.27    0.46
   1  12  18   -0.70    0.32
  -1  13  18   -0.39    0.36
  12   1  18    0.22    0.32
 -13  12  18    0.17    0.51
  12 -13 -18    0.18    0.47
  13  -1 -18    0.09    0.41
 -13  13  18    0.98    0.63
   0  13  18    1.15    0.55
  13   0 -18    1.03    0.55
  13   0  18    1.05    0.46
  13 -13 -18    1.87    0.63
   7   7  18    4.38    0.91
 -14   7  18    5.35    1.19
  14  -7  18    5.32    0.80
  14  -7 -18    6.14    1.07
  14  -8 -18    0.91    0.43
 -14   6  18    0.96    0.81
   6   8  18    0.69    0.46
  14  -6  18    1.21    0.42
   8   6  18    1.09    0.43
  -6  14  18    0.46    0.41
 -14   8  18    2.07    0.82
   8 -14 -18    1.27    0.62
  14  -8  18    1.03    0.43
  14  -5  18    0.98    0.41
   9   5 -18    2.04    0.59
   5   9  18    0.83    0.45
  14  -9 -18    1.46    0.63
  14  -5 -18    2.06    0.69
  -5  14  18    0.24    0.38
  14  -9  18    1.12    0.41
 -14   9  18    0.88    0.71
   9   5  18    0.69    0.37
   9 -14 -18    1.72    0.69
  10   4 -18    0.50    0.46
   4  10  18    0.28    0.38
  14  -4  18    0.14    0.33
  14 -10 -18    0.20    0.48
 -10  14  18    0.64    0.57
  10   4  18   -0.13    0.34
  14  -4 -18    1.46    0.56
 -14  10  18    0.57    0.60
  14 -10  18    0.99    0.33
  10 -14 -18    0.49    0.51
  -4  14  18    0.89    0.48
 -11  14  18    0.21    0.59
  11   3 -18    0.61    0.54
   3  11  18    0.53    0.44
  14 -11 -18    0.37    0.52
  14  -3  18    0.52    0.37
  14  -3 -18    0.48    0.48
  11 -14 -18    0.96    0.54
  -3  14  18   -0.43    0.34
 -14  11  18    2.08    0.77
  11   3  18    0.52    0.34
 -12  14  18    2.34    0.71
  14 -12 -18    0.61    0.55
  14  -2  18    0.52    0.34
   2  12  18   -0.10    0.42
  12   2 -18    0.54    0.59
  12 -14 -18   -0.85    0.47
 -14  12  18    0.48    0.62
  -2  14  18    0.54    0.50
  14  -2 -18   -0.21    0.51
  12   2  18    0.43    0.41
  13   1 -18    0.29    0.46
 -13  14  18    1.28    0.69
  14  -1  18    0.83    0.38
  14 -13 -18    1.11    0.65
   1  13  18    0.64    0.50
  13 -14 -18    0.33    0.51
  14  -1 -18    1.41    0.60
  13   1  18    0.27    0.34
 -14  13  18    0.77    0.57
  -1  14  18    0.35    0.44
  14   0 -18    1.03    0.61
  15  -8 -18    0.99    0.60
 -15   7  18   -0.22    0.65
   7   8  18   -0.12    0.34
  15  -7  18    0.20    0.31
 -15   8  18    1.03    0.70
  15  -8  18    0.12    0.26
   8 -15 -18    0.65    0.69
   8   7  18    0.30    0.37
  -7  15  18   -0.46    0.34
   6   9  18    0.97    0.47
   9   6 -18   -0.32    0.52
  15  -6  18   -0.40    0.24
 -15   6  18    1.75    0.92
  15  -9 -18   -0.28    0.43
   9 -15 -18    1.37    0.70
   9   6  18    0.39    0.31
  15  -9  18    0.47    0.31
 -15   9  18    0.35    0.60
  -6  15  18    0.58    0.41
  10   5 -18    1.05    0.52
 -10  15  18    1.11    0.99
  15 -10 -18   -0.20    0.44
  15  -5  18    0.03    0.32
   5  10  18   -0.31    0.38
  -5  15  18   -0.18    0.34
  15  -5 -18    0.10    0.55
  10 -15 -18   -0.22    0.51
 -15  10  18    0.01    0.56
  10   5  18    0.17    0.36
  15 -10  18   -0.24    0.27
   4  11  18   -0.36    0.38
  15 -11 -18    0.45    0.48
 -11  15  18   -1.34    0.53
  11   4 -18    0.15    0.50
  15  -4  18    0.25    0.35
 -15  11  18    0.14    0.52
  15 -11  18    0.06    0.24
  11   4  18   -0.60    0.30
  15  -4 -18    1.03    0.55
  -4  15  18    0.16    0.43
  11 -15 -18   -0.30    0.45
 -12  15  18    0.04    0.63
   3  12  18    1.62    0.55
  15  -3  18    0.50    0.36
  15 -12 -18    1.15    0.64
  12   3 -18   -0.18    0.46
  15  -3 -18    0.60    0.50
  -3  15  18    0.65    0.46
 -15  12  18    0.32    0.57
  12   3  18    0.20    0.38
 -16   8  18   -0.18    0.61
   8   8  18    0.10    0.34
  16  -8  18    0.64    0.34
 -16   7  18    1.29    0.80
  16  -7  18    0.29    0.34
  16  -9 -18   -0.43    0.46
   7   9  18    1.04    0.53
   9   7 -18   -1.01    0.51
 -16   9  18    0.48    0.66
   9   7  18    0.56    0.42
  16  -9  18    0.92    0.35
  10   6 -18    0.49    0.55
   0   0  19    1.20    0.44
   0   1  19    0.13    0.30
   1   0  19   -0.26    0.31
  -1   0  19    0.10    0.32
   0  -1  19    0.13    0.29
   1  -1  19    0.00    0.29
  -1   1  19    0.49    0.37
  -1  -1  19   26.56    1.78
  -1   2  19   24.80    1.86
   1   1  19   29.00    1.97
   1  -2  19   27.32    1.78
   2  -1  19   27.17    1.83
  -2   1  19   23.49    1.78
  -2   2  19    0.56    0.39
   0   2  19   -0.19    0.33
   2   0  19    0.16    0.28
  -2   0  19   -0.22    0.28
   2  -2  19    0.80    0.38
   1   2  19    0.40    0.36
  -2   3  19    0.80    0.45
   3  -1  19    1.07    0.42
   2  -3  19    0.18    0.28
  -3   1  19    1.39    0.47
  -1   3  19    0.41    0.36
  -3   2  19    0.57    0.38
   2   1  19    1.31    0.49
   3  -2  19    0.51    0.37
   3   0  19    0.10    0.29
  -3   3  19   -0.11    0.27
  -3   0  19   -0.06    0.27
   3  -3  19   -0.18    0.29
   0   3  19   -0.45    0.31
  -2   4  19    4.94    0.94
  -4   2  19    6.60    1.00
   4  -2  19    6.47    0.96
   2   2  19    5.64    0.99
   1   3  19    1.53    0.57
  -3   4  19    1.00    0.50
  -4   1  19    2.04    0.57
   4  -1  19    1.96    0.56
  -1   4  19    1.73    0.57
  -4   3  19    1.20    0.49
   4  -3  19    1.22    0.43
   3   1  19    1.56    0.55
   4   0  19   -0.35    0.28
   4  -4  19   -0.40    0.22
   0   4  19    0.24    0.34
  -4   4  19   -0.04    0.29
   5  -2  19    0.72    0.38
  -5   2  19    0.77    0.47
  -3   5  19    1.55    0.52
   2   3  19    1.87    0.57
   3   2  19    1.05    0.57
  -5   3  19    0.36    0.33
   5  -3  19    1.03    0.38
  -2   5  19    1.05    0.50
   1   4  19    0.51    0.34
  -4   5  19   -0.04    0.34
   5  -1  19    0.36    0.33
  -1   5  19    0.08    0.34
   4   1  19    0.52    0.31
   5  -4  19   -0.12    0.25
  -5   4  19    0.19    0.29
   0   5  19    0.34    0.38
   5  -5  19    0.24    0.26
   5   0  19   -0.26    0.30
  -5   5  19   -0.11    0.29
  -3   6  19    8.42    1.25
  -6   3  19    8.05    1.14
   3   3  19    8.58    1.25
   6  -3  19   10.84    1.18
   2   4  19    0.22    0.41
  -4   6  19    0.83    0.45
  -6   2  19    0.27    0.29
   6  -2  19   -0.02    0.26
   6  -4  19   -0.42    0.24
   4   2  19    0.55    0.38
  -6   4  19   -0.07    0.29
  -2   6  19   -0.03    0.35
   1   5  19    4.77    0.95
   6  -1  19    3.22    0.72
  -5   6  19    2.95    0.75
  -6   5  19    3.17    0.72
  -1   6  19    2.51    0.72
   5   1  19    3.47    0.81
   6  -5  19    4.24    0.73
  -6   6  19   -0.01    0.27
   0   6  19    0.49    0.34
   6   0  19   -0.33    0.24
  -7   3  19    1.12    0.45
   3   4  19    0.68    0.41
   7  -3  19    0.49    0.33
  -4   7  19    1.48    0.49
  -3   7  19    0.59    0.47
   7  -4  19   -0.23    0.24
   4   3  19    0.81    0.46
   2   5  19    2.02    0.62
  -5   7  19    2.34    0.72
   7  -2  19    2.30    0.59
   7  -5  19    2.15    0.50
   5   2  19    2.11    0.67
  -2   7  19    2.41    0.71
   7  -1  19    2.04    0.57
   1   6  19    1.21    0.54
  -6   7  19    1.09    0.48
   7  -6  19    1.19    0.39
   6   1  19    1.03    0.48
  -1   7  19    1.24    0.57
   0   7  19   -0.27    0.31
   7  -7 -19   -0.17    0.37
   7   0  19    0.21    0.34
   8  -4  19    3.70    0.68
   4   4  19    4.16    0.89
  -4   8  19    3.86    0.86
   8  -4 -19    0.91    0.53
  -5   8  19   -0.15    0.28
   8  -3  19    0.32    0.30
   3   5  19   -0.08    0.29
   8  -5 -19    0.81    0.45
   5   3  19    0.00    0.31
   8  -3 -19    0.67    0.38
  -3   8  19    0.24    0.33
   8  -5  19    0.00    0.26
   8  -2  19    2.59    0.64
  -6   8  19    1.92    0.60
   2   6  19    3.16    0.79
   8  -6 -19    3.54    0.84
  -2   8  19    3.20    0.83
   6   2  19    5.04    0.97
   8  -6  19    4.05    0.67
   8  -1  19    1.70    0.52
   1   7  19    1.01    0.50
   8  -7 -19    1.35    0.56
  -1   8  19    0.27    0.40
   7  -8 -19    2.19    0.71
   7   1  19    1.52    0.48
   8   0  19   -0.13    0.30
   8  -8 -19    0.54    0.45
   0   8  19    0.71    0.53
   9  -5 -19    0.56    0.45
   4   5  19    0.10    0.36
   9  -4  19    0.03    0.29
  -5   9  19   -0.01    0.35
   9  -4 -19   -0.09    0.40
   5   4  19    0.56    0.42
  -4   9  19    1.00    0.54
   9  -5  19    0.34    0.30
   3   6  19    2.41    0.69
   9  -6 -19    3.15    0.85
  -6   9  19    3.83    0.88
   9  -3  19    4.10    0.76
  -3   9  19    4.75    1.03
   6   3  19    4.30    0.88
   9  -6  19    3.68    0.69
   9  -2  19    0.74    0.39
   9  -7 -19    1.43    0.63
   2   7  19    0.93    0.55
  -2   9  19    1.17    0.51
   9  -7  19    1.58    0.45
   7   2  19    1.81    0.55
   9  -1  19    3.07    0.69
   9  -8 -19    2.10    0.77
   1   8  19    3.18    0.87
  -1   9  19    2.08    0.72
   8   1  19    2.31    0.60
   8  -9 -19    3.09    0.85
   9  -9 -19    0.00    0.48
   9   0  19    0.36    0.34
   0   9  19    0.10    0.38
  10  -5  19    0.44    0.34
  -5  10  19    0.90    0.51
  10  -5 -19    0.78    0.55
   5   5  19    0.27    0.44
  10  -4  19    2.78    0.59
   4   6  19    2.09    0.68
  -6  10  19    2.28    0.70
  10  -6 -19    1.23    0.66
   6   4  19    2.67    0.71
  -4  10  19    1.87    0.73
  10  -6  19    2.23    0.54
  10  -3  19    0.19    0.30
   3   7  19   -0.06    0.31
  10  -7  19    0.31    0.29
  10  -3 -19   -0.23    0.40
   7   3  19   -0.17    0.35
  -3  10  19    0.33    0.36
   2   8  19    6.92    1.19
  10  -2  19    6.32    0.99
  10  -8 -19    5.19    1.14
   8   2  19    5.33    0.97
   8 -10 -19    7.47    1.36
  10  -8  19    4.81    0.76
  -2  10  19    7.21    1.21
  10  -2 -19    6.74    1.09
  10  -9 -19    3.05    0.87
  10  -1  19    3.08    0.71
   1   9  19    2.27    0.74
   9   1  19    3.68    0.80
   9 -10 -19    3.90    1.02
  10  -1 -19    4.79    0.88
  -1  10  19    2.86    0.78
  10 -10 -19   -0.20    0.48
  10   0 -19   -0.03    0.41
  10   0  19    1.21    0.42
   0  10  19    0.52    0.40
   5   6  19    0.21    0.36
  11  -6 -19    1.61    0.54
 -11   5  19    1.49    0.72
  -6  11  19    0.51    0.46
  11  -5  19    1.24    0.40
  11  -6  19    0.58    0.36
   6   5  19    0.70    0.54
  11  -5 -19    1.15    0.48
 -11   6  19    1.03    0.63
  -5  11  19    0.02    0.39
  11  -4  19    0.79    0.37
  11  -7 -19    0.96    0.49
   4   7  19    1.35    0.53
   7   4  19    1.34    0.46
  11  -7  19    1.04    0.39
 -11   7  19    0.72    0.64
  -4  11  19    0.70    0.50
  11  -3  19    1.33    0.45
   3   8  19    0.25    0.36
  11  -8 -19    0.34    0.47
 -11   8  19    0.56    0.59
   8 -11 -19    0.63    0.63
  11  -3 -19    0.79    0.43
  -3  11  19    1.28    0.58
   8   3  19    1.33    0.48
  11  -8  19    1.57    0.38
  11  -9 -19    0.32    0.49
   2   9  19   -0.17    0.33
  11  -2  19    0.18    0.33
 -11   9  19   -0.25    0.50
   9   2  19   -0.47    0.28
  -2  11  19    0.95    0.50
   9 -11 -19    1.35    0.66
  11  -2 -19    0.46    0.47
  11  -1  19    7.76    1.11
   1  10  19    8.65    1.36
  11 -10 -19    5.87    1.14
  10   1 -19    8.79    1.34
  10   1  19    7.62    1.13
  10 -11 -19    6.88    1.25
  -1  11  19    6.52    1.23
 -11  10  19    7.25    1.25
  11  -1 -19    6.60    1.20
  11   0  19   -0.67    0.30
 -11  11  19   -0.32    0.48
  11   0 -19    0.03    0.43
   0  11  19    0.42    0.44
  11 -11 -19    1.25    0.56
  12  -6  19    2.46    0.54
  -6  12  19    1.44    0.59
   6   6  19    2.69    0.74
 -12   6  19    2.38    0.85
  12  -6 -19    1.04    0.65
   5   7  19   -0.51    0.35
  12  -5  19   -0.29    0.27
  -7  12  19    0.33    0.46
  12  -7 -19   -0.38    0.44
 -12   5  19    0.52    0.65
   7   5  19    0.09    0.41
 -12   7  19   -0.03    0.58
  -5  12  19    0.21    0.42
  12  -7  19   -0.03    0.28
  12  -8 -19   -0.31    0.43
  12  -4  19    0.35    0.35
   4   8  19    0.04    0.38
  12  -8  19    0.11    0.26
  -4  12  19    0.50    0.47
   8 -12 -19    0.10    0.45
   8   4  19    0.36    0.35
 -12   8  19   -0.08    0.49
  12  -3  19   -0.12    0.29
   3   9  19    0.66    0.44
  12  -9 -19   -0.63    0.37
   9   3  19    1.05    0.47
  12  -3 -19   -0.47    0.44
  -3  12  19    0.15    0.37
  12  -9  19    0.74    0.32
   9 -12 -19   -0.42    0.49
 -12   9  19    0.14    0.47
  12  -2  19    2.19    0.54
  12 -10 -19    1.26    0.66
   2  10  19    0.32    0.42
  10   2 -19    0.37    0.45
 -12  10  19    0.04    0.50
  -2  12  19    0.41    0.50
  10 -12 -19    0.17    0.48
  12  -2 -19    0.79    0.49
  10   2  19    0.05    0.39
  11   1 -19    0.29    0.46
  12 -11 -19    0.59    0.51
 -11  12  19   -0.04    0.49
  12  -1  19   -0.26    0.26
   1  11  19    0.34    0.40
  12  -1 -19    0.57    0.50
  11 -12 -19    0.07    0.47
  11   1  19    0.00    0.32
  -1  12  19    0.77    0.49
 -12  11  19    0.25    0.50
 -12  12  19    0.09    0.50
  12 -12 -19   -0.08    0.58
  12   0  19    0.15    0.39
  12   0 -19   -0.21    0.46
   0  12  19    0.46    0.44
  13  -6  19   -0.37    0.26
  13  -7 -19    0.49    0.49
   6   7  19    0.49    0.39
  -7  13  19    0.26    0.46
 -13   6  19   -0.16    0.63
   7   6  19    0.58    0.42
 -13   7  19    0.83    0.67
  13  -7  19   -0.03    0.28
  -6  13  19   -0.36    0.36
  13  -5  19    0.29    0.35
   5   8  19    1.16    0.55
 -13   5  19    1.38    0.92
  13  -8 -19    0.84    0.48
   8 -13 -19    1.21    0.59
  -5  13  19    0.21    0.35
 -13   8  19    0.16    0.62
   8   5  19    0.45    0.37
  13  -8  19    0.26    0.29
  13  -9 -19    1.83    0.69
  13  -4  19    0.53    0.39
   4   9  19    0.30    0.48
 -13   9  19    0.81    0.61
   9   4  19    0.70    0.37
  -4  13  19    0.54    0.44
   9 -13 -19    0.30    0.50
  13  -9  19    0.20    0.30
  13  -4 -19    0.72    0.50
  13 -10 -19   -0.12    0.47
   3  10  19   -0.14    0.39
  13  -3  19    1.19    0.41
  10 -13 -19   -0.97    0.47
  10   3  19   -0.38    0.31
  -3  13  19   -0.12    0.37
 -13  10  19    0.63    0.57
  13  -3 -19    0.27    0.45
 -11  13  19    1.81    0.70
   2  11  19    0.71    0.49
  13  -2  19    0.89    0.42
  11   2 -19    2.63    0.67
  13 -11 -19    1.90    0.62
  11 -13 -19    0.03    0.55
  13  -2 -19    2.50    0.68
  -2  13  19    1.49    0.63
  11   2  19    0.67    0.47
 -13  11  19    0.72    0.67
   1  12  19    0.04    0.43
  13 -12 -19    0.49    0.58
 -12  13  19    0.38    0.53
  12   1 -19    0.39    0.47
  13  -1  19    0.29    0.36
  -1  13  19    0.16    0.43
 -13  12  19    0.09    0.54
  12 -13 -19    0.31    0.51
  12   1  19    0.61    0.37
  13  -1 -19   -0.98    0.41
  -7  14  19    0.43    0.51
  14  -7  19    0.33    0.32
   7   7  19    0.27    0.41
 -14   7  19    0.27    0.67
 -14   6  19    0.11    0.62
   6   8  19    0.63    0.36
  14  -6  19   -0.39    0.26
  14  -8 -19    0.30    0.57
 -14   8  19    0.74    0.68
   8   6  19   -0.48    0.30
  14  -8  19    0.14    0.29
  -6  14  19   -0.30    0.35
  14  -5  19    0.25    0.31
  14  -9 -19    1.03    0.50
   5   9  19    0.59    0.41
 -14   9  19    0.02    0.52
   9   5  19    0.21    0.35
  -5  14  19    0.24    0.43
  14  -9  19    0.07    0.25
   9 -14 -19   -0.68    0.48
  14  -4  19    0.45    0.37
  14 -10 -19    1.26    0.59
   4  10  19    0.16    0.42
  14 -10  19    0.74    0.29
  10   4  19    0.00    0.31
  10 -14 -19   -0.33    0.47
 -14  10  19    1.03    0.64
  14  -4 -19    1.03    0.50
  -4  14  19    0.62    0.47
  14 -11 -19    0.71    0.56
   3  11  19    0.32    0.40
  11   3 -19    0.31    0.52
  14  -3  19    0.20    0.31
 -14  11  19    0.18    0.57
  14  -3 -19    0.30    0.49
   0   0  20   34.52    2.22
   1   0  20    0.18    0.32
  -1   1  20    0.27    0.31
  -1   0  20   -0.17    0.31
   0   1  20    0.19    0.32
   0  -1  20    0.46    0.36
   2  -1  20    4.61    0.86
   1   1  20    3.64    0.80
   1  -2  20    4.58    0.84
  -2   1  20    4.76    0.85
  -1   2  20    4.24    0.86
   2   0  20    0.73    0.50
   0   2  20    1.20    0.53
  -2   2  20    0.81    0.46
  -2   0  20    0.68    0.39
   2  -2  20    2.01    0.54
  -2   3  20    0.44    0.37
  -3   1  20    0.05    0.30
   3  -1  20    0.47    0.34
   1   2  20    0.31    0.37
   3  -2  20   -0.63    0.24
  -3   2  20    0.11    0.35
  -1   3  20   -0.28    0.30
   2   1  20   -0.06    0.33
   0   3  20    4.73    0.92
   3  -3  20    7.51    1.00
  -3   3  20    5.03    0.92
   3   0  20    7.00    1.08
  -2   4  20    0.48    0.39
   4  -2  20    0.54    0.32
   2   2  20    0.82    0.46
  -4   2  20    0.97    0.41
  -3   4  20    0.21    0.34
   4  -1  20   -0.80    0.27
   1   3  20    0.36    0.41
  -1   4  20   -0.14    0.34
  -4   3  20    0.19    0.34
   3   1  20    1.21    0.45
   4  -3  20    0.71    0.34
   0   4  20    1.26    0.52
   4   0  20    0.21    0.35
  -4   4  20    0.80    0.41
   5  -2  20    1.36    0.51
   2   3  20    0.96    0.47
  -5   2  20    1.37    0.47
  -3   5  20    1.75    0.52
   5  -3  20    1.10    0.41
  -2   5  20    1.64    0.59
  -5   3  20    1.11    0.48
   3   2  20    1.49    0.54
  -4   5  20    0.56    0.44
   1   4  20    0.38    0.33
   5  -1  20    1.16    0.40
   5  -4  20    2.06    0.50
  -5   4  20    1.65    0.52
   4   1  20    2.22    0.63
  -1   5  20    1.79    0.59
  -5   5  20    1.60    0.56
   0   5  20    0.70    0.51
   5   0  20    2.11    0.61
  -3   6  20    1.03    0.51
   3   3  20    1.83    0.62
   6  -3  20    1.62    0.43
  -6   3  20    1.61    0.51
   2   4  20    0.43    0.37
  -4   6  20    0.71    0.41
   6  -2  20    0.10    0.30
  -2   6  20    0.14    0.37
   6  -4  20    0.47    0.33
   4   2  20   -0.29    0.29
  -6   4  20    0.34    0.33
   1   5  20    1.01    0.54
   6  -1  20    1.41    0.51
  -5   6  20    1.87    0.60
  -6   5  20    2.65    0.71
  -1   6  20    0.89    0.53
   6  -5  20    1.38    0.43
   5   1  20    1.23    0.50
   0   6  20    0.67    0.52
  -6   6  20    0.76    0.45
   6   0  20    0.37    0.34
  -4   7  20   -0.21    0.29
   3   4  20   -0.26    0.31
   7  -3  20    0.06    0.28
   7  -4  20    0.65    0.37
  -7   4  20    0.11    0.35
   4   3  20    0.29    0.38
  -3   7  20   -0.15    0.31
   2   5  20    5.37    1.04
  -5   7  20    4.04    0.89
   7  -2  20    2.88    0.67
   5   2  20    5.23    0.97
  -7   5  20    4.46    0.90
   7  -5  20    4.89    0.75
  -2   7  20    3.79    0.91
   7  -1  20    0.07    0.27
  -6   7  20   -0.45    0.27
   1   6  20   -0.50    0.30
   6   1  20   -0.11    0.29
  -1   7  20   -0.26    0.37
  -7   6  20    0.09    0.30
   0   7  20    5.33    1.06
  -7   7  20    4.77    0.94
   7   0  20    4.98    0.90
  -4   8  20    5.40    1.07
  -8   4  20    6.76    1.05
   8  -4  20    5.48    0.87
   4   4  20    6.42    1.13
  -5   8  20   -0.08    0.30
   3   5  20    0.73    0.41
   8  -3  20    0.62    0.34
  -3   8  20    0.09    0.35
   5   3  20    0.25    0.40
   8  -5  20    0.97    0.36
   2   6  20    1.57    0.56
   8  -2  20    0.54    0.37
  -6   8  20    0.82    0.37
  -2   8  20    0.17    0.34
   8  -6  20    0.92    0.38
   6   2  20    1.15    0.52
   1   7  20    1.37    0.59
  -7   8  20    0.78    0.48
   8  -1  20    1.85    0.50
   7   1  20    1.11    0.54
  -1   8  20    1.96    0.68
   8   0  20    0.35    0.36
   0   8  20    1.97    0.71
  -5   9  20    0.44    0.36
   4   5  20    0.08    0.39
   9  -4  20    0.45    0.28
   9  -5 -20    0.63    0.45
   9  -5  20    0.51    0.32
   5   4  20   -0.62    0.30
  -4   9  20   -0.06    0.34
  -6   9  20    1.28    0.52
   9  -6 -20    0.97    0.65
   9  -3  20    0.81    0.39
   3   6  20    0.48    0.39
  -3   9  20    1.28    0.59
   6   3  20    1.81    0.54
   9  -6  20    1.14    0.39
   2   7  20    1.24    0.56
   9  -7 -20    0.07    0.44
  -7   9  20    0.38    0.37
   9  -2  20    1.14    0.41
   7   2  20    0.72    0.41
  -2   9  20    1.05    0.44
   9  -8 -20    1.26    0.55
   9  -1  20    0.78    0.45
   1   8  20    0.09    0.43
   8   1  20    0.50    0.38
  -1   9  20    0.44    0.47
   0   9  20    5.45    1.14
   9   0  20    5.34    0.93
   5   5  20   -0.12    0.34
  10  -5  20    0.56    0.33
  10  -5 -20   -0.02    0.43
  -5  10  20    0.49    0.41
  -6  10  20    0.01    0.31
  10  -4  20   -0.34    0.30
  10  -6 -20   -0.15    0.46
   4   6  20    0.70    0.44
   6   4  20    1.12    0.56
  -4  10  20   -0.16    0.34
  10  -6  20    0.23    0.29
  10  -3  20    0.50    0.30
   3   7  20    0.56    0.42
  -7  10  20    0.53    0.40
  10  -7 -20    0.20    0.54
  10  -7  20    0.03    0.23
   7   3  20   -0.80    0.34
  -3  10  20   -0.18    0.38
   2   8  20    1.34    0.57
  10  -8 -20    0.80    0.48
  10  -2  20    0.00    0.30
   8   2  20    0.34    0.32
  -2  10  20    0.61    0.45
  10  -1  20    0.63    0.42
   1   9  20   -0.47    0.41
  10  -9 -20   -0.56    0.51
   9   1  20    0.71    0.40
  -1  10  20    0.54    0.54
   9 -10 -20    0.26    0.48
   0  10  20    0.36    0.43
  10 -10 -20    0.52    0.57
  10   0  20    0.99    0.42
  11  -5  20   -0.09    0.25
  11  -6 -20    0.32    0.43
  -6  11  20    0.40    0.42
   5   6  20    0.25    0.41
  -5  11  20    0.83    0.40
  11  -6  20    0.56    0.29
   6   5  20   -0.39    0.32
   4   7  20    0.58    0.49
  11  -4  20    0.69    0.35
  11  -7 -20    0.91    0.48
  -7  11  20    0.86    0.49
   7   4  20   -0.05    0.33
  11  -7  20    0.51    0.28
  -4  11  20    0.44    0.49
   3   8  20    0.04    0.42
  11  -8 -20    1.14    0.52
  11  -3  20    2.24    0.56
   8   3  20    1.37    0.49
  11  -8  20    1.13    0.41
  -3  11  20    0.53    0.47
  11  -2  20   -0.11    0.31
   2   9  20    0.29    0.45
  11  -9 -20   -0.56    0.39
   9 -11 -20   -1.30    0.44
   9   2  20    0.64    0.41
  -2  11  20    0.23    0.44
  11 -10 -20    2.23    0.67
  11  -1  20    1.42    0.49
   1  10  20    0.37    0.43
  10   1  20    1.73    0.52
  -1  11  20    1.37    0.62
  10 -11 -20    0.88    0.67
   0  11  20    1.41    0.65
  11 -11 -20    2.12    0.75
  11   0  20    1.78    0.55
  12  -6  20    1.00    0.40
  -6  12  20    0.54    0.41
   6   6  20   -0.56    0.40
  12  -7 -20    0.14    0.52
  12  -5  20    1.18    0.45
   5   7  20    1.09    0.52
  -7  12  20   -0.16    0.38
   7   5  20    0.54    0.51
  12  -7  20    1.05    0.40
  -5  12  20   -0.12    0.40
   4   8  20   -0.71    0.34
  12  -8 -20    0.55    0.48
  12  -4  20    0.13    0.32
  12  -8  20    0.90    0.32
  -4  12  20    0.28    0.40
   8   4  20    0.74    0.43
   3   9  20    1.55    0.61
  12  -3  20    1.28    0.46
  12  -9 -20    2.16    0.76
  12  -3 -20    1.15    0.54
   9 -12 -20    1.09    0.63
  -3  12  20    1.17    0.60
   9   3  20    0.69    0.42
   2  10  20    0.80    0.47
  12  -2  20    0.37    0.38
  12 -10 -20    0.64    0.56
  12  -2 -20    0.88    0.49
  10 -12 -20   -1.06    0.44
  -2  12  20    0.27    0.39
  10   2  20   -0.36    0.34
  12 -11 -20   -0.54    0.47
  12  -1  20    0.46    0.34
  11 -12 -20   -0.33    0.50
  12  -1 -20    0.85    0.51
   6   7  20    1.48    0.55
  13  -6  20    0.29    0.31
 -13   6  20    0.57    0.75
  -7  13  20   -0.28    0.33
  -6  13  20    1.51    0.61
   7   6  20    0.79    0.43
 -13   7  20   -0.07    0.60
  13  -7  20    0.31    0.31
  13  -8 -20   -0.24    0.56
  -8  13  20    1.58    0.64
   5   8  20    1.25    0.47
 -13   5  20    1.63    0.84
  13  -5  20    1.83    0.52
  13  -8  20    1.99    0.45
   8   5  20    1.09    0.49
 -13   8  20    1.37    0.71
  13  -9 -20   -0.41    0.51
  13  -4  20    0.58    0.37
  13  -9  20   -0.17    0.28
 -13   9  20    0.08    0.61
   0   0  21    0.96    0.44
   1  -1  21   -0.24    0.29
   0   1  21   -0.32    0.28
  -1   0  21   -0.16    0.27
  -1   1  21    0.07    0.36
   1   0  21   -0.48    0.28
   1   1  21    3.95    0.79
   2  -1  21    4.54    0.81
  -1   2  21    3.37    0.75
  -2   1  21    3.76    0.82
   0   2  21   -0.07    0.27
   2  -2  21   -0.22    0.27
  -2   2  21    0.33    0.33
   2   0  21   -0.68    0.31
   3  -1  21    0.33    0.35
   1   2  21    0.15    0.41
  -2   3  21    0.58    0.39
   3  -2  21    0.06    0.29
  -1   3  21   -0.12    0.33
   2   1  21    0.28    0.38
  -3   2  21   -0.01    0.31
   3   0  21   -0.12    0.28
   0   3  21    0.28    0.40
  -3   3  21   -0.07    0.33
  -4   2  21    1.07    0.44
   4  -2  21    0.92    0.38
   2   2  21    0.09    0.36
  -2   4  21    0.34    0.43
  -3   4  21    1.69    0.60
   1   3  21    2.94    0.77
   4  -1  21    2.44    0.65
  -1   4  21    2.78    0.76
  -4   3  21    2.54    0.68
   3   1  21    3.19    0.72
   4  -3  21    3.27    0.66
   0   4  21    0.01    0.34
  -4   4  21    0.16    0.30
   4   0  21   -0.58    0.28
   2   3  21    0.04    0.33
   5  -2  21   -0.06    0.28
  -3   5  21    0.36    0.38
  -5   3  21    0.29    0.33
   5  -3  21    0.03    0.30
   3   2  21    0.51    0.41
  -2   5  21    0.08    0.37
   5  -1  21    5.66    0.96
   1   4  21    4.20    0.85
  -4   5  21    5.15    0.98
  -5   4  21    7.87    1.18
  -1   5  21    5.47    1.03
   4   1  21    6.01    1.05
   5   0  21    0.60    0.32
   0   5  21    0.02    0.31
  -5   5  21   -0.18    0.32
   6  -3  21    5.37    0.90
  -3   6  21    8.12    1.25
   3   3  21    8.44    1.29
   6  -2  21    0.94    0.40
  -4   6  21    0.74    0.43
   2   4  21    1.61    0.54
  -2   6  21    0.87    0.56
   6  -4  21    1.14    0.41
   4   2  21    0.69    0.45
  -6   4  21    0.46    0.39
   1   5  21    0.61    0.46
  -5   6  21    0.42    0.38
   6  -1  21    0.21    0.32
   5   1  21    0.92    0.47
  -6   5  21    0.75    0.47
  -1   6  21    0.88    0.47
  -6   6  21    0.10    0.30
   6   0  21    0.17    0.31
   0   6  21    0.49    0.44
  -4   7  21    0.44    0.42
   7  -3  21    0.00    0.29
   3   4  21   -0.01    0.33
   4   3  21    0.27    0.37
  -7   4  21    0.26    0.30
  -3   7  21   -0.05    0.30
   7  -4  21    0.10    0.26
   2   5  21    0.39    0.42
   7  -2  21    1.17    0.45
  -5   7  21    0.44    0.37
   7  -5  21    1.16    0.47
  -2   7  21    0.51    0.43
  -7   5  21    0.83    0.45
   5   2  21    0.75    0.44
   7  -1  21    0.38    0.35
  -6   7  21    0.04    0.29
   1   6  21    0.29    0.40
  -7   6  21    0.37    0.35
  -1   7  21   -0.33    0.34
   6   1  21   -0.53    0.32
   0   7  21    0.03    0.33
  -7   7  21   -0.18    0.36
   7   0  21    0.16    0.31
   8  -4  21    5.70    0.88
  -4   8  21    5.49    1.06
   4   4  21    7.55    1.21
  -5   8  21    0.36    0.39
   3   5  21   -0.07    0.39
   8  -3  21    0.19    0.29
   8  -5  21    0.13    0.26
   5   3  21   -0.05    0.35
  -3   8  21    0.03    0.31
  -8   5  21    0.24    0.34
  -6   8  21    0.25    0.34
   8  -2  21    0.74    0.45
   2   6  21   -0.54    0.34
   6   2  21    0.96    0.50
  -2   8  21    0.63    0.39
  -8   6  21    0.15    0.35
   1   7  21    0.75    0.51
   8  -1  21    0.27    0.38
  -7   8  21    0.29    0.38
  -8   7  21    0.55    0.37
   7   1  21    1.01    0.43
  -1   8  21    1.13    0.53
   0   8  21    0.04    0.39
   8   0  21   -0.16    0.30
  -8   8  21    0.16    0.31
   9  -4  21    0.08    0.32
  -5   9  21    0.45    0.45
   4   5  21    0.00    0.37
  -4   9  21   -0.07    0.37
   9  -5  21   -0.28    0.26
   5   4  21    0.31    0.37
   9  -3  21    1.36    0.50
   3   6  21    2.84    0.76
  -6   9  21    1.02    0.52
   9  -6  21    1.59    0.50
   6   3  21    2.00    0.60
  -3   9  21    1.31    0.58
  -7   9  21   -0.19    0.33
   2   7  21    0.61    0.46
   9  -2  21    0.50    0.31
  -2   9  21    0.61    0.42
   7   2  21    1.08    0.47
  -8   9  21    0.39    0.35
   9  -1  21    1.40    0.45
   1   8  21    0.86    0.48
  -1   9  21    0.01    0.44
   8   1  21   -0.61    0.32
   9   0  21   -0.44    0.34
   0   9  21   -0.21    0.39
   5   5  21    0.73    0.45
  -5  10  21    0.39    0.44
  10  -5  21    0.49    0.32
   4   6  21    0.77    0.46
  10  -4  21    0.54    0.34
  -6  10  21    0.33    0.37
  10  -6 -21    0.13    0.43
  10  -6  21    0.95    0.35
  -4  10  21    0.16    0.38
   6   4  21    0.43    0.39
  10  -7 -21   -0.30    0.47
  10  -3  21    0.19    0.27
   3   7  21   -0.53    0.39
  -7  10  21   -0.16    0.34
  -3  10  21   -0.10    0.39
   7   3  21    0.52    0.38
  10  -2  21    1.00    0.44
  10  -8 -21    0.21    0.52
  -8  10  21    0.03    0.38
   2   8  21    0.55    0.51
   8   2  21    1.97    0.59
  -2  10  21    0.85    0.51
  10  -9 -21    1.21    0.61
   1   9  21    0.07    0.46
  10  -1  21    1.46    0.47
  -1  10  21    1.37    0.65
   9   1  21    1.46    0.53
  10   0  21    0.18    0.36
  10 -10 -21   -0.34    0.49
  -6  11  21    1.10    0.53
  11  -5  21    1.08    0.38
   5   6  21    0.90    0.63
  11  -6  21    1.70    0.45
  -5  11  21    1.16    0.59
   6   5  21    1.44    0.53
  -7  11  21    0.29    0.42
   4   7  21    0.58    0.48
  11  -4  21    0.18    0.33
  11  -7 -21   -0.25    0.49
   7   4  21    0.43    0.35
  -4  11  21    0.03    0.40
  11  -7  21    0.42    0.31
  11  -8 -21   -0.77    0.50
  11  -3  21    0.08    0.31
  -8  11  21   -0.07    0.36
  -3  11  21    0.62    0.50
   8   3  21    0.23    0.42
  11  -2  21   -0.25    0.27
   0   0  22    7.79    1.12
  -1   1  22   -0.11    0.31
   1   0  22    0.65    0.45
   0   1  22    0.66    0.41
   1   1  22    0.05    0.43
  -1   2  22   -0.22    0.28
   2  -1  22    0.06    0.35
   0   2  22    2.36    0.66
  -2   2  22    3.06    0.72
   2   0  22    3.18    0.72
   1   2  22   -0.06    0.30
   3  -1  22   -0.51    0.28
  -2   3  22    0.01    0.30
  -3   2  22   -0.19    0.31
   2   1  22    0.41    0.36
  -1   3  22   -0.10    0.32
   3  -2  22    0.12    0.31
   0   3  22    0.41    0.33
   3   0  22   -0.43    0.32
  -3   3  22    0.26    0.35
   2   2  22    3.47    0.80
   4  -2  22    3.91    0.74
  -2   4  22    3.50    0.81
   4  -1  22    1.04    0.37
  -3   4  22    0.83    0.44
   1   3  22    0.54    0.40
  -1   4  22    0.89    0.53
   3   1  22    0.17    0.30
  -4   3  22    0.89    0.44
  -4   4  22   -0.32    0.32
   4   0  22   -0.19    0.33
   0   4  22   -0.17    0.33
   5  -2  22    0.01    0.30
   2   3  22    0.49    0.44
  -3   5  22    0.69    0.42
   5  -3  22    0.88    0.39
   3   2  22    1.45    0.47
  -2   5  22    0.69    0.40
   5  -1  22    0.34    0.33
  -4   5  22    0.08    0.34
   1   4  22   -0.26    0.36
  -1   5  22    0.64    0.43
   4   1  22   -0.60    0.31
  -5   4  22    0.39    0.36
   0   5  22    1.53    0.57
   5   0  22    1.87    0.57
  -5   5  22    2.51    0.63
  -3   6  22    5.82    1.10
   6  -3  22    7.17    1.06
   3   3  22    7.74    1.28
   6  -2  22    0.27    0.31
   2   4  22    0.26    0.37
  -4   6  22    0.46    0.41
   4   2  22   -0.29    0.37
  -2   6  22    0.21    0.38
  -6   4  22    0.42    0.35
  -5   6  22    0.69    0.42
   1   5  22    0.10    0.39
   6  -1  22    0.81    0.45
  -1   6  22   -0.08    0.39
  -6   5  22    0.28    0.32
   5   1  22    1.25    0.52
  -6   6  22    1.96    0.61
   0   6  22    2.05    0.70
   6   0  22    3.78    0.75
   7  -3  22   -0.42    0.27
  -4   7  22   -0.13    0.34
   3   4  22   -0.29    0.40
  -3   7  22   -0.06    0.35
   7  -4  22   -0.25    0.24
   4   3  22    0.06    0.36
   7  -2  22    7.46    1.10
  -5   7  22    7.37    1.24
   2   5  22    7.72    1.25
  -2   7  22    7.33    1.23
  -7   5  22    7.50    1.22
   5   2  22    8.95    1.27
  -6   7  22   -0.11    0.33
   7  -1  22    0.28    0.36
   1   6  22   -0.39    0.32
  -7   6  22    0.95    0.43
  -1   7  22    0.21    0.44
   6   1  22    0.28    0.35
  -7   7  22    1.51    0.56
   7   0  22    0.85    0.43
   0   7  22    0.25    0.51
   4   4  22    1.73    0.63
   8  -4  22    0.98    0.41
  -4   8  22    1.17    0.49
   8  -3  22    0.72    0.39
  -5   8  22    0.21    0.36
   3   5  22    0.63    0.49
  -3   8  22   -0.29    0.41
   5   3  22   -0.01    0.33
   8  -5  22   -0.09    0.30
   2   6  22    0.50    0.47
  -6   8  22    0.33    0.46
   8  -2  22    0.75    0.36
  -8   6  22    0.23    0.39
  -2   8  22   -0.22    0.34
   6   2  22   -0.12    0.35
   1   7  22    0.18    0.41
   8  -1  22    0.13    0.35
  -7   8  22   -0.07    0.33
  -1   8  22   -0.78    0.35
  -8   7  22    0.98    0.41
   7   1  22   -0.49    0.29
   0   8  22   -0.49    0.40
   8   0  22    0.80    0.44
  -8   8  22    0.20    0.37
  -5   9  22    0.74    0.47
   4   5  22    0.23    0.41
   9  -4  22    0.81    0.40
  -4   9  22    0.08    0.40
   5   4  22    0.23    0.48
   9  -5  22    0.43    0.35
   3   6  22    1.72    0.66
   9  -3  22    1.90    0.53
  -6   9  22    0.99    0.52
  -9   6  22    0.47    0.38
  -3   9  22    1.05    0.58
   6   3  22    1.72    0.63
   9  -2  22    0.89    0.40
  -7   9  22    0.03    0.36
   7   2  22   -0.04    0.33
  -2   9  22    0.10    0.38
  -9   7  22    0.44    0.42
   1   0  23   -0.31    0.32
   0   1  23   -0.22    0.32
   1   1  23    1.71    0.64
  -1   2  23    1.39    0.54
  -2   2  23   -0.69    0.29
   0   2  23   -0.03    0.32
   2   0  23   -0.36    0.30
  -2   3  23   -0.12    0.33
   1   2  23   -0.31    0.31
   3  -1  23    1.24    0.49
   2   1  23    0.94    0.42
  -1   3  23   -0.28    0.32
  -3   3  23    0.10    0.33
   0   3  23   -0.12    0.35
   3   0  23   -0.67    0.33
  -2   4  23    0.59    0.39
   2   2  23    0.62    0.39
   4  -1  23    3.13    0.71
  -3   4  23    3.84    0.84
   1   3  23    2.03    0.61
  -1   4  23    1.51    0.60
   3   1  23    3.52    0.83
  -4   4  23    0.33    0.41
   0   4  23    0.27    0.35
   4   0  23    0.34    0.33
  -3   5  23    0.19    0.34
   2   3  23    0.14    0.37
   5  -2  23    0.02    0.34
  -2   5  23   -0.80    0.30
   3   2  23   -0.20    0.34
  -4   5  23    2.58    0.68
   1   4  23    3.13    0.74
   5  -1  23    2.90    0.66
  -1   5  23    2.50    0.74
  -5   4  23    3.52    0.81
   4   1  23    3.54    0.81
   0   5  23   -0.10    0.32
  -5   5  23    0.26    0.35
   5   0  23   -0.11    0.30
   3   3  23    5.97    1.10
   6  -3  23    6.00    0.93
  -3   6  23    4.16    0.93
   2   4  23    2.22    0.67
  -4   6  23    0.18    0.36
   6  -2  23    0.13    0.37
  -2   6  23    0.79    0.53
   4   2  23    0.60    0.47
  -5   6  23    0.36    0.39
   1   5  23    0.02    0.37
   6  -1  23    0.49    0.43
   5   1  23   -0.41    0.38
  -1   6  23   -0.39    0.36
  -6   5  23    0.25    0.34
   0   0   0    0.00    0.00
;
_shelx_hkl_checksum              29251
loop_
_space_group_symop_operation_xyz
'x, y, z'
'-y, x-y, z'
'-x+y, -x, z'
'-x, -y, z+1/2'
'y, -x+y, z+1/2'
'x-y, x, z+1/2'
'-y, -x, z+1/2'
'-x+y, y, z+1/2'
'x, x-y, z+1/2'
'y, x, z'
'x-y, -y, z'
'-x, -x+y, z'
loop_
_atom_site_label
_atom_site_type_symbol
_atom_site_fract_x
_atom_site_fract_y
_atom_site_fract_z
_atom_site_U_iso_or_equiv
_atom_site_adp_type
_atom_site_occupancy
_atom_site_site_symmetry_order
_atom_site_calc_flag
_atom_site_refinement_flags_posn
_atom_site_refinement_flags_adp
_atom_site_refinement_flags_occupancy
Zn1 Zn 0.34910(7) 0.34910(7) 0.82824(7) 0.0413(3) Uani 1 2 d S TU P
Zn2 Zn 0.24313(5) 0.34157(5) 0.67044(5) 0.0376(2) Uani 1 1 d . U .
O1 O 0.3435(4) 0.3435(4) 0.7127(4) 0.0380(17) Uani 1 2 d S TU P
O2 O 0.2119(4) 0.2819(4) 0.5755(3) 0.0518(16) Uani 1 1 d . U .
O3 O 0.3176(5) 0.2243(4) 0.8426(4) 0.068(2) Uani 1 1 d . U .
O4 O 0.2713(4) 0.1516(4) 0.7373(3) 0.0515(15) Uani 1 1 d . U .
C1 C 0.2391(6) 0.2391(6) 0.5452(5) 0.037(2) Uani 1 2 d S TU P
C2 C 0.2224(6) 0.2224(6) 0.4642(5) 0.035(2) Uani 1 2 d S TU P
C3 C 0.1777(5) 0.2537(5) 0.4250(4) 0.0377(17) Uani 1 1 d . U .
H3A H 0.1557 0.2830 0.4507 0.045 Uiso 1 1 calc R U .
C4 C 0.1658(5) 0.2417(5) 0.3496(4) 0.0375(17) Uani 1 1 d . U .
C5 C 0.1977(6) 0.1977(6) 0.3111(6) 0.042(3) Uani 1 2 d S TU P
H5A H 0.1896 0.1896 0.2595 0.051 Uiso 1 2 calc R U P
O5 O 0.2365(4) 0.4420(3) 0.6548(3) 0.0522(16) Uani 1 1 d . U .
O6 O 0.3681(5) 0.4860(4) 0.6214(5) 0.072(2) Uani 1 1 d . U .
C6 C 0.2792(5) 0.1574(5) 0.8065(4) 0.0425(19) Uani 1 1 d . U .
C7 C 0.3086(6) 0.4990(6) 0.6330(6) 0.054(2) Uani 1 1 d . U .
C8 C 0.3216(6) 0.5859(5) 0.6244(6) 0.053(2) Uani 1 1 d . U .
C9 C 0.2524(6) 0.5987(6) 0.6245(6) 0.055(2) Uani 1 1 d . U .
H9A H 0.1976 0.5522 0.6247 0.066 Uiso 1 1 calc R U .
O7 O 0.3658(5) 0.3658(5) 0.9426(5) 0.056(2) Uani 1 2 d S TU P
C10 C 0.3175(9) 0.3175(9) 0.9891(8) 0.063(4) Uani 1 2 d S TU P
H10A H 0.2689 0.2689 0.9727 0.075 Uiso 1 2 calc R U P
N1 N 0.3302(9) 0.3302(9) 1.0624(7) 0.083(5) Uani 1 2 d DS TU P
C11 C 0.2666(15) 0.2666(15) 1.1105(12) 0.154(12) Uani 1 2 d DS TU P
H11A H 0.2821 0.2821 1.1621 0.231 Uiso 1 2 calc R U P
H11B H 0.2128 0.2626 1.1007 0.231 Uiso 0.5 1 calc R U P
H11C H 0.2626 0.2128 1.1007 0.231 Uiso 0.5 1 calc R U P
O8 O 0.3894(7) 0.4791(5) 0.8213(4) 0.101(3) Uani 1 1 d . U .
N2 N 0.4660(11) 0.6110(8) 0.8620(8) 0.150(7) Uani 1 1 d D U .
C12 C 0.4063(12) 0.4063(12) 1.0897(16) 0.123(8) Uiso 1 2 d DS U P
H12A H 0.4065 0.4065 1.1437 0.185 Uiso 1 2 calc R U P
H12B H 0.4560 0.4062 1.0716 0.185 Uiso 0.5 1 calc R U P
H12C H 0.4062 0.4560 1.0716 0.185 Uiso 0.5 1 calc R U P
C13 C 0.4218(10) 0.5312(12) 0.8655(11) 0.115(5) Uiso 1 1 d . U .
H13A H 0.4138 0.5104 0.9144 0.138 Uiso 1 1 calc R U .
C15 C 0.5169(17) 0.6557(18) 0.8016(16) 0.224(13) Uiso 1 1 d D U .
H15A H 0.5443 0.7155 0.8118 0.336 Uiso 1 1 calc R U .
H15B H 0.5591 0.6395 0.7938 0.336 Uiso 1 1 calc R U .
H15C H 0.4826 0.6431 0.7572 0.336 Uiso 1 1 calc R U .
C14 C 0.4957(19) 0.6641(18) 0.9295(16) 0.243(15) Uiso 1 1 d D U .
H14A H 0.5282 0.7227 0.9152 0.364 Uiso 1 1 calc R U .
H14B H 0.4477 0.6553 0.9590 0.364 Uiso 1 1 calc R U .
H14C H 0.5307 0.6490 0.9587 0.364 Uiso 1 1 calc R U .
N3 N 0.0000 0.0000 0.142(8) 0.50(6) Uiso 1 6 d DS U P
C17 C 0.0000 0.0000 0.223(8) 0.47(7) Uiso 1 6 d DS U P
C16 C -0.073(3) -0.073(3) 0.112(8) 0.48(8) Uiso 0.3333 2 d DS U P
O9 O 0.0000 0.0000 0.442(7) 0.52(6) Uiso 1 6 d S . P
O10 O 0.082(7) 0.082(7) 1.056(8) 0.34(7) Uiso 0.3333 2 d S . P
loop_
_atom_site_aniso_label
_atom_site_aniso_U_11
_atom_site_aniso_U_22
_atom_site_aniso_U_33
_atom_site_aniso_U_23
_atom_site_aniso_U_13
_atom_site_aniso_U_12
Zn1 0.0421(5) 0.0421(5) 0.0217(6) -0.0008(5) -0.0008(5) 0.0077(5)
Zn2 0.0507(5) 0.0465(5) 0.0202(4) -0.0001(5) 0.0044(5) 0.0278(4)
O1 0.040(3) 0.040(3) 0.021(4) 0.006(2) 0.006(2) 0.011(3)
O2 0.072(4) 0.082(5) 0.024(3) -0.013(3) -0.006(3) 0.056(4)
O3 0.109(6) 0.047(3) 0.024(3) 0.002(3) -0.011(3) 0.022(4)
O4 0.066(4) 0.051(3) 0.020(3) 0.008(2) -0.003(3) 0.016(3)
C1 0.043(4) 0.043(4) 0.018(5) 0.000(4) 0.000(4) 0.016(5)
C2 0.048(4) 0.048(4) 0.015(4) 0.002(4) 0.002(4) 0.028(5)
C3 0.052(4) 0.047(4) 0.018(3) 0.003(3) 0.001(3) 0.027(4)
C4 0.048(4) 0.047(4) 0.019(3) 0.002(3) -0.002(3) 0.024(4)
C5 0.050(5) 0.050(5) 0.023(5) -0.002(4) -0.002(4) 0.022(5)
O5 0.052(3) 0.046(3) 0.056(5) 0.002(3) 0.005(3) 0.023(3)
O6 0.071(5) 0.057(4) 0.102(6) 0.020(4) 0.025(4) 0.042(4)
C6 0.052(5) 0.049(4) 0.023(4) 0.004(3) -0.003(3) 0.022(4)
C7 0.054(5) 0.046(5) 0.061(6) 0.000(4) 0.001(5) 0.024(4)
C8 0.050(5) 0.041(4) 0.071(7) 0.001(4) -0.003(4) 0.024(4)
C9 0.037(5) 0.046(5) 0.075(7) -0.006(5) -0.002(4) 0.015(4)
O7 0.063(4) 0.063(4) 0.025(4) -0.004(3) -0.004(3) 0.019(5)
C10 0.077(7) 0.077(7) 0.033(6) 0.010(5) 0.010(5) 0.038(8)
N1 0.127(10) 0.127(10) 0.037(6) 0.019(6) 0.019(6) 0.094(10)
C11 0.22(2) 0.22(2) 0.079(15) 0.090(16) 0.090(16) 0.16(2)
O8 0.176(9) 0.061(4) 0.036(4) -0.018(4) -0.026(5) 0.037(5)
N2 0.196(15) 0.057(7) 0.094(10) -0.015(6) 0.011(9) -0.013(8)
loop_
_atom_type_symbol
_atom_type_description
_atom_type_scat_dispersion_real
_atom_type_scat_dispersion_imag
_atom_type_scat_source
C C 0.0033 0.0016 'International Tables Vol C Tables 4.2.6.8 and 6.1.1.4'
H H 0.0000 0.0000 'International Tables Vol C Tables 4.2.6.8 and 6.1.1.4'
N N 0.0061 0.0033 'International Tables Vol C Tables 4.2.6.8 and 6.1.1.4'
O O 0.0106 0.0060 'International Tables Vol C Tables 4.2.6.8 and 6.1.1.4'
Zn Zn 0.2839 1.4301 'International Tables Vol C Tables 4.2.6.8 and 6.1.1.4'
loop_
_geom_angle_atom_site_label_1
_geom_angle_atom_site_label_2
_geom_angle_atom_site_label_3
_geom_angle
_geom_angle_site_symmetry_1
_geom_angle_site_symmetry_3
O1 Zn1 O7 174.4(4) . .
O1 Zn1 O3 95.1(2) . 10
O7 Zn1 O3 88.8(3) . 10
O1 Zn1 O3 95.2(2) . .
O7 Zn1 O3 88.8(3) . .
O3 Zn1 O3 91.0(5) 10 .
O1 Zn1 O8 88.7(3) . .
O7 Zn1 O8 87.1(3) . .
O3 Zn1 O8 92.1(4) 10 .
O3 Zn1 O8 174.8(3) . .
O1 Zn1 O8 88.7(3) . 10
O7 Zn1 O8 87.1(3) . 10
O3 Zn1 O8 174.8(3) 10 10
O3 Zn1 O8 92.1(4) . 10
O8 Zn1 O8 84.6(7) . 10
O5 Zn2 O4 106.1(3) . 10
O5 Zn2 O2 105.6(3) . .
O4 Zn2 O2 104.7(3) 10 .
O5 Zn2 O1 122.9(3) . .
O4 Zn2 O1 105.3(3) 10 .
O2 Zn2 O1 110.8(3) . .
O5 Zn2 Zn2 151.99(18) . 10
O4 Zn2 Zn2 100.1(2) 10 10
O2 Zn2 Zn2 76.62(16) . 10
O1 Zn2 Zn2 37.66(18) . 10
Zn2 O1 Zn2 104.7(4) 10 .
Zn2 O1 Zn1 114.0(2) 10 .
Zn2 O1 Zn1 114.0(2) . .
C1 O2 Zn2 129.6(6) . .
C6 O3 Zn1 136.7(6) . .
C6 O4 Zn2 122.9(6) . 10
O2 C1 O2 126.4(10) . 10
O2 C1 C2 116.8(5) . .
O2 C1 C2 116.8(5) 10 .
C3 C2 C3 118.8(9) 10 .
C3 C2 C1 120.6(5) 10 .
C3 C2 C1 120.6(5) . .
C4 C3 C2 120.6(8) . .
C4 C3 H3A 119.7 . .
C2 C3 H3A 119.7 . .
C3 C4 C5 120.2(8) . .
C3 C4 C6 120.8(7) . 6_554
C5 C4 C6 119.0(7) . 6_554
C4 C5 C4 119.8(10) . 10
C4 C5 H5A 120.1 . .
C4 C5 H5A 120.1 10 .
C7 O5 Zn2 107.1(6) . .
O4 C6 O3 125.8(8) . .
O4 C6 C4 116.7(7) . 5
O3 C6 C4 117.5(7) . 5
O6 C7 O5 123.0(9) . .
O6 C7 C8 119.9(9) . .
O5 C7 C8 117.0(8) . .
C9 C8 C9 119.6(9) 2_665 .
C9 C8 C7 119.8(9) 2_665 .
C9 C8 C7 120.2(8) . .
C8 C9 C8 120.4(9) 3_565 .
C8 C9 H9A 119.8 3_565 .
C8 C9 H9A 119.8 . .
C10 O7 Zn1 124.8(10) . .
O7 C10 N1 123.2(16) . .
O7 C10 H10A 118.4 . .
N1 C10 H10A 118.4 . .
C10 N1 C11 116.4(18) . .
C10 N1 C12 119.4(17) . .
C11 N1 C12 124.2(19) . .
N1 C11 H11A 109.5 . .
N1 C11 H11B 109.5 . .
H11A C11 H11B 109.5 . .
N1 C11 H11C 109.5 . .
H11A C11 H11C 109.5 . .
H11B C11 H11C 109.5 . .
C13 O8 Zn1 129.7(11) . .
C13 N2 C15 125(2) . .
C13 N2 C14 122.0(19) . .
C15 N2 C14 109.3(19) . .
N1 C12 H12A 109.5 . .
N1 C12 H12B 109.5 . .
H12A C12 H12B 109.5 . .
N1 C12 H12C 109.5 . .
H12A C12 H12C 109.5 . .
H12B C12 H12C 109.5 . .
O8 C13 N2 133.5(19) . .
O8 C13 H13A 113.3 . .
N2 C13 H13A 113.3 . .
N2 C15 H15A 109.4 . .
N2 C15 H15B 109.5 . .
H15A C15 H15B 109.5 . .
N2 C15 H15C 109.5 . .
H15A C15 H15C 109.5 . .
H15B C15 H15C 109.5 . .
N2 C14 H14A 109.5 . .
N2 C14 H14B 109.5 . .
H14A C14 H14B 109.5 . .
N2 C14 H14C 109.5 . .
H14A C14 H14C 109.5 . .
H14B C14 H14C 109.5 . .
C17 N3 C16 112(3) . .
C17 N3 C16 112(3) . 3
C16 N3 C16 107(3) . 3
C17 N3 C16 112(3) . 2
C16 N3 C16 107(3) . 2
C16 N3 C16 107(3) 3 2
N3 C16 O10 84(4) . 3_554
N3 C16 O10 84(4) . 2_554
O10 C16 O10 97(10) 3_554 2_554
C16 O10 C16 83(6) 3_556 2_556
loop_
_geom_bond_atom_site_label_1
_geom_bond_atom_site_label_2
_geom_bond_distance
_geom_bond_site_symmetry_2
Zn1 O1 2.078(8) .
Zn1 O7 2.077(8) .
Zn1 O3 2.081(7) 10
Zn1 O3 2.081(7) .
Zn1 O8 2.122(8) .
Zn1 O8 2.122(8) 10
Zn2 O5 1.929(6) .
Zn2 O4 1.940(5) 10
Zn2 O2 1.951(6) .
Zn2 O1 1.978(5) .
Zn2 Zn2 3.132(2) 10
O1 Zn2 1.978(5) 10
O2 C1 1.248(7) .
O3 C6 1.250(10) .
O4 C6 1.250(9) .
O4 Zn2 1.940(5) 10
C1 O2 1.248(7) 10
C1 C2 1.488(14) .
C2 C3 1.403(9) 10
C2 C3 1.403(9) .
C3 C4 1.373(10) .
C3 H3A 0.9400 .
C4 C5 1.395(9) .
C4 C6 1.512(11) 6_554
C5 C4 1.395(9) 10
C5 H5A 0.9400 .
O5 C7 1.272(11) .
O6 C7 1.248(12) .
C6 C4 1.512(11) 5
C7 C8 1.499(13) .
C8 C9 1.369(13) 2_665
C8 C9 1.403(12) .
C9 C8 1.369(12) 3_565
C9 H9A 0.9400 .
O7 C10 1.219(16) .
C10 N1 1.34(2) .
C10 H10A 0.9400 .
N1 C11 1.451(19) .
N1 C12 1.48(2) .
C11 H11A 0.9700 .
C11 H11B 0.9700 .
C11 H11C 0.9700 .
O8 C13 1.154(19) .
N2 C13 1.27(2) .
N2 C15 1.40(2) .
N2 C14 1.48(2) .
C12 H12A 0.9700 .
C12 H12B 0.9700 .
C12 H12C 0.9700 .
C13 H13A 0.9400 .
C15 H15A 0.9700 .
C15 H15B 0.9700 .
C15 H15C 0.9700 .
C14 H14A 0.9700 .
C14 H14B 0.9700 .
C14 H14C 0.9700 .
N3 C17 1.45(3) .
N3 C16 1.45(3) .
N3 C16 1.45(3) 3
N3 C16 1.45(3) 2
C16 O10 1.75(11) 3_554
C16 O10 1.75(11) 2_554
O10 C16 1.75(11) 3_556
O10 C16 1.75(11) 2_556
