#------------------------------------------------------------------------------
#$Date: 2019-11-23 10:17:45 +0200 (Sat, 23 Nov 2019) $
#$Revision: 232838 $
#$URL: file:///home/coder/svn-repositories/cod/cif/4/34/82/4348235.cif $
#------------------------------------------------------------------------------
#
# This file is available in the Crystallography Open Database (COD),
# http://www.crystallography.net/
#
# All data on this site have been placed in the public domain by the
# contributors.
#
data_4348235
loop_
_publ_author_name
'Milin, Eric'
'Patinec, V\'eronique'
'Triki, Smail'
'Bendeif, El-Eulmi'
'Pillet, S\'ebastien'
'Marchivie, Mathieu'
'Chastanet, Guillaume'
'Boukheddaden, Kamel'
_publ_section_title
;
 Elastic Frustration Triggering Photoinduced Hidden Hysteresis and
 Multistability in a Two-Dimensional Photoswitchable Hofmann-Like
 Spin-Crossover Metal-Organic Framework.
;
_journal_issue                   22
_journal_name_full               'Inorganic chemistry'
_journal_page_first              11652
_journal_page_last               11661
_journal_paper_doi               10.1021/acs.inorgchem.6b01081
_journal_volume                  55
_journal_year                    2016
_chemical_formula_moiety         'C18 H12 Fe N12 Pt, 3(H2 O)'
_chemical_formula_sum            'C18 H18 Fe N12 O3 Pt'
_chemical_formula_weight         701.38
_space_group_crystal_system      monoclinic
_space_group_IT_number           15
_space_group_name_Hall           '-C 2yc'
_space_group_name_H-M_alt        'C 1 2/c 1'
_atom_sites_solution_hydrogens   mixed
_audit_creation_method           SHELXL-2014/7
_cell_angle_alpha                90
_cell_angle_beta                 111.264(9)
_cell_angle_gamma                90
_cell_formula_units_Z            8
_cell_length_a                   24.9520(19)
_cell_length_b                   7.3964(5)
_cell_length_c                   27.129(2)
_cell_measurement_reflns_used    15577
_cell_measurement_temperature    10(5)
_cell_measurement_theta_max      30.507
_cell_measurement_theta_min      2.890
_cell_volume                     4665.9(7)
_computing_cell_refinement       'CRYSALIS Oxford Diffraction (2004)'
_computing_data_collection       'CRYSALIS Oxford Diffraction (2004)'
_computing_data_reduction        'CRYSALIS Oxford Diffraction (2004)'
_computing_structure_refinement  'SHELXL-2014/7 (Sheldrick, 2014)'
_computing_structure_solution    'SHELXS-97 (Sheldrick, 2008)'
_diffrn_ambient_temperature      10(5)
_diffrn_measured_fraction_theta_full 0.985
_diffrn_measured_fraction_theta_max 0.978
_diffrn_measurement_device_type  'SuperNova, Dual, Cu at zero, Atlas'
_diffrn_measurement_method       'omega scans'
_diffrn_radiation_type           MoK\a
_diffrn_radiation_wavelength     0.71073
_diffrn_reflns_av_R_equivalents  0.0571
_diffrn_reflns_av_unetI/netI     0.0896
_diffrn_reflns_Laue_measured_fraction_full 0.985
_diffrn_reflns_Laue_measured_fraction_max 0.978
_diffrn_reflns_limit_h_max       34
_diffrn_reflns_limit_h_min       -35
_diffrn_reflns_limit_k_max       9
_diffrn_reflns_limit_k_min       -10
_diffrn_reflns_limit_l_max       29
_diffrn_reflns_limit_l_min       -38
_diffrn_reflns_number            15577
_diffrn_reflns_point_group_measured_fraction_full 0.985
_diffrn_reflns_point_group_measured_fraction_max 0.978
_diffrn_reflns_theta_full        25.242
_diffrn_reflns_theta_max         30.507
_diffrn_reflns_theta_min         2.890
_diffrn_source                   'SuperNova (Mo) X-ray Source'
_exptl_absorpt_coefficient_mu    6.659
_exptl_absorpt_correction_T_max  0.706
_exptl_absorpt_correction_T_min  0.456
_exptl_absorpt_correction_type   gaussian
_exptl_absorpt_process_details
;
Absorption correction were performed using CRYSALIS Oxford Diffraction (2004)
;
_exptl_crystal_colour            pink
_exptl_crystal_density_diffrn    1.997
_exptl_crystal_density_meas      ?
_exptl_crystal_description       block
_exptl_crystal_F_000             2704
_exptl_crystal_size_max          0.1500
_exptl_crystal_size_mid          0.1295
_exptl_crystal_size_min          0.0611
_refine_diff_density_max         3.327
_refine_diff_density_min         -2.772
_refine_diff_density_rms         0.269
_refine_ls_extinction_method     none
_refine_ls_goodness_of_fit_ref   1.189
_refine_ls_hydrogen_treatment    mixed
_refine_ls_matrix_type           full
_refine_ls_number_parameters     336
_refine_ls_number_reflns         6978
_refine_ls_number_restraints     85
_refine_ls_restrained_S_all      1.182
_refine_ls_R_factor_all          0.1035
_refine_ls_R_factor_gt           0.0622
_refine_ls_shift/su_max          0.033
_refine_ls_shift/su_mean         0.000
_refine_ls_structure_factor_coef Fsqd
_refine_ls_weighting_details
'w=1/[\s^2^(Fo^2^)+(0.0273P)^2^+14.2307P] where P=(Fo^2^+2Fc^2^)/3'
_refine_ls_weighting_scheme      calc
_refine_ls_wR_factor_gt          0.1059
_refine_ls_wR_factor_ref         0.1191
_reflns_Friedel_coverage         0.000
_reflns_number_gt                4590
_reflns_number_total             6978
_reflns_threshold_expression     'I > 2\s(I)'
_cod_data_source_file            ic6b01081_si_002.cif
_cod_data_source_block           Fe(trz-py)2(Pt(CN)4_HS2
_cod_depositor_comments
;
The following automatic conversions were performed:

data item '_exptl_crystal_density_meas' value 'not measured' was
changed to '?' -- the value is perceived as not measured.

Automatic conversion script
Id: cif_fix_values 6909 2019-04-08 15:41:33Z antanas 
;
_cod_original_sg_symbol_H-M      'C 2/c'
_cod_database_code               4348235
_shelx_shelxl_version_number     2014/7
_shelx_space_group_comment
;
The symmetry employed for this shelxl refinement is uniquely defined
by the following loop, which should always be used as a source of
symmetry information in preference to the above space-group names.
They are only intended as comments.
;
_shelx_res_file
;

    shelx.res created by SHELXL-2014/7


TITL 120k-mc in space group C 1 2/c 1
CELL  0.71073 24.952050   7.396353  27.129121    90.0000   111.2637    90.0000
ZERR     8.00   0.001933   0.000525   0.002089     0.0000     0.0088     0.0000
LATT   7
SYMM  - X,   Y, 1/2 - Z
SFAC  C    H    FE   N    O    PT
UNIT  144  144  8    96   24   8
MERG   2
OMIT 0 2 0
ISOR 0.0005  0.0005 C3 C1 C5 N10 N1 N6 N3 C7 C2 C6 C4 C10 C15 C14
DFIX 0.86 0.001 O3 H3B
SHEL 20.0 0.7
FMAP   2
PLAN   10
ACTA
BOND   $H
LIST   4
L.S.  10
WGHT    0.027300   14.230700
FVAR       0.35179
PT1   6    0.360329    0.744012    0.634105    11.00000    0.00625    0.00356 =
         0.00407   -0.00071    0.00061    0.00018
FE2   3    0.500000    1.240159    0.750000    10.50000    0.00606    0.00221 =
         0.00416    0.00000    0.00073    0.00000
FE1   3    0.250000    0.250000    0.500000    10.50000    0.00620    0.00423 =
         0.00431    0.00126    0.00077    0.00002
N7    4    0.113481    0.219568    0.559676    11.00000    0.00766    0.00895 =
         0.00738   -0.00081    0.00499   -0.00261
N12   4    0.555108    1.151974    0.551849    11.00000    0.00849    0.00705 =
         0.00417   -0.00145    0.00229    0.00198
C9    1    0.102117    0.284007    0.690118    11.00000    0.01542    0.00452 =
         0.01079   -0.00393    0.00226    0.00227
AFIX  43
H9    2    0.123285    0.324871    0.724046    11.00000   -1.20000
AFIX   0
C1    1    0.308031    0.558213    0.587325    11.00000    0.00546    0.00552 =
         0.00546   -0.00006    0.00209    0.00012
N8    4    0.040215    0.149865    0.590015    11.00000    0.00869    0.00580 =
         0.00632    0.00163    0.00098   -0.00079
C8    1    0.125456    0.291400    0.651015    11.00000    0.00718    0.00210 =
         0.00879   -0.00005    0.00281   -0.00154
AFIX  43
H8    2    0.161560    0.341097    0.657233    11.00000   -1.20000
AFIX   0
N10   4    0.612147    1.269999    0.725287    11.00000    0.00823    0.00807 =
         0.00827    0.00005    0.00286    0.00024
N3    4    0.445113    1.037010    0.702231    11.00000    0.00675    0.00660 =
         0.00666   -0.00025    0.00235    0.00018
C3    1    0.413003    0.931014    0.677281    11.00000    0.00535    0.00513 =
         0.00528   -0.00005    0.00201    0.00017
N4    4    0.443087    0.443406    0.702882    11.00000    0.01116    0.00430 =
         0.01070    0.00004    0.00462   -0.00378
C17   1    0.610363    1.179897    0.495887    11.00000    0.00968    0.00575 =
         0.00709    0.00173    0.00138    0.00233
AFIX  43
H17   2    0.612732    1.161595    0.462823    11.00000   -1.20000
AFIX   0
N6    4    0.115580    0.187002    0.479051    11.00000    0.00687    0.00697 =
         0.00694   -0.00018    0.00234    0.00012
C18   1    0.561339    1.130036    0.505225    11.00000    0.01566    0.01072 =
         0.00574   -0.00120   -0.00174    0.00512
AFIX  43
H18   2    0.531131    1.078547    0.477607    11.00000   -1.20000
AFIX   0
N1    4    0.280094    0.454215    0.558892    11.00000    0.00698    0.00713 =
         0.00718   -0.00006    0.00261    0.00008
C11   1    0.017002    0.150733    0.627924    11.00000    0.00782    0.00796 =
         0.01602    0.00161    0.00490    0.00478
AFIX  43
H11   2   -0.020128    0.106761    0.619847    11.00000   -1.20000
AFIX   0
C12   1    0.542171    1.218678    0.649958    11.00000    0.00521    0.00961 =
         0.00626    0.00140    0.00321    0.00216
AFIX  43
H12   2    0.506158    1.195149    0.624485    11.00000   -1.20000
AFIX   0
C10   1    0.046912    0.215352    0.678661    11.00000    0.00980    0.00964 =
         0.00971    0.00009    0.00359    0.00010
AFIX  43
H10   2    0.030418    0.212784    0.704381    11.00000   -1.20000
AFIX   0
C15   1    0.651141    1.281191    0.585291    11.00000    0.01001    0.00982 =
         0.00993   -0.00002    0.00358   -0.00006
AFIX  43
H15   2    0.680786    1.332964    0.613352    11.00000   -1.20000
AFIX   0
C13   1    0.633737    1.272506    0.687977    11.00000    0.00767    0.00633 =
         0.00636   -0.00269    0.00187    0.00281
AFIX  43
H13   2    0.672215    1.293829    0.693488    11.00000   -1.20000
AFIX   0
C5    1    0.166900    0.256705    0.561109    11.00000    0.00704    0.00699 =
         0.00718   -0.00002    0.00241    0.00013
AFIX  43
H5    2    0.197663    0.289760    0.591337    11.00000   -1.20000
AFIX   0
C14   1    0.599813    1.223908    0.590620    11.00000    0.00631    0.00612 =
         0.00619    0.00000    0.00226    0.00005
C6    1    0.082437    0.175113    0.507501    11.00000    0.00409    0.00413 =
         0.00417    0.00007    0.00145    0.00000
AFIX  43
H6    2    0.043879    0.141736    0.494356    11.00000   -1.20000
AFIX   0
N2    4    0.286164    1.047298    0.559553    11.00000    0.00662    0.00814 =
         0.00873   -0.00116    0.00092   -0.00179
N11   4    0.592028    1.239526    0.639859    11.00000    0.00929    0.00668 =
         0.00336   -0.00066    0.00073    0.00462
C7    1    0.092100    0.220607    0.601892    11.00000    0.00565    0.00559 =
         0.00565    0.00011    0.00219    0.00011
N5    4    0.169372    0.239799    0.514236    11.00000    0.00518    0.01575 =
         0.00801   -0.00626   -0.00100    0.00509
C16   1    0.655470    1.256815    0.536174    11.00000    0.00588    0.01105 =
         0.00973    0.00547    0.00600    0.00567
AFIX  43
H16   2    0.688555    1.292138    0.530529    11.00000   -1.20000
AFIX   0
N9    4    0.552707    1.236621    0.700189    11.00000    0.00719    0.01453 =
         0.00855   -0.00035    0.00258   -0.00106
C4    1    0.412298    0.551427    0.679262    11.00000    0.00786    0.00783 =
         0.00795    0.00001    0.00292   -0.00014
C2    1    0.311975    0.935711    0.588047    11.00000    0.00964    0.00963 =
         0.00968   -0.00010    0.00333   -0.00002
O1    5    0.694839    1.245128    0.826437    11.00000    0.01061    0.01105 =
         0.00772    0.00069    0.00284   -0.00218
H1A   2    0.661828    1.269920    0.798574    11.00000   -1.20000
H1B   2    0.680601    1.249300    0.849595    11.00000   -1.20000
O2    5    0.749609    1.544449    0.800499    11.00000    0.00855    0.00845 =
         0.00838    0.00065    0.00141    0.00167
H2A   2    0.726346    1.469894    0.811203    11.00000   -1.20000
H2B   2    0.736529    1.638093    0.806861    11.00000   -1.20000
O3    5    0.736567    0.923290    0.791962    11.00000    0.00791    0.01119 =
         0.01450   -0.00118    0.00510    0.00120
H3A   2    0.750039    0.978260    0.776076    11.00000   -1.20000
H3B   2    0.709149    0.984060    0.796160    11.00000   -1.20000
HKLF    4

REM  120k-mc in space group C 1 2/c 1
REM R1 =  0.0622 for    4590 Fo > 4sig(Fo)  and  0.1035 for all    6978 data
REM    336 parameters refined using     85 restraints

END

WGHT      0.0270     15.7149

REM Highest difference peak  3.327,  deepest hole -2.772,  1-sigma level  0.269
Q1    1   0.3944  0.7472  0.6289  11.00000  0.05    3.33
Q2    1   0.3220  0.7552  0.6251  11.00000  0.05    3.28
Q3    1   0.5863  1.2594  0.4026  11.00000  0.05    2.63
Q4    1   0.3196  0.7434  0.6703  11.00000  0.05    2.15
Q5    1   0.2807  0.2558  0.4827  11.00000  0.05    2.12
Q6    1   0.3941  0.7992  0.6733  11.00000  0.05    1.77
Q7    1   0.3581  0.5893  0.6318  11.00000  0.05    1.67
Q8    1  -0.0386  0.2213  0.6094  11.00000  0.05    1.63
Q9    1   0.4687  1.2315  0.7586  11.00000  0.05    1.51
Q10   1   0.3308  0.8045  0.5920  11.00000  0.05    1.37
;
_shelx_res_checksum              48400
_shelx_hkl_file
;
   0   0  -5 129.194 62.0606   4
   0   0   5 4.79636 36.0224   1
   0   0  -5 36.9679 50.9931   1
   0   0  -6 17589.0 475.974   4
   0   0   6 16981.0 460.420   1
   0   0  -7 68.7957 91.5399   4
   0   0   7 41.7062 59.8770   1
   0   0  -8 13014.8 492.142   4
   0   0   8 12698.8 461.810   1
   0   0   9 123.864 85.1005   1
   0   0  -9 162.904 111.425   4
   0   0 -10 171.113 90.3471   4
   0   0  10 273.772 103.444   1
   0   0 -11 45.9670 71.4144   4
   0   0  11 5.39228 53.0141   1
   0   0 -12 6547.18 440.556   4
   0   0  12 5805.69 356.616   1
   0   0 -13 142.453 147.858   4
   0   0  13 5.00522 50.6708   1
   0   0 -14 24316.7 903.856   4
   0   0  14 24200.8 765.037   1
   0   0 -15 493.314 212.697   4
   0   0 -16 27641.7 1040.27   4
   0   0 -17 313.144 209.306   4
   0   0 -18 19555.2 931.414   4
   0   0 -19 335.006 225.150   4
   0   0 -20 738.265 249.752   4
   0   0 -20 749.899 180.265   2
   0   0 -21 416.102 239.538   4
   0   0 -21 41.4759 87.1855   2
   0   0 -22 21725.9 839.302   2
   0   0 -22 20683.1 1092.57   4
   0   0 -23 288.495 116.773   2
   0   0 -23 244.440 218.945   4
   0   0 -24 3041.42 329.868   2
   0   0 -24 2745.61 459.320   4
   0   0 -25 129.615 116.510   2
   0   0 -25 139.346 149.529   4
   0   0 -26 20883.1 1219.90   4
   0   0 -26 20976.9 882.381   2
   0   0 -27 420.013 147.887   2
   0   0 -27 428.261 273.059   4
   0   0 -28 225.058 203.808   4
   0   0 -28 256.039 130.234   2
   0   0 -29 318.641 219.683   4
   0   0 -30 10013.9 944.287   4
   0   0 -31 353.481 273.688   4
   0   0 -32 150.796 193.589   4
   0   0 -33 152.408 215.253   4
   0   0 -34 1984.54 458.879   4
   0   0 -35 341.195 234.328   4
   0   0 -36 4530.44 744.992   4
   0  -2   0 202822. 1495.93   4
   0   2   0 197970. 1364.47   3
   0  -2   0 205003. 2017.51   5
   0  -2   1 453.256 126.509   5
   0   2   1 437.854 61.2307   3
   0  -2  -1 574.238 98.8519   4
   0  -2  -2 768.181 89.3846   3
   0  -2  -2 855.390 112.399   4
   0  -2   2 878.221 185.269   5
   0  -2  -3 2854.84 199.610   4
   0  -2   3 3235.88 338.465   5
   0  -2  -4 20805.6 561.333   4
   0  -2   4 20091.1 877.987   5
   0  -2  -5 112.518 61.3039   4
   0  -2   5 17.6281 124.700   5
   0  -2  -6 13383.7 486.919   4
   0  -2   6 12670.5 712.931   5
   0  -2   6 12764.7 531.403   2
   0  -2   7 599.597 124.713   2
   0  -2  -7 645.796 158.587   4
   0  -2   7 413.427 157.354   5
   0  -2   8 70728.2 1694.10   5
   0  -2  -8 68708.0 1229.99   4
   0  -2   8 67498.1 1307.99   2
   0  -2  -9 355.368 149.756   4
   0  -2   9 205.299 93.7417   2
   0  -2 -10 11529.1 546.663   4
   0  -2  10 11028.6 560.548   2
   0  -2 -11 229.746 131.403   4
   0  -2  11 53.8476 63.1754   2
   0  -2 -12 2654.77 303.362   4
   0  -2 -13 462.541 184.268   4
   0  -2 -14 11332.7 638.533   4
   0   2 -15 328.518 182.893   4
   0  -2 -15 186.932 129.995   1
   0  -2 -16 16492.7 793.320   1
   0   2 -16 16020.8 832.839   4
   0  -2 -16 14901.8 782.020   4
   0  -2 -17 114.992 117.906   1
   0   2 -17 208.752 170.407   4
   0  -2 -17 369.315 214.389   4
   0   2 -18 14038.1 817.268   4
   0  -2 -18 15219.0 792.723   1
   0  -2 -18 14229.4 809.546   4
   0   2 -19 118.127 160.086   4
   0  -2 -19 156.063 186.839   1
   0  -2 -19 319.883 228.745   4
   0   2 -20 717.200 234.282   4
   0  -2 -20 599.486 232.461   4
   0  -2 -20 659.861 217.274   1
   0  -2 -21 352.339 172.835   1
   0  -2 -21 574.477 253.248   4
   0   2 -21 152.512 196.083   4
   0  -2 -22 21808.9 992.737   1
   0  -2 -22 19791.3 1083.86   4
   0   2 -22 20727.0 1132.74   4
   0  -2 -23 872.506 302.262   4
   0  -2 -23 573.712 209.114   1
   0   2 -23 511.313 243.436   4
   0  -2 -24 875.472 289.319   4
   0   2 -24 1118.43 307.841   4
   0   2 -25 807.806 286.715   4
   0  -2 -25 420.737 215.366   4
   0   2 -26 12009.2 974.407   4
   0  -2 -26 10558.8 869.634   4
   0   2 -27 336.283 229.735   4
   0  -2 -27 409.805 261.023   4
   0  -2 -28 1177.24 330.961   4
   0   2 -28 1701.81 432.658   4
   0  -2 -29-25.5391 226.282   4
   0   2 -29 113.894 234.184   4
   0   2 -30 9347.13 944.294   4
   0  -2 -30 8354.30 864.684   4
   0   2 -31 658.651 329.184   4
   0  -2 -31 476.742 259.021   4
   0   2 -32 760.972 338.221   4
   0  -2 -32-397.997 291.521   4
   0   2 -33 46.7456 224.056   4
   0  -2 -33 951.345 389.172   4
   0   2 -34 8504.94 991.842   4
   0  -2 -34 9138.77 999.784   4
   0   2 -35 1133.61 414.421   4
   0  -2 -35 426.947 327.900   4
   0   2 -36 4663.76 769.923   4
   0   4   0 114367. 1674.62   4
   0   4   0 108274. 1362.79   3
   0  -4   0 114573. 2345.90   5
   0  -4  -1 952.203 167.650   4
   0   4   1 1202.33 186.067   4
   0   4  -1 784.127 119.630   3
   0  -4  -1 848.215 210.811   5
   0   4  -1 1183.08 176.216   4
   0  -4   1 894.102 216.221   5
   0   4  -2 2313.30 242.812   4
   0  -4   2 2201.48 350.473   5
   0   4   2 2519.77 255.286   4
   0  -4  -2 2765.99 338.407   5
   0  -4  -2 2489.51 245.984   4
   0   4  -3 860.223 147.027   4
   0  -4  -3 826.750 136.651   4
   0  -4   3 1073.13 271.398   5
   0   4  -3 1154.24 234.404   5
   0   4   3 892.104 153.781   4
   0  -4   4 15670.7 1038.94   5
   0  -4  -4 14934.3 614.061   4
   0   4  -4 15480.8 646.909   4
   0   4   4 14915.7 639.324   4
   0   4  -4 13537.9 817.698   5
   0  -4   5 164.038 151.622   5
   0   4  -5 329.089 114.477   4
   0  -4  -5 342.478 114.462   4
   0  -4  -5 254.929 77.2520   3
   0  -4  -6 4694.83 317.079   3
   0  -4  -6 4750.89 363.860   4
   0  -4   6 4407.92 572.212   5
   0  -4  -7 580.754 133.927   3
   0  -4  -7 699.016 214.893   4
   0  -4   7 726.225 286.368   5
   0  -4  -8 20287.3 793.482   4
   0  -4   8 18683.4 1228.07   5
   0  -4  -9 639.713 186.066   4
   0  -4   9 582.266 244.049   5
   0  -4  10 5762.60 658.854   5
   0  -4 -10 6372.82 472.000   4
   0  -4  11 330.285 263.390   5
   0  -4 -11 56.0083 140.734   4
   0  -4 -12 5501.14 467.546   4
   0  -4  12 5420.79 654.784   5
   0  -4 -13 697.294 220.263   4
   0  -4 -14 9382.69 640.292   4
   0  -4 -15 364.084 244.497   4
   0  -4 -16 14352.1 835.099   4
   0  -4 -17 277.846 212.676   4
   0  -4 -18 14498.9 876.556   4
   0  -4 -19 19.3551 147.824   4
   0  -4 -20 211.085 194.490   4
   0   4 -21 92.7086 180.347   4
   0  -4 -21 61.0371 141.417   4
   0  -4 -21 60.4741 134.831   1
   0  -4 -22 10160.8 802.232   4
   0  -4 -22 11253.1 842.807   1
   0   4 -22 10681.7 871.339   4
   0  -4 -23 383.015 253.414   4
   0  -4 -23 189.904 316.938   1
   0   4 -23 743.638 319.948   4
   0  -4 -24 428.392 184.079   1
   0   4 -24 804.143 260.334   4
   0  -4 -24 610.201 254.107   4
   0  -4 -25 1147.69 320.017   4
   0  -4 -25 1336.51 305.668   1
   0   4 -25 1227.04 349.814   4
   0  -4 -26 11227.7 943.811   4
   0   4 -26 11742.3 996.555   4
   0  -4 -26 11329.8 885.155   1
   0  -4 -27 1043.11 348.216   4
   0  -4 -27 850.720 266.881   1
   0   4 -27 855.562 289.899   4
   0   4 -28 996.028 368.789   4
   0  -4 -28 765.361 313.385   4
   0   4 -29-81.9460 199.839   4
   0  -4 -29 360.213 184.747   4
   0   4 -30 8532.00 939.894   4
   0  -4 -30 8860.88 929.960   4
   0   4 -31 821.707 334.792   4
   0  -4 -31 357.433 256.608   4
   0  -4 -32-249.984 210.885   4
   0   4 -32 290.129 212.035   4
   0  -4 -33 8.88996 180.193   4
   0   4 -33 427.421 323.610   4
   0   4 -34 5159.32 808.725   4
   0  -6   0 56347.6 2191.31   5
   0   6  -1 1141.63 218.119   3
   0  -6  -1 910.965 375.592   5
   0  -6   1 930.718 325.765   5
   0  -6   2 2584.47 543.228   5
   0  -6  -2 1585.80 341.316   5
   0   6  -2 1947.36 233.465   3
   0   6  -3 60.3040 102.868   3
   0  -6  -3 493.446 204.471   4
   0  -6  -3-167.608 251.626   5
   0  -6   3-76.6151 213.913   5
   0   6  -4 12002.3 650.565   3
   0  -6   4 11065.0 1102.62   5
   0  -6  -4 12553.5 694.576   4
   0  -6  -4 12160.2 942.181   5
   0  -6  -5 1240.98 246.429   4
   0  -6  -5 871.439 290.603   5
   0  -6   5 906.684 324.760   5
   0  -6  -6 2115.84 299.131   4
   0  -6  -6 2359.85 411.232   5
   0  -6   6 1654.63 420.102   5
   0  -6  -7 702.656 279.813   4
   0  -6   7 157.377 294.417   5
   0  -6   8 12948.8 1228.07   5
   0  -6  -8 15781.2 844.184   4
   0  -6  -9 670.129 245.642   4
   0  -6   9 531.459 306.487   5
   0  -6  -9 557.942 154.713   3
   0  -6 -10 3846.76 371.318   3
   0  -6  10 3715.47 646.522   5
   0  -6 -10 3794.80 433.714   4
   0  -6  11 6.55152 207.910   5
   0  -6 -11 20.9170 204.461   4
   0  -6  12 4693.65 729.154   5
   0  -6 -12 4635.99 500.724   4
   0  -6 -13 631.044 247.584   4
   0  -6  13 657.496 314.855   5
   0  -6  14 5747.53 808.810   5
   0  -6 -14 6756.68 608.782   4
   0  -6 -15 216.444 240.775   4
   0  -6 -16 8266.54 710.197   4
   0  -6 -17 714.690 247.586   4
   0  -6 -18 10183.0 819.093   4
   0  -6 -19 710.845 303.219   4
   0  -6 -20 837.172 302.934   4
   0  -6 -21 377.589 240.560   4
   0  -6 -22 9724.48 866.275   4
   0  -6 -23 302.367 243.017   4
   0   6 -24 1158.03 378.355   4
   0  -6 -24 1323.59 362.115   4
   0   6 -25 282.025 181.778   4
   0  -6 -25 596.416 262.915   4
   0  -6 -25 651.449 267.511   1
   0  -6 -26 9414.16 930.178   4
   0  -6 -26 9688.01 926.744   1
   0   6 -26 9290.78 946.405   4
   0  -6 -27 1456.84 400.015   4
   0   6 -27 1053.32 367.610   4
   0   6 -28 290.662 233.392   4
   0  -6 -28 85.6873 190.802   4
   0   6 -29 641.875 267.809   4
   0  -6 -29-17.4907 169.553   4
   0   6 -30 7450.08 919.462   4
   0  -6 -30 6106.64 808.330   4
   0   6 -31 297.053 286.235   4
   0   6 -32 292.081 263.938   4
   0  -8   0 16587.9 1503.29   5
   0  -8   1 209.946 515.344   5
   0  -8  -1 717.766 468.907   5
   0  -8  -2-11.6904 208.582   5
   0  -8   2-179.475 291.536   5
   0  -8  -3 260.357 253.701   5
   0  -8   3-6.08671 346.279   5
   0  -8   4 5950.38 947.796   5
   0  -8  -4 6887.02 896.353   5
   0  -8   5 318.469 300.225   5
   0  -8  -5 825.261 366.448   5
   0  -8  -6 633.531 232.301   5
   0  -8   6 1577.97 548.255   5
   0  -8  -7 1280.54 560.271   5
   0  -8   7 1328.30 590.689   5
   0   8  -7 497.161 198.538   3
   0   8  -8 17385.2 952.114   3
   0  -8  -8 17681.9 1388.52   5
   0  -8   8 18012.6 1680.81   5
   0  -8  -8 18976.9 1063.41   4
   0  -8   9 1433.18 642.718   5
   0  -8  -9 2109.55 578.710   5
   0   8  -9 2350.21 390.966   3
   0  -8  -9 2320.49 428.266   4
   0  -8 -10 4906.11 550.212   4
   0  -8 -10 5157.20 759.404   5
   0  -8  10 5479.34 968.901   5
   0  -8 -11 209.031 213.852   4
   0  -8  11 567.015 397.842   5
   0  -8 -11 980.246 410.189   5
   0  -8 -12 4112.44 689.750   5
   0  -8  12 4341.84 840.784   5
   0  -8 -12 3408.82 497.956   4
   0  -8  13 95.9697 200.968   5
   0  -8 -13 1325.05 470.177   4
   0  -8  14 6237.41 980.850   5
   0  -8 -14 4838.69 594.408   4
   0  -8 -15 451.895 311.809   4
   0  -8 -16 6321.21 712.180   4
   0  -8 -17 1112.41 357.376   4
   0  -8 -18 5373.41 665.380   4
   0  -8 -19 285.104 267.990   4
   0  -8 -20 839.944 309.954   4
   0  -8 -21 680.017 296.471   4
   0  -8 -22 7284.74 835.819   4
   0  -8 -23 142.345 164.260   4
   0  -8 -24 756.250 334.412   4
   0  -8 -25 539.629 292.315   4
   0 -10   0 19325.8 1856.61   5
   0 -10  -1 2364.12 793.978   5
   0 -10   1 3269.84 859.730   5
   0 -10   2-781.874 507.221   5
   0 -10  -2 267.852 362.098   5
   0 -10   3-11.5419 271.376   5
   0 -10  -3 923.128 541.188   5
   0 -10  -4 4039.78 840.818   5
   0 -10   4 4305.11 951.562   5
   0 -10   5 1297.31 610.018   5
   0 -10  -5 348.239 574.609   5
   0 -10   6 855.759 505.159   5
   0 -10  -6 565.328 289.015   5
   0 -10  -7 365.949 396.621   5
   0 -10   7 199.500 523.400   5
   0 -10  -8 4292.08 827.320   5
   0 -10   8 4858.80 970.511   5
   0 -10   9 650.580 555.012   5
   0 -10  -9 1018.11 524.396   5
   0 -10 -10 929.089 404.026   5
   0 -10  10 1276.96 513.444   5
   0 -10 -11 171.947 283.929   5
   0 -10  11-44.3557 324.111   5
   0 -10  12 3092.64 753.085   5
   0 -10  13 655.515 466.723   5
   0 -10 -15 462.535 304.358   4
   0 -10 -16 5373.54 729.251   4
   0 -10 -17 1404.61 390.160   4
   1  -1 -36 175.875 246.356   4
   1   1 -36-55.1717 210.385   4
   1  -1 -35 3486.09 635.129   4
   1   1 -35 3473.00 639.668   4
   1   1 -34-212.852 256.286   4
   1  -1 -34 465.041 281.011   4
   1   1 -33 2415.25 501.656   4
   1  -1 -33 1944.83 496.917   4
   1  -1 -32 893.743 328.141   4
   1   1 -32 91.5326 209.312   4
   1   1 -31 9113.23 939.643   4
   1  -1 -31 9800.85 964.218   4
   1   1 -30 403.350 225.970   4
   1  -1 -30 244.956 188.887   4
   1  -1 -29 140.213 172.534   4
   1   1 -29-27.4298 155.092   4
   1   1 -28 736.134 299.956   4
   1  -1 -28 445.422 270.620   4
   1   1 -27 11802.2 963.832   4
   1  -1 -27 12327.8 984.818   4
   1  -1 -27 11717.1 656.454   2
   1   1 -26 789.327 300.689   4
   1  -1 -26 138.442 150.523   4
   1   1 -25 429.259 266.971   4
   1  -1 -25 418.864 244.216   4
   1   1 -24 2222.72 438.428   4
   1  -1 -24 562.037 253.179   4
   1  -1 -23 23232.5 1165.94   4
  -1  -1  23 23202.0 925.152   1
   1   1 -23 24857.8 1244.95   4
   1   1 -23 26523.4 937.017   2
   1   1 -22 205.941 113.641   2
   1   1 -22 124.557 188.486   4
   1  -1 -22 253.505 246.632   4
  -1  -1  22 112.135 89.0159   1
  -1  -1  21 2825.46 321.509   1
   1   1 -21 2859.45 298.468   2
   1  -1 -21 2554.97 385.668   4
   1   1 -21 2536.74 368.600   4
   1   1 -20 484.853 160.983   2
  -1  -1  20 576.688 166.869   1
   1  -1 -20 356.730 189.970   4
   1   1 -19 13627.2 814.876   4
  -1  -1  19 14470.8 712.667   1
   1   1 -19 14499.7 626.647   2
   1  -1 -19 13134.2 778.409   4
   1  -1 -18 346.018 173.712   4
   1   1 -18 311.894 129.073   2
  -1  -1  18 101.244 92.9953   1
   1   1 -18 118.099 142.540   4
   1   1 -17 164.996 109.173   2
   1   1 -17 155.933 150.780   4
   1  -1 -17 48.6267 120.922   4
  -1  -1  17 251.276 115.769   1
   1  -1 -17 180.385 109.953   1
  -1  -1  16 273.720 125.895   1
   1   1 -16 168.546 157.002   4
   1  -1 -16 392.764 163.833   4
   1   1 -16 285.958 115.043   2
   1  -1 -16 361.124 147.042   1
  -1  -1  15 12363.0 622.456   1
   1   1 -15 11513.9 649.072   4
   1  -1 -15 11664.8 639.918   4
   1  -1 -15 12566.6 573.854   1
   1   1 -15 12797.3 524.486   2
   1  -1 -14-31.3352 78.9450   1
   1   1 -14 31.8185 102.314   4
   1  -1 -14 248.659 163.432   4
   1   1 -14 182.292 90.1611   2
  -1  -1  14-25.3469 60.6602   1
   1   1 -13 20501.1 806.484   4
   1  -1 -13 20787.1 699.762   1
   1  -1 -13 19965.3 781.599   4
   1   1 -13 20958.5 631.921   2
   1   1 -12 254.383 158.428   4
   1   1 -12 335.092 128.462   2
   1  -1 -12 508.241 204.161   4
   1  -1 -12 158.322 99.9075   1
   1   1 -11 19160.0 555.739   2
   1  -1 -11 18344.5 681.646   4
   1  -1 -11 18482.5 606.284   1
   1  -1 -10 399.626 138.339   4
   1   1 -10 257.165 92.2761   2
   1  -1  -9 14072.9 543.339   4
   1   1  -9 14101.4 441.821   2
   1  -1  -8 68.8613 100.139   4
  -1  -1   8-5.10321 55.5695   2
  -1  -1   7 2199.42 179.739   2
   1  -1  -7 2032.77 180.897   4
  -1  -1   6 43.3248 56.8583   2
   1  -1  -6 56.7744 57.0783   4
  -1  -1   6 62.3973 87.4637   5
  -1  -1   5 72982.3 1371.36   5
   1  -1  -5 75810.2 938.442   4
  -1  -1   4 207.977 94.6432   5
   1  -1  -4 287.943 64.5934   4
  -1  -1   3 2386.63 233.240   5
   1  -1  -3 2148.12 127.008   4
   1  -1  -2 65.7369 29.9929   4
  -1  -1   2 154.389 71.6735   5
   1  -1  -1 10955.7 224.817   4
   1  -1   0 29.0252 25.7448   5
   1  -1   0 53.8683 17.6556   4
  -1  -1  -1 91.7538 35.8710   4
  -1  -1  -1 119.523 34.2036   3
   1  -1   1 210.188 65.7103   5
   1  -1   2-0.85840 39.4834   5
  -1  -1  -2-8.08593 29.8531   4
   1  -1   3 112897. 1352.60   5
   1  -1   3 106268. 1156.45   2
  -1  -1  -3 109111. 1060.01   4
   1  -1   4 984.115 123.992   2
  -1  -1  -4 1096.01 129.591   4
   1  -1   5 2142.34 193.794   2
  -1  -1  -5 2249.52 182.921   4
  -1   1  -6 178.277 82.4032   2
   1  -1   6 165.828 83.6497   2
  -1  -1  -6 230.234 89.4149   4
  -1  -1  -7 11949.4 474.330   4
  -1   1  -7 13452.3 481.711   2
  -1   1  -8 568.664 118.896   4
  -1  -1  -8 622.603 138.798   4
  -1   1  -8 561.285 119.724   2
  -1   1  -9 614.331 123.168   2
  -1  -1  -9 591.278 132.712   4
  -1   1  -9 637.231 132.806   4
  -1  -1  -9 607.505 128.219   1
  -1   1 -10 309.566 131.945   2
  -1  -1 -10 27.8915 76.2940   1
  -1   1 -10 89.9782 74.3582   4
  -1  -1 -10 233.705 136.097   4
  -1   1 -11 39844.7 1021.42   4
  -1  -1 -11 41667.4 1061.87   4
  -1   1 -11 41776.2 972.396   2
  -1  -1 -11 41765.4 1071.60   1
  -1   1 -12 262.952 120.695   2
   1  -1  12 33.6981 110.351   1
  -1  -1 -12 141.059 131.356   1
  -1   1 -12 48.5076 111.916   4
  -1   1 -13 4589.77 387.229   4
  -1  -1 -13 4888.92 404.485   4
   1  -1  13 4675.19 424.971   1
  -1   1 -13 4872.98 357.930   2
  -1  -1 -13 4741.58 391.602   1
  -1  -1 -14 208.793 144.815   4
   1  -1  14 182.264 127.853   1
  -1   1 -14 131.594 118.981   4
  -1   1 -14 267.735 134.954   2
  -1  -1 -14 270.439 131.058   1
  -1   1 -15 7637.80 541.135   4
  -1  -1 -15 7477.06 516.963   1
   1  -1  15 8138.05 582.912   1
  -1   1 -15 7334.60 461.078   2
  -1  -1 -15 7668.41 543.631   4
  -1  -1 -16 83.8410 108.820   1
  -1   1 -16 300.434 152.101   2
   1  -1  16 97.2345 121.066   1
  -1   1 -16 97.9850 147.514   4
  -1  -1 -16 206.116 172.982   4
  -1  -1 -17 22649.8 909.890   1
  -1   1 -17 23043.8 842.739   2
  -1  -1 -17 22093.3 975.004   4
   1  -1  17 24608.4 1032.24   1
  -1   1 -17 22549.1 983.307   4
  -1   1 -18 362.288 156.846   2
  -1  -1 -18 363.778 213.374   4
  -1   1 -18 148.416 190.856   4
   1  -1  18 264.054 151.558   1
   1  -1  19 22930.7 1008.82   1
  -1   1 -19 22897.5 1060.98   4
  -1  -1 -19 21492.1 1024.38   4
  -1   1 -19 22624.1 878.232   2
  -1   1 -20 681.827 255.946   4
  -1  -1 -20 796.764 249.552   4
  -1   1 -20 801.333 193.817   2
  -1  -1 -21 16798.0 961.436   4
  -1   1 -21 17422.2 802.428   2
  -1   1 -21 16788.1 969.509   4
  -1  -1 -22 548.375 251.762   4
  -1   1 -22 410.595 222.393   4
  -1   1 -22 135.978 140.182   2
  -1  -1 -23 807.531 277.626   4
  -1   1 -23 704.678 200.730   2
  -1   1 -23 682.505 262.796   4
  -1   1 -24 195.897 212.425   4
  -1   1 -24 131.751 92.2774   2
  -1  -1 -24 184.416 167.852   4
  -1  -1 -25 10039.9 836.865   4
  -1   1 -25 9245.55 812.239   4
  -1   1 -25 10146.5 654.908   2
  -1   1 -26 86.8315 125.335   2
  -1  -1 -26 127.926 186.155   4
  -1   1 -26-244.663 176.124   4
  -1   1 -27 543.827 185.576   2
  -1   1 -27 385.738 205.592   4
  -1   1 -28 161.088 157.262   2
  -1   1 -28 14.8163 186.717   4
  -1  -1 -28 86.8996 128.836   2
  -1  -1 -28-20.2185 167.483   4
  -1  -1 -29 9883.19 928.487   4
  -1   1 -29 10895.7 976.571   4
  -1   1 -30-71.2081 188.840   4
  -1  -1 -30 229.809 186.649   4
  -1  -1 -31 1218.65 403.017   4
  -1   1 -31 605.826 273.994   4
  -1  -1 -32 598.166 319.630   4
  -1   1 -32 520.948 288.453   4
  -1  -1 -33 12888.8 1156.40   4
  -1   1 -33 12140.0 1137.27   4
  -1   1 -34-195.596 193.078   4
  -1  -1 -34 767.551 366.569   4
  -1   1 -35-33.6463 208.353   4
  -1  -1 -35 222.642 225.490   4
  -1   1 -36 149.069 241.814   4
   1   3 -35 5620.31 843.382   4
   1  -3 -35 5180.94 826.601   4
   1   3 -34 316.779 245.954   4
   1  -3 -34 16.8036 226.178   4
   1  -3 -33 2686.19 568.086   4
   1   3 -33 3468.76 668.950   4
   1   3 -32 562.967 335.663   4
   1  -3 -32 412.958 287.445   4
   1   3 -31 12032.4 1129.33   4
   1  -3 -31 12848.5 1094.70   4
   1   3 -30 430.273 281.828   4
   1  -3 -30 748.025 312.797   4
   1   3 -29 261.025 205.080   4
   1  -3 -29 361.268 244.659   4
   1  -3 -28 276.115 208.773   4
   1   3 -28 471.160 271.002   4
   1   3 -27 9300.89 893.325   4
   1  -3 -27 8637.43 677.691   1
   1  -3 -27 8890.44 825.172   4
   1  -3 -26 171.672 143.651   1
   1   3 -26 443.895 269.019   4
   1  -3 -26 751.212 282.063   4
   1  -3 -25 535.934 200.661   1
   1  -3 -25 567.727 269.028   4
   1   3 -25 545.450 262.193   4
   1   3 -24 466.203 279.546   4
   1  -3 -24 400.914 186.013   1
   1  -3 -24 678.346 299.970   4
   1  -3 -23 14052.1 850.693   1
   1  -3 -23 13052.6 907.822   4
   1   3 -23 12938.3 952.888   4
   1   3 -22 42.7733 131.070   4
   1  -3 -22 109.756 132.723   1
   1  -3 -22 67.9536 167.987   4
   1  -3 -21 582.055 241.631   4
   1   3 -21 181.269 145.381   4
   1  -3 -21 269.528 140.831   1
   1  -3 -20 586.667 257.284   4
   1   3 -20 444.120 238.927   4
   1  -3 -20 317.323 180.588   1
   1  -3 -19 12706.8 800.524   4
   1  -3 -19 11883.0 729.765   1
   1  -3 -18 338.462 178.735   4
   1  -3 -17 916.974 267.893   4
   1  -3 -16 813.645 278.479   4
   1  -3 -15 11534.4 679.055   4
   1  -3 -14 616.061 245.189   4
   1  -3 -13 27468.2 983.260   4
  -1  -3  13 24378.5 984.034   2
   1  -3 -12 720.962 249.410   4
  -1  -3  12 180.390 129.154   2
  -1  -3  11 18693.5 1083.96   5
  -1  -3  11 20473.8 868.448   2
   1  -3 -11 20218.5 784.466   4
  -1  -3  10-132.039 141.716   5
  -1  -3  10 121.078 140.065   2
   1  -3 -10 279.637 153.038   4
   1  -3  -9 6516.76 416.945   4
  -1  -3   9 6088.55 643.842   5
  -1   3   9 5278.00 380.060   4
  -1  -3   9 6238.80 472.473   2
  -1   3   8-53.1665 61.8912   4
   1  -3  -8 145.459 107.937   4
  -1  -3   8 90.7232 213.998   5
  -1   3   7 8616.18 452.184   4
  -1  -3   7 8571.31 741.764   5
   1  -3  -7 8319.13 436.409   4
   1  -3  -6 56.4926 68.5054   4
  -1  -3   6 51.5269 146.070   5
  -1   3   6 201.820 80.7672   4
   1  -3  -5 51929.2 1010.21   4
  -1  -3   5 53944.7 1756.08   5
  -1   3   5 51130.9 1024.15   4
  -1   3   4 307.629 136.471   4
  -1  -3   4 238.355 172.500   5
   1  -3  -4 333.024 128.877   4
   1  -3  -4 281.852 76.9333   3
  -1   3   3 693.334 116.348   4
   1  -3  -3 615.215 113.952   4
  -1  -3   3 530.870 166.212   5
   1   3  -3 672.703 117.741   4
   1  -3  -3 642.926 92.2947   3
   1   3  -2 8.86594 42.9084   4
  -1   3   2 38.0439 39.7832   4
   1  -3  -2-45.7193 65.4084   4
  -1   3   1 6315.59 327.945   4
   1  -3  -1 5760.13 308.322   4
   1   3  -1 5961.33 355.213   4
   1  -3  -1 6067.95 428.286   5
  -1   3   1 5501.05 235.373   3
  -1  -3   1 5868.78 473.982   5
   1   3  -1 5720.07 325.737   3
   1  -3   0 407.203 121.940   5
   1   3   0 529.386 94.2941   3
  -1  -3   0 472.204 125.267   5
  -1  -3   0 636.203 115.201   4
  -1   3   0 592.289 98.3368   3
   1   3   0 502.331 92.0443   4
  -1   3   0 684.117 112.683   4
   1  -3   1 50.4636 125.852   5
   1   3   1 145.548 61.3707   3
  -1   3  -1 196.984 74.8142   4
   1   3   1 188.499 66.2797   4
  -1  -3  -1 27.8901 64.8457   4
  -1   3  -2 271.716 66.9701   4
   1  -3   2 46.0898 107.782   5
  -1  -3  -2 323.870 112.019   4
  -1   3  -2 149.161 78.4275   5
  -1   3  -3 53258.4 1475.31   5
  -1  -3  -3 49976.7 1009.03   4
   1  -3   3 48863.3 1544.51   5
  -1  -3  -3 47438.2 909.336   3
  -1   3  -4 645.577 172.479   5
  -1  -3  -4 518.508 119.534   4
  -1  -3  -4 495.090 90.2488   3
   1  -3   4 653.558 222.403   5
  -1   3  -5 671.704 218.835   5
  -1  -3  -5 524.882 139.475   4
  -1  -3  -5 477.737 102.622   3
   1  -3   5 425.418 176.086   5
   1  -3   6 841.894 243.916   5
  -1  -3  -6 997.720 171.993   4
   1  -3   6 954.929 205.309   2
  -1   3  -6 1022.83 252.008   5
   1  -3   7 11416.0 630.586   2
  -1  -3  -7 10602.3 530.650   4
   1  -3   7 10264.3 756.582   5
  -1   3  -7 10643.9 837.871   5
  -1  -3  -8 1247.11 202.094   4
  -1   3  -8 1264.74 313.477   5
   1  -3   8 1306.86 223.153   2
   1  -3   8 1101.64 278.434   5
   1  -3   9 4165.48 473.692   5
   1  -3   9 4093.85 391.387   2
  -1  -3  -9 4331.68 356.341   4
  -1  -3 -10 1506.31 277.234   4
   1  -3  10 1160.00 227.129   2
  -1  -3 -11 51650.3 1316.63   4
  -1  -3 -12 1280.22 283.271   4
  -1  -3 -13 11626.8 657.844   4
  -1  -3 -14 61.4907 136.849   4
  -1  -3 -15 6275.36 538.918   4
  -1  -3 -16 87.8739 159.130   4
  -1   3 -17 12679.3 793.223   4
  -1  -3 -17 12037.0 763.820   4
  -1   3 -18 73.7397 156.991   4
  -1  -3 -18 205.205 173.831   1
  -1  -3 -18 468.831 230.864   4
  -1   3 -19 15688.4 938.320   4
  -1  -3 -19 15165.0 905.428   4
  -1  -3 -19 15012.7 901.909   1
  -1  -3 -20 925.200 255.293   1
  -1   3 -20 730.349 250.060   4
  -1  -3 -20 1341.71 314.794   4
  -1   3 -21 6722.25 636.636   4
  -1  -3 -21 7104.32 632.747   1
  -1  -3 -21 6396.77 625.161   4
  -1   3 -22 141.440 168.412   4
  -1  -3 -22-14.7450 105.866   1
  -1  -3 -22 399.964 282.005   4
  -1  -3 -23 166.448 173.522   4
  -1   3 -23 231.524 205.610   4
  -1  -3 -23 395.587 220.926   1
  -1  -3 -24-22.7475 103.388   1
  -1   3 -24-2.06265 145.100   4
  -1  -3 -25 10524.8 881.751   4
  -1  -3 -25 10771.8 827.484   1
  -1   3 -25 10086.2 878.901   4
  -1  -3 -26 888.212 336.673   4
  -1  -3 -26 774.942 252.158   1
  -1   3 -26 710.753 286.066   4
  -1   3 -27 870.940 320.510   4
  -1  -3 -27 995.497 255.437   1
  -1  -3 -27 701.148 258.297   4
  -1  -3 -28 563.109 249.081   4
  -1   3 -28 557.716 269.142   4
  -1   3 -29 10341.8 991.471   4
  -1  -3 -29 9882.32 938.082   4
  -1  -3 -30 311.750 250.375   4
  -1   3 -30 208.941 285.730   4
  -1  -3 -31 573.352 297.231   4
  -1   3 -31 1233.98 416.853   4
  -1   3 -32 220.297 190.576   4
  -1  -3 -32 337.817 265.042   4
  -1  -3 -33 8727.91 972.985   4
  -1   3 -33 8741.97 1014.64   4
  -1   3 -34 901.300 385.801   4
  -1  -3 -34 162.588 188.551   4
  -1   3 -35 102.796 183.102   4
   1   5 -33 2680.90 601.611   4
   1   5 -32 277.034 248.248   4
   1  -5 -32 451.072 319.031   4
   1  -5 -31 4346.44 683.802   4
   1   5 -31 5352.61 779.280   4
   1   5 -30 2364.36 524.974   4
   1  -5 -30 223.142 180.221   4
   1  -5 -29 140.172 247.114   4
   1   5 -29 292.549 282.629   4
   1  -5 -28 488.689 302.120   4
   1   5 -28 452.472 220.767   4
   1  -5 -27 9691.75 913.504   4
   1   5 -27 10345.3 994.486   4
   1   5 -26 103.285 144.586   4
   1  -5 -26 420.105 217.264   4
   1  -5 -26 417.362 229.270   1
   1   5 -25 53.8146 202.635   4
   1  -5 -25 227.919 199.390   4
   1  -5 -25 178.274 145.165   1
   1   5 -24 654.238 326.832   4
   1  -5 -24 1315.16 390.959   4
   1  -5 -24 488.037 242.847   1
   1  -5 -23 17314.9 1112.14   4
   1  -5 -22 948.835 300.364   4
   1  -5 -21 2535.30 417.882   4
   1  -5 -20 651.918 280.702   4
   1  -5 -19 11012.4 813.084   4
   1  -5 -18 261.180 206.813   4
   1  -5 -17 935.314 278.020   4
   1  -5 -16 538.506 246.802   4
   1  -5 -15 4872.15 504.926   4
   1  -5 -14 712.442 246.199   4
  -1  -5  14 657.644 328.376   5
  -1  -5  13 10845.4 1047.29   5
   1  -5 -13 12565.7 760.565   4
   1  -5 -12 356.028 232.379   4
  -1  -5  12 498.038 311.883   5
  -1  -5  11 9157.42 958.275   5
   1  -5 -11 9223.46 517.978   3
   1  -5 -11 9526.62 620.639   4
   1  -5 -10 319.306 193.096   4
  -1  -5  10 232.215 226.835   5
   1  -5 -10 225.308 106.818   3
   1  -5  -9 12191.7 674.377   4
  -1  -5   9 11617.1 1103.30   5
   1  -5  -9 11825.2 566.938   3
  -1  -5   8-294.998 328.514   5
   1  -5  -8 354.270 199.732   4
   1  -5  -8-39.7110 56.8402   3
   1  -5  -7 5261.98 427.127   4
   1  -5  -7 4977.35 352.110   3
  -1  -5   7 4898.79 680.086   5
   1  -5  -6 947.244 225.814   4
  -1  -5   6 950.218 371.682   5
   1  -5  -5 29149.2 962.337   4
  -1  -5   5 29193.9 1602.79   5
   1  -5  -4 719.492 301.999   5
   1  -5  -4 411.001 225.324   4
  -1  -5   4 490.671 349.399   5
   1  -5  -3 3566.71 443.111   5
   1  -5  -3 3286.20 299.538   4
  -1  -5   3 3628.36 550.629   5
   1   5  -3 3657.49 333.858   3
   1  -5  -2-106.367 118.946   4
   1  -5  -2-81.7047 167.825   5
   1   5  -2-58.7637 92.9453   3
   1   5  -1 5607.65 381.532   3
  -1  -5   1 5553.13 614.746   5
   1  -5  -1 6078.01 594.877   5
  -1  -5   0 7.73074 229.962   5
  -1   5   0 504.445 95.6110   3
   1   5   0 526.065 129.499   3
   1  -5   0 234.163 182.531   5
  -1   5  -1 623.161 114.412   3
  -1  -5  -1 476.597 172.704   5
   1  -5   1 414.316 166.697   5
  -1   5  -2 1819.03 212.296   3
  -1  -5  -2 1838.12 290.293   4
  -1  -5  -2 1557.45 341.798   5
   1  -5   2 2202.66 460.179   5
  -1  -5  -3 56747.0 1755.47   5
  -1  -5  -3 55237.1 1342.37   4
   1  -5   3 55652.6 2112.63   5
   1  -5   4 578.610 252.232   5
  -1  -5  -4 878.210 235.451   4
  -1  -5  -5 344.666 129.253   4
   1  -5   5 119.247 270.011   5
   1  -5   6-178.340 274.570   5
  -1  -5  -6-38.2440 90.8620   3
  -1  -5  -6 59.2577 101.126   4
  -1  -5  -7 6226.42 492.189   4
   1  -5   7 5905.08 754.672   5
  -1  -5  -7 5879.41 423.923   3
  -1  -5  -8 519.386 197.337   4
   1  -5   8 252.094 187.266   5
  -1  -5  -8 495.485 136.230   3
  -1  -5  -9 1132.28 189.950   3
  -1  -5  -9 1545.76 274.486   4
   1  -5   9 1475.03 414.255   5
  -1  -5 -10 707.502 242.098   4
   1  -5  10 186.135 190.254   5
  -1  -5 -11 15937.2 832.897   4
   1  -5  11 15343.2 1159.04   5
   1  -5  12 521.109 268.817   5
  -1  -5 -12 722.083 240.685   4
  -1  -5 -13 3093.10 399.573   4
  -1  -5 -14 117.495 171.727   4
  -1  -5 -15 4512.32 506.860   4
  -1  -5 -16 1252.56 334.680   4
  -1  -5 -17 15489.9 939.797   4
  -1  -5 -18 574.814 313.231   4
  -1  -5 -19 18503.1 1080.89   4
  -1  -5 -20 1788.50 360.778   4
  -1  -5 -21 10676.2 855.536   4
  -1   5 -21 10494.0 880.995   4
  -1   5 -22 394.767 217.509   4
  -1  -5 -22 670.689 282.354   4
  -1   5 -23 292.853 255.056   4
  -1  -5 -23 439.335 257.267   1
  -1  -5 -23 384.186 257.287   4
  -1   5 -24 47.7308 178.734   4
  -1  -5 -24 312.274 199.091   4
  -1  -5 -24 230.440 193.486   1
  -1  -5 -25 6082.30 698.389   4
  -1   5 -25 6161.54 736.444   4
  -1  -5 -25 6055.39 710.027   1
  -1  -5 -26 339.735 221.913   4
  -1   5 -26 779.247 306.283   4
  -1  -5 -26 354.759 211.565   1
  -1  -5 -27 236.687 195.914   4
  -1   5 -27 180.140 207.492   4
  -1   5 -28 463.694 274.915   4
  -1  -5 -28 124.455 173.909   4
  -1   5 -29 6920.09 902.896   4
  -1  -5 -29 4585.85 657.368   4
  -1   5 -30 386.443 259.000   4
  -1  -5 -30 145.627 206.461   4
  -1   5 -31 499.980 271.396   4
  -1  -5 -31 742.373 279.725   4
  -1   5 -32 97.3369 260.190   4
  -1   5 -33 6555.13 900.706   4
   1   7 -30 250.968 241.023   4
   1   7 -29 775.687 342.921   4
   1   7 -28 477.964 299.781   4
   1  -7 -28 733.501 329.075   4
   1   7 -27 7597.96 923.611   4
   1  -7 -27 7409.08 865.920   4
   1   7 -26 506.317 294.518   4
   1  -7 -26 358.610 244.297   4
   1  -7 -25 2014.87 495.363   4
   1   7 -25 154.446 251.621   4
   1  -7 -24 2361.46 481.294   4
   1  -7 -23 5468.34 705.936   4
   1  -7 -22 314.846 204.946   4
   1  -7 -21 1152.71 340.629   4
   1  -7 -20 172.168 214.144   4
   1  -7 -19 8146.42 769.005   4
   1  -7 -18 28.2077 174.500   4
   1  -7 -17 301.999 201.757   4
   1  -7 -16 409.466 232.867   4
   1  -7 -15 7213.94 681.934   4
  -1  -7  15 7793.90 1031.92   5
  -1  -7  14 1115.61 480.886   5
   1  -7 -14 791.663 263.281   4
  -1  -7  13 12933.6 1354.10   5
   1  -7 -13 13240.2 884.045   4
  -1  -7  12-193.656 250.839   5
   1  -7 -12 776.078 319.922   4
  -1  -7  11 7364.17 1031.49   5
   1  -7 -11 8270.31 682.097   4
   1  -7 -10 700.725 253.526   4
  -1  -7  10 578.253 436.823   5
   1  -7  -9 4360.91 476.151   4
   1  -7  -9 4640.10 637.280   5
  -1  -7   9 4221.16 760.060   5
   1  -7  -8 420.335 215.663   4
   1  -7  -8 834.557 336.896   5
  -1  -7   7 2119.49 554.457   5
   1  -7  -7 2329.64 456.874   5
   1  -7  -7 3044.79 390.403   4
   1  -7  -6 2204.94 347.542   4
   1  -7  -6 2336.95 502.206   5
  -1  -7   6 1605.81 500.846   5
   1  -7  -5 19313.2 1332.95   5
  -1  -7   5 18463.2 1568.81   5
   1  -7  -4 329.765 379.383   5
  -1  -7   4-40.7694 270.732   5
   1  -7  -3 312.270 233.563   5
  -1  -7   3 1153.51 435.435   5
   1  -7  -2-153.791 266.422   5
  -1  -7   2-0.37582 190.826   5
  -1  -7   1 7254.32 900.330   5
   1  -7  -1 7322.31 889.571   5
  -1  -7   0 89.7873 277.018   5
   1  -7   0 555.683 319.519   5
  -1  -7  -1 36.9482 247.557   5
   1  -7   1 93.5563 213.128   5
   1  -7   2 1243.19 487.867   5
  -1  -7  -2 1631.88 490.115   5
  -1   7  -3 23860.8 842.409   3
  -1  -7  -3 24460.7 1536.32   5
   1  -7   3 23289.0 1681.03   5
  -1  -7  -4 541.088 381.592   5
   1  -7   4-16.8153 228.154   5
  -1   7  -4 785.689 230.105   3
  -1  -7  -5 12.3133 220.539   5
   1  -7   5 33.2825 283.910   5
  -1  -7  -5 248.892 191.695   4
   1  -7   6 636.205 341.387   5
  -1  -7  -6 556.971 297.838   5
  -1  -7  -6 857.242 261.200   4
  -1  -7  -7 6472.93 589.957   4
   1  -7   7 6281.59 942.392   5
  -1  -7  -7 5406.70 699.928   5
   1  -7   8 616.803 410.618   5
  -1  -7  -8 913.846 348.602   5
  -1  -7  -8 401.757 180.808   4
  -1  -7  -9 2104.61 343.553   4
   1  -7   9 1634.19 494.017   5
   1  -7  10 552.438 425.042   5
  -1  -7 -10 971.950 369.900   4
   1  -7  11 21546.2 1660.11   5
  -1  -7 -11 22104.4 1139.78   4
  -1  -7 -12 1896.21 408.346   4
   1  -7  12 1317.90 453.165   5
   1  -7  13 5534.80 830.430   5
  -1  -7 -13 4985.39 562.772   4
  -1  -7 -14 332.890 224.422   4
  -1  -7 -15 3867.60 517.701   4
  -1  -7 -16 1287.11 324.881   4
  -1  -7 -17 7450.03 730.496   4
  -1  -7 -18 570.694 267.472   4
  -1  -7 -19 6132.54 702.621   4
  -1  -7 -20 1239.19 337.959   4
  -1  -7 -21 4690.66 627.353   4
  -1  -7 -22 515.596 267.633   4
  -1  -7 -23 379.488 240.376   4
  -1   7 -23 221.130 209.058   4
  -1  -7 -24 41.0698 160.572   4
  -1   7 -24-30.3869 148.488   4
  -1  -7 -25 10918.5 1009.53   4
  -1   7 -25 7167.52 840.637   4
  -1   7 -26 427.908 295.291   4
  -1  -7 -26 345.682 248.315   4
  -1  -7 -27 1071.04 372.709   4
  -1   7 -27 684.073 295.667   4
  -1   7 -28 527.953 273.111   4
   1  -9 -23 4031.14 660.436   4
   1  -9 -22 1224.90 402.031   4
   1  -9 -21 1950.82 470.064   4
   1  -9 -20 510.302 253.916   4
   1  -9 -19 5709.74 725.481   4
   1  -9 -18 564.263 270.995   4
   1  -9 -17 118.112 190.417   4
   1  -9 -17 264.469 209.528   5
   1  -9 -16 295.981 306.763   5
   1  -9 -16 88.0162 156.019   4
   1  -9 -15 5491.56 834.037   5
  -1  -9  15 5458.52 983.942   5
   1  -9 -15 4979.57 658.702   4
   1  -9 -14 871.896 383.841   5
  -1  -9  14 339.715 344.280   5
   1  -9 -14 983.132 344.946   4
   1  -9 -13 6545.01 715.562   4
   1  -9 -13 6136.70 881.261   5
  -1  -9  13 6846.10 1089.66   5
   1  -9 -12 315.727 326.408   5
   1  -9 -12 558.599 271.214   4
  -1  -9  12 353.098 499.198   5
  -1  -9  11 4494.04 908.782   5
   1  -9 -11 4715.89 589.586   4
   1  -9 -11 4162.70 728.702   5
   1  -9 -10 1241.95 492.536   5
  -1  -9  10 1482.02 628.039   5
   1  -9  -9 4362.20 754.314   5
  -1  -9   9 3096.81 734.042   5
   1  -9  -8 219.302 267.722   5
  -1  -9   8 265.520 313.594   5
   1  -9  -7 630.975 304.486   5
  -1  -9   7 1950.32 597.606   5
  -1  -9   6 1257.60 524.508   5
   1  -9  -6 1592.64 583.958   5
   1  -9  -5 11904.6 1296.98   5
  -1  -9   5 11728.8 1469.26   5
   1  -9  -4 1901.66 724.102   5
  -1  -9   4 967.499 727.455   5
  -1  -9   3 124.058 290.974   5
   1  -9  -3 150.686 279.285   5
  -1  -9   2 262.131 276.669   5
   1  -9  -2 122.484 306.247   5
  -1  -9   1 2025.84 553.154   5
   1  -9  -1 2311.99 603.968   5
  -1  -9   0-607.319 412.434   5
   1  -9   0-319.916 333.469   5
   1  -9   1-275.414 295.905   5
  -1  -9  -1-59.3356 385.867   5
   1  -9   2 2131.62 989.154   5
  -1  -9  -2 1122.96 516.047   5
  -1  -9  -3 16065.1 1563.48   5
   1  -9   3 16135.9 1693.26   5
  -1  -9  -4 1797.22 717.362   5
   1  -9   4 636.559 521.077   5
  -1  -9  -5 424.406 313.175   5
   1  -9   5-75.8659 405.490   5
  -1  -9  -6 796.451 408.980   5
   1  -9   6 1313.00 577.872   5
  -1  -9  -7 8782.69 1107.00   5
   1  -9   7 9100.22 1250.98   5
   1  -9   8 420.513 432.536   5
  -1  -9  -8 566.282 423.274   5
  -1  -9  -9 1435.10 521.969   5
   1  -9   9 1245.68 467.847   5
   1  -9  10 790.607 450.901   5
  -1  -9 -10 846.964 427.913   4
  -1  -9 -10 916.555 566.619   5
   1  -9  11 13793.6 1519.60   5
  -1  -9 -11 13029.5 1001.18   4
  -1  -9 -11 11326.7 1220.37   5
  -1  -9 -12 2251.64 603.102   5
   1  -9  12 2341.23 650.096   5
  -1  -9 -12 2209.56 465.534   4
  -1  -9 -13 2158.99 564.268   5
   1  -9  13 2160.53 603.703   5
  -1  -9 -13 2040.88 416.415   4
  -1  -9 -14 790.828 433.831   5
  -1  -9 -14 14.6354 134.531   4
  -1  -9 -15 1051.35 340.110   4
  -1  -9 -15 960.983 415.586   5
  -1  -9 -16 2249.52 518.219   4
  -1  -9 -16 642.276 371.405   5
  -1  -9 -17 5292.51 726.811   4
  -1  -9 -18 361.511 281.011   4
  -1  -9 -19 5001.16 696.229   4
  -1  -9 -20 1638.42 453.119   4
  -1  -9 -21 5475.99 761.037   4
   2   0 -37 510.735 344.540   4
   2   0 -36 3569.27 679.231   4
   2   0 -35-139.061 193.282   4
   2   0 -34 1310.40 415.472   4
   2   0 -33 267.078 226.973   4
   2   0 -32 5440.57 750.766   4
   2   0 -31 19.6908 152.865   4
   2   0 -30 5284.90 671.587   4
   2   0 -29 572.992 269.025   4
   2   0 -28 17339.9 1176.52   4
   2   0 -27 156.233 223.886   4
   2   0 -27 258.005 102.861   2
   2   0 -26 426.809 131.372   2
   2   0 -26 307.837 217.338   4
   2   0 -25 570.815 296.382   4
   2   0 -25 376.497 115.158   2
   2   0 -24 14867.3 630.715   2
   2   0 -24 14030.7 961.840   4
   2   0 -23 272.828 118.168   2
   2   0 -23 506.400 276.055   4
   2   0 -22 1481.42 333.965   4
   2   0 -22 1350.91 201.624   2
   2   0 -21 1208.10 345.906   4
   2   0 -21 877.918 177.973   2
   2   0 -20 17922.4 634.029   2
   2   0 -20 17122.2 926.514   4
   2   0 -19 51.5838 137.474   4
   2   0 -19 179.637 91.8045   2
   2   0 -18 13092.3 757.451   4
   2   0 -18 12321.3 499.728   2
   2   0 -17 601.118 248.953   4
   2   0 -17 656.300 146.434   2
   2   0 -16 15650.7 766.001   4
   2   0 -15 93.3884 120.075   4
   2   0 -14 2262.61 296.219   4
   2   0 -13 641.762 199.448   4
   2   0 -12 9691.06 505.673   4
   2   0 -11 22.9425 88.1958   4
  -2   0  10 21680.6 484.472   1
   2   0 -10 22899.6 705.001   4
  -2   0   9 336.728 96.7631   1
   2   0  -9 547.002 153.892   4
  -2   0   8 3724.21 176.393   1
   2   0  -8 4128.17 273.878   4
   2   0  -7 28.6695 66.3368   4
  -2   0  -4 5218.82 228.725   4
   2   0   4 5069.03 292.087   1
   2   0   5 47.4595 87.6793   1
  -2   0  -5-7.07880 56.6075   4
  -2   0  -6 44715.3 818.752   4
  -2   0  -6 43895.4 911.405   1
   2   0   6 44512.9 952.308   1
  -2   0  -7 274.074 138.765   1
  -2   0  -7 229.214 135.262   4
   2   0   7 88.1903 98.4528   1
  -2   0  -8 10914.9 465.946   4
   2   0   8 10731.9 512.336   1
  -2   0  -9 61.2707 88.6984   4
   2   0   9-23.1061 62.6808   1
  -2   0 -10 12075.3 542.421   4
   2   0  10 12510.7 582.806   1
  -2   0 -11 191.356 121.383   4
   2   0  11-14.9096 56.9307   1
   2   0  12 2939.09 300.732   1
  -2   0 -12 2809.03 282.451   4
  -2   0 -13 223.258 145.594   4
   2   0  13 122.639 130.973   1
  -2   0 -14 33110.3 1060.48   4
   2   0  14 35060.6 1080.61   1
  -2   0 -15 818.297 254.353   4
   2   0  15 82.5932 90.4469   1
  -2   0 -16 9750.18 622.022   4
  -2   0 -17 290.362 158.516   4
  -2   0 -18 3281.29 386.830   4
  -2   0 -19-28.8938 136.275   4
  -2   0 -20 7761.94 635.543   4
  -2   0 -21 603.774 254.854   4
  -2   0 -22 11994.3 851.565   4
  -2   0 -22 12028.1 704.897   2
  -2   0 -23 139.702 126.711   2
  -2   0 -23 126.245 153.985   4
  -2   0 -24 11066.5 848.102   4
  -2   0 -24 11698.3 713.063   2
  -2   0 -25 185.170 166.082   4
  -2   0 -25-57.4696 108.842   2
  -2   0 -26 72.2561 163.130   4
  -2   0 -26 322.437 164.148   2
  -2   0 -27 220.412 132.857   2
  -2   0 -27 266.506 198.411   4
  -2   0 -28 14222.9 1076.83   4
  -2   0 -28 14536.2 834.736   2
  -2   0 -29 68.5431 185.312   4
  -2   0 -30 152.470 190.745   4
  -2   0 -31-102.453 200.653   4
  -2   0 -32 5999.53 800.702   4
  -2   0 -33 329.560 296.008   4
  -2   0 -34 2787.94 564.006   4
  -2   0 -35 307.302 195.344   4
   2   2 -36 8884.18 1052.10   4
   2  -2 -36 8718.15 996.746   4
   2   2 -35 211.630 227.174   4
   2  -2 -35 16.7304 222.574   4
   2  -2 -34 1337.27 377.327   4
   2   2 -34 2129.49 528.376   4
   2  -2 -33 77.6152 196.140   4
   2   2 -33 76.2268 199.747   4
   2   2 -32 7618.56 918.170   4
   2  -2 -32 6880.67 818.295   4
   2  -2 -31 357.297 221.534   4
   2   2 -31 240.491 235.351   4
   2  -2 -30 4877.73 671.927   4
   2   2 -30 6025.17 766.930   4
   2  -2 -29 447.303 259.039   4
   2   2 -29 442.358 262.093   4
   2  -2 -28 9933.61 884.818   4
   2   2 -28 10255.9 943.316   4
   2   2 -27 85.3600 183.087   4
   2  -2 -27 67.8740 146.827   4
   2  -2 -26 381.685 213.531   4
   2   2 -26 935.437 330.842   4
   2   2 -25 545.426 252.475   4
   2  -2 -25 271.874 175.118   4
   2   2 -24 14775.6 1021.96   4
   2  -2 -24 13502.8 917.312   4
   2   2 -23 102.216 171.253   4
   2  -2 -23 74.8229 176.768   4
   2  -2 -23 117.094 93.3221   1
  -2  -2  22 547.653 189.017   1
   2  -2 -22 450.735 227.923   4
   2   2 -22 301.758 209.052   4
   2  -2 -22 430.766 161.442   1
   2  -2 -21 726.434 222.127   1
  -2  -2  21 703.565 207.916   1
   2  -2 -21 734.194 267.182   4
   2   2 -21 512.133 247.620   4
   2   2 -20 19588.6 1040.67   4
   2  -2 -20 19132.7 972.131   4
  -2  -2  20 20038.7 943.928   1
   2  -2 -20 20469.7 857.652   1
   2  -2 -19 736.476 189.901   1
   2  -2 -19 993.658 250.486   4
   2   2 -19 548.338 213.649   4
   2   2 -18 10534.0 730.563   4
   2  -2 -18 10545.5 685.111   4
   2  -2 -18 11630.1 622.964   1
   2  -2 -17 987.246 261.057   4
   2  -2 -17 597.140 186.668   1
   2  -2 -16 11862.3 672.656   4
   2  -2 -15 150.788 141.488   4
   2  -2 -14 3502.91 357.211   4
  -2  -2  13 779.715 202.011   2
   2  -2 -13 1292.51 260.671   4
  -2  -2  12 12336.4 580.043   2
   2  -2 -12 12799.5 607.415   4
   2  -2 -11 843.984 193.032   4
  -2  -2  11 800.499 152.046   2
   2  -2 -10 38168.4 954.532   4
  -2  -2  10 35552.5 1333.80   5
  -2  -2  10 36967.4 940.710   2
  -2  -2   9 1146.06 232.499   2
   2  -2  -9 1873.53 267.809   4
  -2  -2   9 1423.72 390.793   5
   2  -2  -8 23577.6 671.750   4
  -2  -2   8 22600.9 1074.77   5
  -2  -2   7 399.718 173.825   5
   2  -2  -7 319.548 92.7460   4
  -2  -2   6 19427.4 971.128   5
   2  -2  -6 18322.9 537.643   4
   2  -2  -5 414.280 103.142   4
  -2  -2   5 229.737 170.497   5
   2  -2  -4 3668.34 213.749   4
  -2  -2   4 3411.42 379.889   5
  -2  -2   3 709.041 166.329   5
  -2   2   3 834.316 100.954   4
   2  -2  -3 899.623 105.243   4
  -2  -2   2 11105.1 552.541   5
   2  -2  -2 10010.8 303.189   4
  -2   2   2 9971.84 312.856   4
   2  -2  -1 96.4981 39.8043   4
  -2  -2   1 51.2638 64.0150   4
  -2  -2   1 151.913 93.7553   5
  -2   2   1 89.5764 36.1115   4
   2  -2  -1 133.328 59.7740   5
  -2  -2   0 1158.86 134.216   4
  -2   2   0 1243.73 145.030   5
  -2   2   0 1214.60 104.892   4
   2  -2   0 1380.60 173.559   5
   2  -2   1 8069.41 455.313   5
  -2  -2  -1 8464.18 353.450   4
  -2   2  -1 7980.44 268.064   4
  -2  -2  -1 7939.33 334.380   3
  -2  -2  -2 782.617 133.264   4
   2  -2   2 894.014 187.318   5
  -2  -2  -2 908.356 130.225   3
   2  -2   3 8340.45 428.491   2
  -2  -2  -3 8261.15 377.879   4
   2  -2   3 8023.78 495.130   5
   2  -2   4 617.382 155.533   5
   2  -2   4 570.361 123.740   2
  -2  -2  -4 422.210 94.4848   4
   2  -2   5 1148.49 177.444   2
  -2  -2  -5 1237.20 175.722   4
   2  -2   5 1162.20 193.104   5
   2  -2   6 109039. 1665.33   2
  -2  -2  -6 108804. 1494.52   4
   2  -2   7 246.294 127.100   2
  -2  -2  -7 474.627 166.588   4
   2  -2   8 3662.55 338.181   2
  -2  -2  -8 3362.06 290.243   4
   2  -2   9 246.301 106.500   2
  -2   2  -9 142.152 111.869   2
  -2  -2  -9 254.257 127.837   4
  -2  -2 -10 16901.5 709.797   4
  -2   2 -10 16866.9 694.111   2
  -2  -2 -11 832.452 211.803   4
  -2   2 -11 812.448 193.788   2
  -2   2 -12 8002.28 499.399   2
  -2  -2 -12 7384.89 501.429   4
  -2   2 -12 7903.96 495.970   4
  -2   2 -13 170.311 142.814   4
  -2   2 -13 99.7711 113.302   2
  -2  -2 -13 119.437 166.934   4
  -2  -2 -13-58.2100 122.702   1
  -2  -2 -14 18088.2 879.635   1
  -2  -2 -14 18256.5 842.881   4
  -2   2 -14 19414.5 823.709   2
  -2   2 -14 18814.2 832.289   4
  -2   2 -15 165.842 157.555   2
  -2  -2 -15 38.4633 146.151   1
  -2   2 -15 108.655 179.817   4
  -2  -2 -16 6632.90 541.318   4
  -2  -2 -16 6532.80 554.617   1
  -2   2 -16 6376.93 488.354   2
  -2   2 -16 6662.27 527.220   4
  -2  -2 -17 172.307 174.020   4
  -2   2 -17 100.848 109.527   2
  -2   2 -17 124.329 162.185   4
  -2  -2 -17 83.7624 139.865   1
  -2   2 -18 2955.75 394.773   4
  -2  -2 -18 3063.23 400.206   4
  -2   2 -18 3403.89 379.067   2
  -2  -2 -18 3320.00 429.096   1
  -2   2 -19 491.273 197.017   4
  -2  -2 -19 180.552 119.416   1
  -2  -2 -19 140.277 167.387   4
  -2   2 -19 212.799 134.415   2
  -2  -2 -20 4350.38 502.931   4
  -2   2 -20 5177.25 476.156   2
  -2  -2 -20 4854.07 510.363   1
  -2   2 -20 4901.17 523.257   4
  -2  -2 -21 183.919 171.051   1
  -2   2 -21 446.524 283.691   4
  -2   2 -21 225.201 150.727   2
  -2  -2 -21 406.883 221.872   4
  -2  -2 -22 13063.2 842.893   1
  -2  -2 -22 12397.5 875.166   4
  -2   2 -22 12467.7 878.413   4
  -2  -2 -23 12.6071 108.864   1
  -2  -2 -23 201.053 210.492   4
  -2   2 -23 19.4700 163.727   4
  -2  -2 -24 7928.05 740.631   4
  -2   2 -24 8455.41 768.739   4
  -2   2 -25 510.558 257.153   4
  -2  -2 -25 412.657 235.936   4
  -2   2 -26 380.236 252.858   4
  -2  -2 -26-4.94382 162.744   4
  -2  -2 -27 401.746 267.114   4
  -2   2 -27 109.859 250.639   4
  -2   2 -28 12850.6 1058.78   4
  -2  -2 -28 13710.5 1067.25   4
  -2   2 -29 606.510 230.738   4
  -2  -2 -29 356.127 297.627   4
  -2  -2 -30 686.272 308.322   4
  -2   2 -30 363.630 297.449   4
  -2  -2 -31 489.149 285.546   4
  -2   2 -31 65.9732 181.718   4
  -2   2 -32 12577.1 1145.57   4
  -2  -2 -32 12312.6 1109.15   4
  -2  -2 -33 624.175 319.575   4
  -2   2 -33 144.451 168.977   4
  -2   2 -34 1819.94 482.037   4
  -2  -2 -34 1917.15 475.329   4
  -2   2 -35 729.693 410.144   4
   2   4 -35 117.636 283.895   4
   2   4 -34 389.605 220.107   4
   2  -4 -34 897.734 295.646   4
   2  -4 -33-92.8402 201.206   4
   2   4 -33 336.672 253.502   4
   2   4 -32 6729.30 875.678   4
   2  -4 -32 7525.06 863.540   4
   2  -4 -31 174.351 168.854   4
   2   4 -31-76.7227 178.686   4
   2   4 -30 3617.05 621.525   4
   2  -4 -30 3869.13 599.984   4
   2   4 -29 336.816 302.860   4
   2  -4 -29 379.160 216.947   4
   2   4 -28 12483.1 1084.86   4
   2  -4 -28 11355.3 978.906   4
   2  -4 -27 297.629 224.890   4
   2   4 -27-125.511 151.237   4
   2  -4 -26 564.918 215.764   1
   2   4 -26 274.197 188.851   4
   2  -4 -26 623.484 234.244   4
   2   4 -25 245.507 213.536   4
   2  -4 -25-25.6401 99.6604   1
   2  -4 -25 74.5778 185.108   4
   2  -4 -24 12641.0 941.008   4
   2  -4 -24 13960.2 890.775   1
   2   4 -24 12058.8 982.757   4
   2   4 -23 87.2487 146.227   4
   2  -4 -23 242.617 143.249   1
   2  -4 -23 293.392 235.144   4
   2  -4 -22 666.497 247.232   4
   2  -4 -21 753.318 288.241   4
   2  -4 -20 12376.5 837.563   4
   2  -4 -19 1667.76 322.197   4
   2  -4 -18 9438.23 693.161   4
   2  -4 -17 735.442 280.529   4
   2  -4 -16 14316.2 809.598   4
   2  -4 -15 220.978 153.707   4
   2  -4 -14 2088.90 309.202   4
  -2  -4  14 1836.49 452.046   5
   2  -4 -13 639.123 248.426   4
  -2  -4  13 340.101 290.773   5
   2  -4 -12 8898.67 564.349   4
  -2  -4  12 9071.56 904.666   5
   2  -4 -11 1533.98 241.396   4
  -2  -4  11 1601.94 417.546   5
   2  -4 -10 19460.9 786.273   4
  -2  -4  10 18432.5 1280.45   5
   2  -4  -9 952.874 224.482   4
  -2  -4   9 1087.33 416.580   5
  -2  -4   8 8690.20 876.395   5
   2  -4  -8 9119.20 505.166   4
  -2  -4   7-147.830 235.203   5
  -2   4   7-6.96766 38.9340   4
   2  -4  -7 62.8748 63.1146   3
   2  -4  -7 85.9536 103.246   4
   2  -4  -6 11298.5 418.293   3
  -2   4   6 11782.7 553.531   4
   2  -4  -6 11780.3 537.489   4
  -2  -4   6 11836.3 947.397   5
   2  -4  -5 444.815 145.502   4
  -2  -4   5 244.851 256.533   5
  -2   4   5 268.632 127.303   4
  -2  -4   4 3740.59 499.858   5
   2  -4  -4 3708.02 289.072   4
  -2   4   4 3847.88 298.702   4
   2   4  -4 3383.15 315.336   4
   2   4  -3 1999.03 235.838   4
   2  -4  -3 1887.34 204.857   4
  -2  -4   3 1713.51 313.199   5
  -2   4   3 1874.61 208.986   4
   2  -4  -3 1791.62 264.330   5
   2  -4  -2 44364.9 973.449   4
  -2   4   2 46614.6 1015.81   4
  -2  -4   2 45777.7 1554.81   5
   2  -4  -2 48102.0 1409.80   5
   2   4  -2 48656.0 1171.78   4
   2   4  -2 44375.0 1068.87   3
  -2  -4   1-16.6042 144.505   5
   2   4  -1 155.854 103.876   4
   2   4  -1-48.4067 72.8334   3
   2  -4  -1 241.276 221.778   5
  -2   4   1 191.736 116.541   4
  -2   4   1 127.050 70.9945   3
  -2  -4   0 3238.27 288.523   4
  -2   4   0 3504.94 271.198   4
   2  -4   0 3173.42 393.513   5
  -2   4   0 3282.12 201.831   3
   2   4   0 3084.23 293.241   4
  -2  -4   0 3036.70 376.188   5
   2   4   0 3066.35 257.428   3
  -2  -4  -1 1797.54 291.632   5
   2  -4   1 2237.47 369.776   5
  -2  -4  -1 2018.40 234.697   4
   2   4   1 498.862 122.552   4
  -2   4  -1 1914.53 199.357   4
   2  -4   2 1920.50 369.457   5
  -2   4  -2 1720.41 205.846   4
  -2  -4  -2 1775.74 252.305   4
  -2   4  -2 2038.67 290.751   5
  -2   4  -3 5449.09 500.867   5
  -2   4  -3 5399.37 353.071   4
   2  -4   3 5458.88 577.757   5
  -2  -4  -3 5834.00 415.609   4
   2  -4   4 121.882 172.601   5
  -2   4  -4 611.947 186.732   5
  -2  -4  -4 289.052 96.5723   3
  -2  -4  -4 274.067 125.596   4
  -2   4  -4 283.635 95.4129   4
  -2  -4  -5 214.431 91.8006   3
  -2   4  -5 261.351 159.835   5
   2  -4   5 377.039 228.992   5
  -2  -4  -5 579.994 180.762   4
  -2  -4  -6 47679.6 1224.30   4
   2  -4   6 44739.3 1718.48   5
  -2  -4  -6 45500.3 1095.14   3
  -2  -4  -7 35.7730 87.4975   3
   2  -4   7 90.3293 209.683   5
  -2  -4  -7 508.395 211.172   4
   2  -4   8 1743.77 333.563   5
  -2  -4  -8 1707.95 224.376   3
  -2  -4  -8 1676.13 246.816   4
   2  -4   9 48.4569 189.830   5
  -2  -4  -9 68.0754 142.494   4
  -2  -4 -10 9090.84 598.189   4
  -2  -4 -11 803.618 235.845   4
  -2  -4 -12 5981.64 501.701   4
  -2  -4 -13 857.925 277.381   4
  -2  -4 -14 22524.7 1022.13   4
  -2  -4 -15 813.506 282.350   4
  -2  -4 -16 4216.91 482.865   4
  -2  -4 -17 366.581 223.646   4
  -2  -4 -18 1394.29 315.729   4
  -2   4 -18 1466.53 304.855   4
  -2  -4 -19 256.996 175.250   4
  -2   4 -19 332.698 180.908   4
  -2  -4 -20 5970.89 636.847   1
  -2  -4 -20 5487.10 582.478   4
  -2   4 -20 5798.45 605.039   4
  -2  -4 -21 102.204 199.475   4
  -2  -4 -21-225.644 156.689   1
  -2   4 -21-86.6943 144.588   4
  -2   4 -22 10342.9 840.176   4
  -2  -4 -22 11299.9 902.977   1
  -2  -4 -22 11569.4 888.655   4
  -2   4 -23 166.086 198.460   4
  -2  -4 -23 95.7247 176.187   1
  -2  -4 -23 564.383 367.961   4
  -2   4 -24 8811.08 828.479   4
  -2  -4 -24 8434.41 792.584   4
  -2  -4 -24 8797.17 821.354   1
  -2  -4 -25 153.769 190.843   4
  -2   4 -25 256.292 243.281   4
  -2  -4 -25 138.724 199.270   1
  -2  -4 -26 540.981 216.457   1
  -2   4 -26 481.732 272.161   4
  -2  -4 -26 463.415 211.481   4
  -2   4 -27 154.909 213.581   4
  -2  -4 -27 234.017 203.155   4
  -2  -4 -27 210.145 190.429   1
  -2  -4 -28 8351.26 861.713   4
  -2   4 -28 8807.99 917.185   4
  -2   4 -29 427.881 290.464   4
  -2  -4 -29 5.63180 171.560   4
  -2   4 -30 548.689 279.351   4
  -2  -4 -30 157.334 170.624   4
  -2  -4 -31 105.119 257.192   4
  -2   4 -31 376.322 278.952   4
  -2   4 -32 6419.42 871.469   4
  -2  -4 -32 5015.06 759.273   4
  -2   4 -33 738.498 394.374   4
  -2   4 -34 1729.78 477.855   4
   2   6 -32 4471.42 741.180   4
   2  -6 -31-366.391 242.082   4
   2   6 -31-54.4670 181.358   4
   2  -6 -30 1532.81 419.867   4
   2   6 -30 2171.50 497.609   4
   2  -6 -29 4.08625 242.191   4
   2   6 -29 260.240 283.815   4
   2  -6 -28 8386.31 901.604   4
   2   6 -28 8668.02 978.503   4
   2   6 -27 1420.21 413.332   4
   2  -6 -27 100.791 222.906   4
   2   6 -26-24.5598 171.550   4
   2  -6 -26 157.033 198.022   4
   2  -6 -25 281.861 200.854   4
   2  -6 -24 14058.0 1065.30   4
   2  -6 -23-242.596 182.376   4
   2  -6 -22 683.371 262.880   4
   2  -6 -21 1089.04 345.143   4
   2  -6 -20 11371.5 879.731   4
   2  -6 -19 1030.73 302.251   4
   2  -6 -18 5582.71 600.967   4
   2  -6 -17 569.934 273.807   4
  -2  -6  16 8358.22 1013.14   5
   2  -6 -16 8642.08 697.643   4
  -2  -6  15 577.747 343.172   5
   2  -6 -15 567.361 227.750   4
  -2  -6  14 1100.21 388.878   5
   2  -6 -14 1447.12 313.387   4
  -2  -6  13 805.634 425.317   5
   2  -6 -13 641.982 269.110   4
   2  -6 -12 8010.55 612.615   4
  -2  -6  12 7131.61 990.414   5
   2  -6 -11 1907.77 312.738   4
  -2  -6  11 1899.50 576.608   5
   2  -6 -11 1500.90 212.283   3
  -2  -6  10 13233.8 1401.73   5
   2  -6 -10 11949.5 596.297   3
   2  -6 -10 12580.5 744.496   4
  -2  -6   9 250.935 290.524   5
   2  -6  -9 517.708 235.910   4
  -2  -6   8 5023.70 758.756   5
   2  -6  -8 5139.23 463.256   4
  -2  -6   7-133.633 307.328   5
   2  -6  -7 319.655 235.899   5
   2  -6  -7 443.976 230.849   4
   2  -6  -6 9533.21 624.634   4
   2  -6  -6 9288.06 804.889   5
  -2  -6   6 9031.10 1022.40   5
   2  -6  -5 80.3616 136.498   4
  -2  -6   5 133.383 290.139   5
   2  -6  -5 26.1549 164.076   5
  -2  -6   4 3220.34 600.053   5
   2  -6  -4 3097.77 459.735   5
   2  -6  -4 3272.10 345.077   4
  -2  -6   3 3054.50 612.204   5
   2  -6  -3 2013.98 401.744   5
  -2  -6   2 33069.6 1731.46   5
   2  -6  -2 36798.4 1698.77   5
  -2  -6   1 763.896 376.909   5
   2  -6  -1 889.591 452.024   5
   2   6  -1 719.443 196.797   3
   2  -6   0 3586.74 599.786   5
  -2  -6   0 2356.68 422.455   5
  -2   6  -1 54.1324 72.4238   3
   2  -6   1 226.965 244.291   5
  -2  -6  -1 43.2317 306.869   5
  -2   6  -2 5512.82 359.327   3
   2  -6   2 5825.31 760.544   5
  -2  -6  -2 5498.67 648.186   5
   2  -6   3 477.993 327.606   5
  -2  -6  -3 1014.71 229.918   4
  -2   6  -3 864.639 158.806   3
  -2  -6  -3 989.945 306.038   5
  -2  -6  -4 246.416 205.382   5
   2  -6   4 381.813 218.965   5
  -2  -6  -4 280.245 165.125   4
   2  -6   5-100.043 219.655   5
  -2  -6  -5 357.555 219.971   4
  -2  -6  -5 333.692 311.934   5
   2  -6   6 30130.2 1790.57   5
  -2  -6  -6 29819.7 1161.78   4
   2  -6   7 586.100 378.118   5
  -2  -6  -7 819.650 266.469   4
   2  -6   8 818.272 343.826   5
  -2  -6  -8 936.492 224.135   4
  -2  -6  -9 226.486 210.002   4
   2  -6   9-153.324 246.927   5
   2  -6  10 4186.87 690.986   5
  -2  -6 -10 4393.84 484.923   4
   2  -6  11 479.433 268.592   5
  -2  -6 -11 437.149 211.545   4
  -2  -6 -12 3855.79 470.550   4
  -2  -6 -13 450.064 259.595   4
  -2  -6 -14 17011.5 998.602   4
  -2  -6 -15 997.028 300.661   4
  -2  -6 -16 3375.63 474.380   4
  -2  -6 -17 218.419 205.686   4
  -2  -6 -18 1434.53 336.335   4
  -2  -6 -19 563.461 263.711   4
  -2  -6 -20 6711.86 699.713   4
  -2   6 -21 277.346 207.102   4
  -2  -6 -21 131.818 227.248   4
  -2   6 -22 7907.70 800.104   4
  -2  -6 -22 8260.81 821.962   4
  -2  -6 -23 731.874 293.219   4
  -2   6 -23 796.102 264.136   4
  -2   6 -24 6862.60 773.812   4
  -2  -6 -24 6208.32 744.436   4
  -2  -6 -24 5837.14 749.440   1
  -2  -6 -25 72.4129 163.347   1
  -2   6 -25-25.3877 202.833   4
  -2  -6 -26 467.157 218.797   1
  -2   6 -26 479.174 276.160   4
  -2  -6 -26 684.268 301.248   4
  -2  -6 -27 266.175 276.066   4
  -2   6 -27 266.783 191.422   4
  -2  -6 -28 5648.75 759.693   4
  -2   6 -28 6499.32 817.755   4
  -2  -6 -29 502.219 309.805   4
  -2   6 -29 615.300 299.820   4
  -2   6 -30 632.158 289.079   4
  -2   6 -31 260.151 244.087   4
   2   8 -27 135.782 163.751   4
   2  -8 -26 109.194 144.336   4
   2  -8 -25 400.482 254.142   4
   2  -8 -24 4501.57 683.824   4
   2  -8 -23-41.1119 153.133   4
   2  -8 -22 335.537 194.067   4
   2  -8 -21 819.946 330.798   4
   2  -8 -20 8606.95 846.600   4
   2  -8 -19 1411.34 374.906   4
   2  -8 -18 3095.56 498.368   4
   2  -8 -17 268.405 170.731   4
  -2  -8  16 6399.19 1011.65   5
   2  -8 -16 5690.82 656.221   4
  -2  -8  15 975.091 515.344   5
   2  -8 -15 899.206 280.721   4
  -2  -8  14 1722.54 577.630   5
   2  -8 -14 2534.18 435.705   4
   2  -8 -13 542.493 318.272   5
   2  -8 -13 686.707 278.639   4
  -2  -8  13 1106.51 473.941   5
   2  -8 -12 6309.13 796.134   5
   2  -8 -12 6433.93 651.938   4
  -2  -8  12 6667.11 1061.92   5
   2  -8 -11 1386.99 329.117   4
   2  -8 -11 1278.27 419.972   5
  -2  -8  11 1445.58 587.441   5
   2  -8 -10 9655.14 765.119   4
   2   8 -10 9901.51 828.267   3
  -2  -8  10 8358.66 1203.67   5
   2  -8 -10 9148.66 975.847   5
   2  -8  -9 683.697 280.800   4
  -2  -8   9 517.443 432.657   5
   2   8  -9 671.561 269.246   3
   2  -8  -9 543.430 394.862   5
  -2  -8   8 4015.58 865.491   5
   2   8  -8 5069.75 546.259   3
   2  -8  -8 4703.18 517.170   4
   2  -8  -8 5294.26 738.920   5
  -2  -8   7 458.668 419.157   5
   2  -8  -7 724.722 362.641   5
   2   8  -7 751.692 272.744   3
   2  -8  -6 4347.27 709.299   5
   2   8  -6 4609.51 476.640   3
  -2  -8   6 3660.51 759.431   5
   2  -8  -5-276.936 204.805   5
  -2  -8   5 47.2561 264.031   5
   2   8  -5 153.387 158.328   3
  -2  -8   4 1335.08 468.073   5
   2  -8  -4 1342.18 447.456   5
  -2  -8   3 1128.96 480.356   5
   2  -8  -3 1747.60 545.935   5
   2  -8  -2 11218.2 1215.21   5
  -2  -8   2 11661.8 1288.87   5
   2  -8  -1 899.559 388.112   5
  -2  -8   1 1471.02 606.274   5
   2  -8   0-506.338 404.507   5
  -2  -8   0 17.8844 197.110   5
   2  -8   1 6.15845 299.826   5
  -2  -8  -1-225.966 293.500   5
  -2  -8  -2 3506.58 648.906   5
   2  -8   2 3974.93 767.561   5
   2  -8   3-216.297 332.318   5
  -2  -8  -3 64.0186 227.329   5
   2  -8   4 155.914 365.004   5
  -2  -8  -4 72.7210 190.702   5
  -2  -8  -5 794.616 476.611   5
   2  -8   5 626.683 655.955   5
  -2  -8  -6 29667.3 1827.52   5
   2  -8   6 33997.7 2235.03   5
   2  -8   7 1233.10 494.461   5
  -2  -8  -7 1564.54 548.946   5
  -2  -8  -7 1274.00 383.639   4
  -2  -8  -8 722.015 232.328   4
  -2  -8  -8 696.526 312.629   5
   2  -8   8 1201.49 454.963   5
   2  -8   9 242.779 287.797   5
  -2  -8  -9 507.189 323.361   5
  -2  -8  -9 403.702 249.945   4
   2  -8  10 5829.23 921.261   5
  -2  -8 -10 4744.04 575.872   4
  -2  -8 -10 5360.56 783.794   5
  -2  -8 -11 1213.37 362.327   4
   2  -8  11 1044.58 477.300   5
  -2  -8 -11 976.927 402.906   5
   2  -8  12 3723.69 749.580   5
  -2  -8 -12 3825.57 548.841   4
  -2  -8 -13 521.240 266.225   4
  -2  -8 -14 9499.36 858.593   4
  -2  -8 -15 978.135 356.210   4
  -2  -8 -16 2190.14 427.636   4
  -2  -8 -17 366.924 223.962   4
  -2  -8 -18 1051.41 319.276   4
  -2  -8 -19 342.095 229.777   4
  -2  -8 -20 3314.81 583.272   4
  -2  -8 -21 323.526 213.187   4
  -2  -8 -22 4247.77 634.744   4
  -2  -8 -23 1244.17 367.152   4
  -2  -8 -24 4380.29 670.697   4
  -2 -10  15 1069.78 500.229   5
  -2 -10  14 882.291 456.960   5
  -2 -10  13 9.50798 243.199   5
  -2 -10  12 4824.99 984.690   5
  -2 -10  11 1325.36 658.957   5
  -2 -10  10 5513.19 1080.38   5
  -2 -10   9 853.678 679.175   5
  -2 -10   8 2253.08 729.111   5
  -2 -10   7 989.795 637.893   5
  -2 -10   6 3260.81 853.839   5
  -2 -10   5 1078.24 579.714   5
  -2 -10   4 1693.54 544.790   5
   2 -10  -3 1922.60 790.782   5
  -2 -10   3 611.401 684.232   5
  -2 -10   2 13185.1 1587.80   5
   2 -10  -2 11195.8 1378.86   5
   2 -10  -1 1164.28 682.664   5
  -2 -10   1 577.711 809.245   5
   2 -10   0-496.834 451.708   5
  -2 -10   0-269.551 321.249   5
  -2 -10  -1 626.857 401.148   5
   2 -10   1-442.134 232.006   5
   2 -10   2 4598.88 897.922   5
  -2 -10  -2 2940.49 719.742   5
   2 -10   3 803.118 521.975   5
  -2 -10  -3 789.555 508.485   5
  -2 -10  -4 635.049 434.506   5
   2 -10   4 376.354 332.996   5
   2 -10   5 485.591 585.113   5
  -2 -10  -5 804.303 453.017   5
   2 -10   6 10651.3 1357.60   5
  -2 -10  -6 8873.51 1232.38   5
  -2 -10  -7 1667.91 677.465   5
   2 -10   7 966.474 552.435   5
   2 -10   8 477.369 270.832   5
  -2 -10  -8 952.873 478.364   5
  -2 -10  -9 487.380 433.762   5
   2 -10   9-13.7526 259.974   5
  -2 -10 -10 2234.04 629.229   5
   2 -10  10 2351.40 637.181   5
  -2 -10 -11 278.538 406.316   5
  -2 -10 -12 1539.79 535.969   5
  -2 -10 -13 420.532 332.993   5
  -2 -10 -14 5719.47 952.068   5
  -2 -10 -14 10097.9 1120.59   4
  -2 -10 -15 978.694 359.090   4
  -2 -10 -15 548.998 422.280   5
  -2 -10 -16 1158.85 466.015   5
  -2 -10 -16 1216.26 375.207   4
   3   1 -37 3261.13 670.837   4
   3  -1 -37 3843.68 709.652   4
   3   1 -36-8.78855 212.727   4
   3  -1 -36 1697.33 569.708   4
   3  -1 -35 6933.92 877.619   4
   3   1 -35 8081.25 972.208   4
   3  -1 -34 165.406 198.974   4
   3   1 -34 626.857 350.020   4
   3  -1 -33 7275.93 872.267   4
   3   1 -33 5814.99 804.964   4
   3  -1 -32 283.061 210.551   4
   3   1 -32-201.373 243.565   4
   3   1 -31 1154.86 341.133   4
   3  -1 -31 1113.16 332.620   4
   3  -1 -30 574.883 391.401   4
   3   1 -30 4.33123 188.145   4
   3  -1 -29 10977.6 947.037   4
   3   1 -29 11529.9 1007.58   4
   3   1 -28 248.533 242.285   4
   3  -1 -28 235.391 200.487   4
   3  -1 -27 3417.85 513.565   4
   3   1 -27 4017.76 584.150   4
   3  -1 -27 3815.90 312.217   2
   3  -1 -26 335.735 127.306   2
   3   1 -26 456.796 248.326   4
   3  -1 -26-44.6269 157.074   4
   3   1 -25 13952.6 986.669   4
   3  -1 -25 14621.6 985.991   4
   3   1 -24 52.5583 174.457   4
   3  -1 -24-157.360 165.654   4
   3   1 -23 1956.88 374.156   4
   3  -1 -23 2209.59 378.109   4
   3  -1 -22 255.341 182.966   4
  -3  -1  22 34.1926 54.3740   1
   3   1 -22 168.982 196.977   4
   3  -1 -21 9869.31 717.218   4
   3   1 -21 9481.18 723.624   4
  -3  -1  21 9561.42 507.267   1
   3  -1 -20 109.784 172.135   4
  -3  -1  20 33.2276 67.7540   1
   3   1 -20 53.4614 131.075   4
   3  -1 -19 576.931 241.034   4
  -3  -1  19 289.085 112.459   1
   3   1 -19 853.149 271.040   4
   3   1 -18 486.986 230.115   4
   3  -1 -18 964.952 300.502   4
  -3  -1  18 323.977 120.848   1
  -3  -1  17 17948.7 674.258   1
   3  -1 -17 18883.1 617.478   1
   3  -1 -17 17785.5 836.335   4
   3   1 -17 17076.6 859.356   4
  -3  -1  16 64.7508 66.2008   1
   3  -1 -16 177.469 162.962   4
   3  -1 -16 30.0948 64.9348   1
   3   1 -16 23.5950 118.379   4
  -3  -1  15 10233.8 486.270   1
   3  -1 -15 10180.7 438.054   1
   3  -1 -15 10007.3 587.756   4
   3  -1 -14 1711.27 327.221   4
   3  -1 -14 1321.84 193.012   1
   3  -1 -13 39623.4 1062.33   4
   3  -1 -13 41129.4 806.872   1
   3  -1 -12 658.983 191.159   4
   3  -1 -12 294.492 75.0533   1
   3  -1 -11 4120.37 327.559   4
   3  -1 -10 1524.42 243.857   4
  -3  -1  10 515.927 121.443   2
  -3  -1   9 25308.7 556.828   2
   3  -1  -9 26020.6 701.557   4
  -3  -1   8 158.787 111.005   5
   3  -1  -8 658.906 151.715   4
   3  -1  -7 49630.5 846.143   4
  -3  -1   7 48801.0 1316.81   5
   3  -1  -6 1015.73 156.089   4
  -3  -1   6 891.923 294.706   5
  -3  -1   5 9731.25 564.244   5
   3  -1  -5 9752.72 310.617   4
   3  -1  -4 182.320 41.8225   4
  -3  -1   4 192.058 117.161   5
   3  -1  -3 17231.3 306.595   4
  -3  -1   3 17299.1 605.725   5
  -3  -1   2 156.056 79.7272   5
   3  -1  -2 135.346 78.0422   2
  -3  -1   1 1199.95 106.724   4
   3  -1  -1 1300.96 124.496   2
  -3  -1   0-26.9817 35.9086   3
   3  -1   0 42.0738 48.2633   2
  -3  -1   0-35.1446 39.8670   4
   3  -1   1 67334.0 982.798   2
  -3  -1  -1 63402.0 810.106   4
  -3  -1  -1 63916.4 864.251   3
  -3  -1  -2 242.036 84.9665   4
   3  -1   2 317.871 176.086   2
  -3   1  -3 212.503 50.3289   4
  -3  -1  -3 129.506 51.9618   4
  -3   1  -4 271.165 66.5233   4
  -3  -1  -4 237.688 88.2962   4
  -3  -1  -5 12767.3 469.172   4
  -3   1  -5 12704.1 390.903   4
  -3   1  -6 94.4437 80.8152   4
  -3   1  -6 207.232 146.894   2
  -3  -1  -6 167.080 102.086   4
  -3  -1  -6 107.750 125.443   1
  -3  -1  -7 1590.24 217.117   1
  -3   1  -7 1591.18 206.388   2
  -3  -1  -7 1523.11 183.451   4
  -3   1  -7 1523.66 166.823   4
  -3   1  -8 447.412 159.160   2
  -3  -1  -8 101.574 89.4600   1
  -3   1  -8 224.929 104.018   4
  -3  -1  -8 125.529 105.387   4
  -3   1  -9 48537.5 1125.34   2
  -3  -1  -9 50825.7 1261.83   1
  -3   1  -9 48667.9 1015.45   4
  -3  -1  -9 50048.1 1102.46   4
  -3   1 -10 1339.24 271.682   2
  -3   1 -10 1180.16 232.084   4
  -3  -1 -10 1121.63 281.737   1
  -3  -1 -10 1311.99 267.005   4
   3  -1  10 705.023 213.739   1
  -3   1 -11 6885.91 446.654   2
   3  -1  11 7167.63 542.828   1
  -3   1 -11 7066.06 429.234   4
  -3  -1 -11 7562.57 471.911   4
  -3  -1 -11 7439.38 513.958   1
  -3   1 -12 325.345 135.242   2
  -3  -1 -12 440.924 170.418   1
   3  -1  12 25.6955 81.5443   1
  -3  -1 -12 201.960 125.454   4
  -3   1 -12 119.379 107.999   4
  -3   1 -13 10013.3 567.518   2
  -3  -1 -13 10824.5 615.364   4
   3  -1  13 11792.5 728.806   1
  -3  -1 -13 10662.6 652.881   1
  -3   1 -13 10322.6 577.027   4
  -3  -1 -14 418.119 202.048   4
  -3  -1 -14 228.970 176.880   1
  -3   1 -14 304.300 171.687   2
  -3   1 -14 295.859 175.735   4
   3  -1  14 204.450 144.011   1
  -3   1 -15 9261.98 592.047   4
  -3  -1 -15 9469.14 636.541   1
  -3   1 -15 9173.11 563.995   2
  -3  -1 -15 9469.04 610.325   4
   3  -1  15 9548.34 695.056   1
  -3  -1 -16 136.619 173.793   1
  -3   1 -16 139.574 166.913   4
  -3   1 -16 236.449 157.515   2
  -3  -1 -16 419.589 201.511   4
  -3  -1 -17 27248.0 1106.16   4
  -3  -1 -17 27555.8 1130.53   1
  -3   1 -17 26997.6 1011.54   2
  -3   1 -17 26943.6 1092.28   4
  -3   1 -18 1105.00 317.180   4
  -3  -1 -18 852.902 307.392   4
  -3   1 -18 356.724 192.426   2
  -3  -1 -19 9508.35 697.241   4
  -3   1 -19 10076.5 643.128   2
  -3   1 -19 9927.83 707.853   4
  -3  -1 -20 328.471 197.216   4
  -3   1 -20 298.651 171.222   2
  -3   1 -20 217.344 168.081   4
  -3   1 -21 343.787 174.151   2
  -3  -1 -21 361.430 213.593   4
  -3   1 -21 214.654 160.488   4
  -3   1 -22 272.634 202.494   4
  -3  -1 -22 262.783 208.346   4
  -3   1 -22 219.362 163.505   2
  -3  -1 -23 15712.6 996.712   4
  -3   1 -23 15930.7 999.291   4
  -3   1 -23 18092.6 923.314   2
  -3   1 -24 487.902 190.382   2
  -3   1 -24 289.453 210.879   4
  -3  -1 -24 66.4744 172.976   4
  -3   1 -25 5047.83 605.874   4
  -3   1 -25 5678.72 539.607   2
  -3  -1 -25 5969.61 654.259   4
  -3  -1 -26-26.3606 148.771   4
  -3   1 -26 234.029 163.227   2
  -3   1 -26 218.694 137.083   4
  -3   1 -27 9053.01 695.267   2
  -3   1 -27 7431.31 776.266   4
  -3  -1 -27 7509.36 779.163   4
  -3  -1 -28 10.6949 155.748   4
  -3   1 -28 230.701 204.263   4
  -3   1 -28 77.9864 154.961   2
  -3  -1 -29 248.790 195.393   4
  -3   1 -29 195.683 158.516   4
  -3   1 -30 428.299 244.978   4
  -3  -1 -30 365.873 208.691   4
  -3   1 -31 8905.79 929.568   4
  -3  -1 -31 9957.05 985.346   4
  -3   1 -32 206.704 196.788   4
  -3  -1 -32 306.472 267.175   4
  -3  -1 -33 570.747 275.632   4
  -3   1 -33 240.305 233.483   4
  -3   1 -34 196.901 222.408   4
  -3  -1 -34 636.192 300.657   4
  -3   1 -35 5391.29 814.044   4
   3   3 -36 20.2959 186.316   4
   3  -3 -35 7814.97 920.214   4
   3   3 -35 7738.71 985.575   4
   3   3 -34 965.978 398.178   4
   3  -3 -34 802.444 345.933   4
   3   3 -33 9877.24 1076.42   4
   3  -3 -33 10036.3 1018.96   4
   3  -3 -32 240.164 218.155   4
   3   3 -32 457.664 241.541   4
   3   3 -31 534.315 307.332   4
   3  -3 -31 609.596 282.502   4
   3  -3 -30 354.468 224.096   4
   3   3 -30 81.3640 211.952   4
   3  -3 -29 11530.6 975.651   4
   3   3 -29 11126.8 1023.05   4
   3   3 -28 132.597 205.672   4
   3  -3 -28 333.110 243.196   4
   3   3 -27 2087.80 457.743   4
   3  -3 -27 1820.92 375.227   4
   3   3 -26 465.461 326.522   4
   3  -3 -26 290.828 156.920   1
   3  -3 -26 628.371 272.210   4
   3   3 -25 5288.59 652.442   4
   3  -3 -25 6199.96 528.716   1
   3  -3 -25 5293.26 604.927   4
   3   3 -24 88.8560 173.654   4
   3  -3 -24 270.281 141.920   1
   3  -3 -24 466.062 208.895   4
   3  -3 -23 691.333 189.422   1
   3  -3 -23 652.655 227.751   4
   3   3 -23 682.327 280.577   4
   3   3 -22-19.6932 138.002   4
   3  -3 -22 33.6398 138.649   4
   3  -3 -22 71.6570 112.204   1
   3  -3 -21 8259.83 585.020   1
   3  -3 -21 7996.32 665.226   4
   3  -3 -20 247.177 189.619   4
   3  -3 -19 295.072 217.149   4
   3  -3 -18 1105.79 307.069   4
   3  -3 -17 42199.6 1333.48   4
   3  -3 -16 1265.35 288.993   4
  -3  -3  16 802.497 201.799   2
  -3  -3  15 15604.8 782.437   2
   3  -3 -15 16341.7 780.375   4
   3  -3 -14 1222.84 283.099   4
  -3  -3  14 752.934 232.746   2
  -3  -3  13 25437.7 1359.67   5
  -3  -3  13 26656.9 981.571   2
   3  -3 -13 27651.0 941.712   4
  -3  -3  12 540.414 147.226   2
  -3  -3  12 479.642 255.252   5
   3  -3 -12 899.212 213.168   4
  -3  -3  11 1990.67 411.462   5
   3  -3 -11 1944.59 247.722   4
  -3  -3  10 746.185 377.844   5
   3  -3 -10 1095.05 233.125   4
  -3   3  10 908.930 211.897   4
   3  -3  -9 10122.2 489.470   4
  -3   3   9 9978.75 499.280   4
  -3  -3   9 10024.3 872.073   5
  -3  -3   8 358.162 203.178   5
   3  -3  -8 1049.36 152.634   4
  -3   3   8 983.903 152.099   4
  -3  -3   7 26514.8 1319.57   5
   3  -3  -7 25504.4 710.089   4
  -3   3   7 25509.2 728.929   4
  -3   3   6 443.542 139.231   4
   3  -3  -6 671.927 160.784   4
  -3  -3   6 692.953 309.449   5
  -3   3   5 13165.8 476.186   4
   3  -3  -5 12763.0 460.632   4
   3  -3  -5 11741.9 306.880   3
  -3  -3   5 13445.7 859.469   5
  -3  -3   4-215.209 192.803   5
   3  -3  -4-67.6491 69.6997   4
  -3   3   4-13.2820 47.3684   4
   3  -3  -4-8.77692 25.1612   3
  -3  -3   3 34516.4 1220.27   5
   3  -3  -3 34477.1 902.268   5
   3  -3  -3 33972.0 694.307   4
  -3   3   3 33668.6 703.181   4
   3   3  -2 521.424 134.264   3
  -3  -3   2 547.316 195.303   5
   3  -3  -2 631.707 114.906   4
  -3   3   2 634.977 120.335   4
   3  -3  -2 1030.18 206.803   5
   3   3  -1 958.791 146.256   3
  -3  -3   1 693.293 163.147   5
   3  -3  -1 1102.64 184.032   5
  -3   3   1 856.853 102.172   4
  -3  -3   1 722.040 115.155   4
  -3   3   1 802.736 67.8706   3
   3   3   0 499.297 120.788   3
  -3   3   0 381.184 57.8206   4
  -3  -3   0 238.389 81.9068   4
   3  -3   0 313.134 106.703   5
  -3   3  -1 44249.7 1111.31   5
  -3   3  -1 44275.3 777.357   4
  -3  -3  -1 40947.5 945.841   4
   3  -3   1 40575.7 1255.70   5
  -3   3  -2 190.791 88.6402   4
  -3  -3  -2 146.182 118.373   4
   3  -3   2 547.827 253.187   5
  -3   3  -2 234.889 157.410   5
  -3  -3  -2 124.158 87.7002   3
   3  -3   3 480.066 171.426   5
  -3   3  -3 320.107 131.874   5
  -3  -3  -3 409.462 114.914   4
   3  -3   3 444.119 136.585   2
  -3  -3  -3 394.192 105.511   3
   3  -3   4 421.345 155.077   5
  -3  -3  -4 575.417 137.721   4
   3  -3   4 569.394 152.666   2
  -3  -3  -4 385.833 99.4769   3
  -3   3  -4 431.715 179.165   5
  -3   3  -5 8366.16 688.905   5
   3  -3   5 8623.11 544.227   2
  -3  -3  -5 8622.99 476.027   4
   3  -3   5 7840.10 581.799   5
  -3  -3  -5 8061.69 436.572   3
   3  -3   6 217.844 166.968   5
  -3   3  -6 104.815 179.323   5
  -3  -3  -6 189.301 134.403   4
   3  -3   6 159.328 159.923   2
  -3  -3  -7 118.753 94.2907   4
  -3   3  -7 86.9875 106.512   5
   3  -3   7 115.050 64.3671   2
  -3   3  -8 175.332 114.279   5
  -3  -3  -8 292.999 167.634   4
  -3  -3  -9 81612.0 1612.47   4
  -3  -3 -10 1935.43 349.259   4
  -3  -3 -11 5826.52 460.360   4
  -3  -3 -12 149.877 174.577   4
  -3  -3 -13 13463.4 749.166   4
  -3  -3 -14 623.889 230.451   4
  -3   3 -14 652.228 224.927   4
  -3   3 -15 7775.29 574.331   4
  -3  -3 -15 7128.82 573.857   4
  -3  -3 -16-119.098 171.876   4
  -3  -3 -16-97.2047 170.864   1
  -3   3 -16 15.1961 106.392   4
  -3   3 -17 8724.87 643.857   4
  -3  -3 -17 8175.07 695.467   1
  -3  -3 -17 8330.56 652.952   4
  -3  -3 -18 635.000 268.155   4
  -3   3 -18 125.426 177.055   4
  -3  -3 -18 293.143 205.454   1
  -3   3 -19 5772.91 564.450   4
  -3  -3 -19 5641.40 570.971   4
  -3  -3 -19 5608.36 634.903   1
  -3  -3 -20 47.3836 143.551   4
  -3  -3 -20-78.5749 168.813   1
  -3   3 -20 176.358 152.129   4
  -3   3 -21 206.943 147.406   4
  -3  -3 -21 181.594 157.939   1
  -3   3 -22 52.9003 163.852   4
  -3  -3 -22 266.857 148.224   1
  -3  -3 -22 37.0870 182.707   4
  -3  -3 -23 12773.1 930.612   4
  -3  -3 -23 12642.7 935.871   1
  -3   3 -23 13713.5 972.843   4
  -3  -3 -24 365.705 227.392   1
  -3   3 -24 596.146 369.615   4
  -3  -3 -24 255.690 205.308   4
  -3  -3 -25 7940.56 753.478   1
  -3   3 -25 7852.30 785.145   4
  -3  -3 -25 7817.57 771.499   4
  -3   3 -26 646.287 279.238   4
  -3  -3 -26 156.083 193.745   1
  -3  -3 -26 514.035 270.843   4
  -3  -3 -27 11591.6 996.762   4
  -3   3 -27 12754.2 1046.45   4
  -3   3 -28 294.099 219.296   4
  -3  -3 -28 259.699 213.391   4
  -3  -3 -29 240.325 238.558   4
  -3   3 -29 220.899 267.474   4
  -3   3 -30 111.538 161.703   4
  -3  -3 -30-125.245 225.015   4
  -3   3 -31 8079.06 920.680   4
  -3  -3 -31 8261.90 910.842   4
  -3  -3 -32 331.238 260.109   4
  -3   3 -32 231.796 196.996   4
  -3  -3 -33 409.519 268.290   4
  -3   3 -33 132.743 220.367   4
  -3   3 -34 218.437 197.503   4
   3   5 -34 576.264 311.685   4
   3   5 -33 3263.01 645.667   4
   3  -5 -33 3126.96 594.760   4
   3  -5 -32 79.1009 143.761   4
   3   5 -32 323.473 258.632   4
   3   5 -31 667.007 351.029   4
   3  -5 -31 61.1881 198.470   4
   3   5 -30 180.595 206.000   4
   3  -5 -30-169.173 158.124   4
   3   5 -29 8507.04 944.271   4
   3  -5 -29 8262.87 880.108   4
   3   5 -28 565.626 281.199   4
   3  -5 -28 75.7476 198.693   4
   3   5 -27 1757.60 419.436   4
   3  -5 -27 2096.90 430.923   4
   3   5 -26 907.081 314.591   4
   3  -5 -26 1149.54 293.810   1
   3  -5 -26 1249.73 356.120   4
   3  -5 -25 19267.9 1200.87   4
   3  -5 -24 131.420 171.158   4
   3  -5 -23 1598.42 340.621   4
   3  -5 -22-153.973 152.853   4
   3  -5 -21 9570.31 779.413   4
   3  -5 -20 794.571 248.740   4
   3  -5 -19 575.389 239.436   4
   3  -5 -18 1147.07 301.397   4
   3  -5 -17 13149.7 826.296   4
  -3  -5  16 560.102 272.166   5
   3  -5 -16 729.786 224.895   4
  -3  -5  15 2472.48 562.964   5
   3  -5 -15 2475.30 363.734   4
   3  -5 -14 350.830 204.895   4
  -3  -5  14 496.440 341.933   5
   3  -5 -13 17111.4 846.221   4
  -3  -5  13 16495.2 1378.08   5
  -3  -5  12 822.854 409.735   5
   3  -5 -12 1156.79 255.842   4
  -3  -5  11 4300.50 719.586   5
   3  -5 -11 3713.68 298.966   3
   3  -5 -11 4115.10 409.726   4
  -3  -5  10 132.680 272.294   5
   3  -5 -10 491.254 212.502   4
   3  -5 -10 158.226 99.1752   3
  -3  -5   9 11278.8 1091.99   5
   3  -5  -9 12799.0 654.328   4
   3  -5  -9 11693.1 485.332   3
  -3  -5   8 1405.99 397.067   5
   3  -5  -8 2061.17 287.454   4
   3  -5  -8 2083.41 198.920   3
   3  -5  -7 37770.0 1073.55   4
  -3  -5   7 35672.2 1831.44   5
  -3  -5   6 1419.39 448.729   5
   3  -5  -6 1713.33 273.165   4
   3  -5  -5 4283.53 340.972   4
   3  -5  -5 4331.67 455.853   5
  -3  -5   5 4378.90 636.551   5
   3  -5  -4 226.654 132.814   5
   3   5  -4 191.182 91.4238   3
   3  -5  -4 140.787 104.696   4
  -3  -5   4-194.424 279.284   5
   3  -5  -3 12337.5 831.238   5
   3  -5  -3 12157.3 560.010   4
   3   5  -3 11337.4 616.054   3
  -3  -5   3 11683.0 938.490   5
  -3   5   3 10886.6 544.585   4
  -3   5   2-45.0187 78.5917   4
   3   5  -2 113.785 91.5997   3
  -3  -5   2-164.030 201.035   5
   3  -5  -2 18.2228 143.804   5
  -3  -5   1 1579.54 295.158   5
   3   5  -1 1626.77 216.020   3
   3  -5  -1 1643.92 320.427   5
  -3   5   1 1735.51 215.384   4
  -3   5   0 2043.73 243.111   4
  -3   5   0 1241.00 108.319   3
   3  -5   0 2353.74 409.199   5
  -3  -5   0 1958.99 359.486   5
   3   5   0 2066.21 270.757   3
  -3  -5  -1 42853.4 1601.19   5
  -3   5  -1 44212.5 840.763   3
  -3   5  -1 44542.4 1091.37   4
   3  -5   1 46000.4 1835.86   5
  -3  -5  -1 43396.9 1217.36   4
  -3  -5  -2 1040.57 271.187   4
   3  -5   2 731.250 373.092   5
  -3   5  -2 672.373 190.707   4
  -3  -5  -2 1010.06 342.292   5
  -3  -5  -3 178.384 126.400   4
  -3   5  -3 298.142 98.1986   4
   3  -5   3 246.113 167.990   5
  -3   5  -4 6.21345 63.2625   4
  -3  -5  -4-120.615 135.327   4
   3  -5   4-15.9366 190.172   5
   3  -5   5 15039.1 1091.62   5
  -3  -5  -5 15175.6 758.987   4
  -3  -5  -5 14417.1 714.205   3
  -3  -5  -6 618.351 209.546   4
  -3  -5  -6 334.078 124.740   3
  -3  -5  -7 128.859 139.440   4
   3  -5   7 148.437 173.310   5
   3  -5   8-59.2655 155.961   5
  -3  -5  -8 192.676 216.622   4
   3  -5   9 22125.4 1283.00   5
  -3  -5  -9 20484.8 941.377   4
  -3  -5 -10 3493.97 423.138   4
  -3  -5 -11 1067.76 255.384   4
  -3  -5 -12 164.803 172.388   4
  -3  -5 -13 4452.72 495.894   4
  -3  -5 -14 618.110 260.317   4
  -3  -5 -15 4829.51 528.056   4
  -3  -5 -16 736.037 307.580   4
  -3  -5 -17 22981.6 1191.53   4
  -3   5 -18 1274.83 338.988   4
  -3  -5 -18 1809.22 422.460   4
  -3  -5 -19 12179.0 902.245   4
  -3   5 -19 12824.3 895.556   4
  -3  -5 -20 588.241 271.929   4
  -3   5 -20 477.426 215.754   4
  -3   5 -21 785.036 288.632   4
  -3  -5 -21 784.065 331.007   1
  -3  -5 -21 828.783 327.523   4
  -3  -5 -22 214.106 221.317   1
  -3  -5 -22 253.717 222.130   4
  -3   5 -22 186.272 186.631   4
  -3  -5 -23 9237.56 850.514   4
  -3   5 -23 8235.55 794.092   4
  -3  -5 -23 8746.14 880.697   1
  -3  -5 -24-21.7416 172.860   4
  -3  -5 -24-118.377 139.349   1
  -3   5 -24 249.737 203.338   4
  -3   5 -25 2628.01 496.185   4
  -3  -5 -25 2670.15 503.471   1
  -3  -5 -25 2519.72 472.853   4
  -3  -5 -26-9.28937 157.366   4
  -3  -5 -26 861.108 265.437   1
  -3   5 -26 464.518 235.525   4
  -3  -5 -27 4896.57 681.495   1
  -3   5 -27 5406.72 727.083   4
  -3  -5 -27 6197.81 750.409   4
  -3   5 -28-87.5476 147.678   4
  -3  -5 -28 226.143 221.753   4
  -3  -5 -29 364.980 230.191   4
  -3   5 -29-35.1809 154.618   4
  -3  -5 -30 779.450 368.599   4
  -3   5 -30 99.1457 150.267   4
  -3   5 -31 6227.47 846.723   4
  -3   5 -32 263.256 265.173   4
  -3   5 -33 1411.35 435.396   4
   3   7 -30 215.110 165.146   4
   3   7 -29 6874.30 917.000   4
   3  -7 -29 6370.93 855.432   4
   3  -7 -28-6.42382 165.503   4
   3   7 -28 346.376 324.966   4
   3  -7 -27 1409.01 421.574   4
   3  -7 -26 49.7880 188.320   4
   3  -7 -25 6514.45 776.106   4
   3  -7 -24 144.264 172.160   4
   3  -7 -23 463.758 250.881   4
   3  -7 -22 337.556 221.964   4
   3  -7 -21 7384.89 755.149   4
   3  -7 -20 699.214 251.146   4
   3  -7 -19 2145.84 421.021   4
   3  -7 -18 8649.71 788.183   4
  -3  -7  17 17426.9 1595.61   5
   3  -7 -17 18029.5 1076.69   4
   3  -7 -16 2131.48 390.161   4
  -3  -7  16 2732.15 688.950   5
  -3  -7  15 5630.01 946.297   5
   3  -7 -15 6616.14 631.739   4
   3  -7 -14 380.040 206.997   4
  -3  -7  14 184.049 269.906   5
   3  -7 -13 10782.9 771.475   4
  -3  -7  13 9756.42 1225.80   5
   3  -7 -12 621.039 237.678   4
  -3  -7  12 573.701 391.462   5
  -3  -7  11 1082.47 511.456   5
   3  -7 -11 1240.14 275.386   4
   3  -7 -10 572.641 275.281   5
  -3  -7  10-41.8919 235.135   5
   3  -7 -10 605.520 236.040   4
   3  -7  -9 5124.10 505.824   4
   3  -7  -9 4874.23 636.086   5
  -3  -7   9 4372.93 821.322   5
   3  -7  -8 1696.47 315.307   4
  -3  -7   8 963.718 434.994   5
   3   7  -8 1591.37 341.051   3
   3  -7  -8 1842.11 417.507   5
   3  -7  -7 15564.3 1144.27   5
  -3  -7   7 14533.4 1426.43   5
   3   7  -7 16725.2 953.604   3
   3  -7  -7 16661.7 861.606   4
   3  -7  -6 623.843 330.243   5
   3  -7  -6 1256.14 287.830   4
  -3  -7   6 1022.51 445.911   5
   3   7  -6 767.534 281.021   3
  -3  -7   5 5873.03 918.558   5
   3   7  -5 5591.24 513.651   3
   3  -7  -5 5507.66 701.489   5
   3  -7  -4 558.749 230.968   5
   3   7  -4 1381.92 289.023   3
  -3  -7   4 1618.23 477.176   5
  -3  -7   3 11405.8 1175.69   5
   3  -7  -3 11802.9 1071.24   5
  -3  -7   2 480.845 387.343   5
   3  -7  -2-11.9207 220.090   5
   3  -7  -1 210.716 255.678   5
  -3  -7   1 119.603 271.020   5
   3  -7   0 2034.69 550.410   5
  -3  -7   0 2311.32 590.249   5
  -3  -7  -1 23901.0 1559.70   5
   3  -7   1 24367.7 1676.13   5
  -3  -7  -2 1079.36 469.640   5
   3  -7   2 1159.31 504.186   5
  -3   7  -3 53.9060 61.9267   3
  -3  -7  -3-57.1100 160.639   5
  -3  -7  -4-33.4996 109.799   4
  -3   7  -4 94.1425 64.3026   3
  -3  -7  -4-23.8980 205.076   5
   3  -7   4-61.0957 228.591   5
  -3   7  -5 3608.13 340.198   3
  -3  -7  -5 3511.59 574.714   5
  -3  -7  -5 3400.73 425.238   4
   3  -7   5 2957.18 616.094   5
   3  -7   6 280.859 178.743   5
  -3  -7  -6 618.263 240.041   4
  -3  -7  -6 728.114 313.226   5
   3  -7   7 299.491 210.669   5
  -3  -7  -7 395.964 183.014   4
  -3  -7  -7 439.307 279.182   5
   3  -7   8 693.340 323.608   5
  -3  -7  -8 1195.49 346.388   4
   3  -7   9 31183.1 1881.04   5
  -3  -7  -9 29759.2 1316.38   4
   3  -7  10 1250.25 417.614   5
  -3  -7 -10 1585.82 368.946   4
   3  -7  11 1180.47 390.644   5
  -3  -7 -11 916.627 274.264   4
  -3  -7 -12 194.600 214.900   4
  -3  -7 -13 6656.23 667.269   4
  -3  -7 -14 512.906 289.014   4
  -3  -7 -15 4215.99 556.547   4
  -3  -7 -16 533.504 270.912   4
  -3  -7 -17 7094.01 737.659   4
  -3  -7 -18 849.196 315.235   4
  -3  -7 -19 3482.22 521.573   4
  -3  -7 -20 69.4660 208.198   4
  -3   7 -20 98.6061 170.064   4
  -3  -7 -21 622.203 235.449   4
  -3   7 -21 535.319 226.536   4
  -3   7 -22 875.069 286.544   4
  -3  -7 -22 688.215 299.297   4
  -3   7 -23 6917.02 767.840   4
  -3  -7 -23 6492.79 782.672   4
  -3  -7 -24 65.6710 159.149   1
  -3  -7 -24 300.175 248.729   4
  -3   7 -24 151.965 247.247   4
  -3  -7 -25 4308.55 673.116   4
  -3  -7 -25 3766.97 677.798   1
  -3   7 -25 4763.18 689.521   4
  -3  -7 -26 583.243 312.801   4
   3  -9 -24-25.5639 242.334   4
   3  -9 -23-82.6176 153.750   4
   3  -9 -22 523.066 286.592   4
   3  -9 -21 3893.94 627.500   4
   3  -9 -20 618.170 305.962   4
   3  -9 -19 603.572 288.580   4
   3  -9 -18 2512.36 611.238   4
   3  -9 -17 6646.07 765.555   4
  -3  -9  17 7911.34 1210.30   5
   3  -9 -16 1855.49 404.970   4
  -3  -9  16 1960.39 667.951   5
   3  -9 -15 2766.99 582.692   5
   3  -9 -15 3516.02 520.303   4
  -3  -9  15 2796.61 756.853   5
   3  -9 -14 449.796 253.438   4
   3  -9 -14 114.009 187.094   5
  -3  -9  14 291.283 388.888   5
  -3  -9  13 5620.59 1033.82   5
   3  -9 -13 7183.77 733.011   4
   3  -9 -13 5899.53 832.782   5
   3  -9 -12 510.829 330.570   5
   3  -9 -12 192.236 158.719   4
  -3  -9  12 566.763 470.105   5
  -3  -9  11 1639.73 619.720   5
   3  -9 -11 1773.47 486.836   5
  -3  -9  10 492.255 533.686   5
   3  -9 -10 291.724 327.870   5
   3  -9  -9 3641.25 693.293   5
  -3  -9   9 5196.59 1024.94   5
  -3  -9   8 2719.80 751.739   5
   3  -9  -8 1660.10 549.419   5
   3  -9  -7 7852.42 994.461   5
  -3  -9   7 8118.19 1230.11   5
  -3  -9   6 819.391 493.242   5
   3  -9  -6 418.236 458.765   5
   3  -9  -5 2162.53 565.585   5
  -3  -9   5 1854.85 637.294   5
  -3  -9   4 1282.12 504.501   5
   3  -9  -4 870.053 425.387   5
  -3  -9   3 3202.01 758.643   5
   3  -9  -3 3222.51 675.472   5
   3  -9  -2-549.549 356.309   5
  -3  -9   2-70.3442 252.450   5
   3  -9  -1-673.952 385.188   5
  -3  -9   1 84.3646 296.872   5
   3  -9   0 2644.25 752.742   5
  -3  -9   0 2932.88 729.358   5
  -3  -9  -1 15625.2 1584.06   5
   3  -9   1 16225.4 1564.95   5
   3  -9   2 1015.75 607.892   5
  -3  -9  -2 1591.28 817.645   5
   3  -9   3 51.6595 261.538   5
  -3  -9  -3-82.6012 232.185   5
  -3  -9  -4 86.8803 206.272   5
   3  -9   4 196.274 389.478   5
   3  -9   5 3706.80 784.998   5
  -3  -9  -5 3465.28 712.623   5
   3  -9   6 1217.10 511.093   5
  -3  -9  -6 207.167 275.793   5
   3  -9   7 534.881 281.025   5
  -3  -9  -7 64.4822 245.967   5
  -3  -9  -8 579.335 395.827   5
   3  -9   8 289.346 360.506   5
   3  -9   9 12993.8 1384.17   5
  -3  -9  -9 11496.7 1267.22   5
  -3  -9 -10 1113.17 367.283   4
   3  -9  10 1307.92 503.673   5
  -3  -9 -10 1094.07 438.203   5
  -3  -9 -11 972.857 332.474   4
  -3  -9 -11 759.145 358.950   5
  -3  -9 -12 327.268 373.353   5
  -3  -9 -12 328.599 230.199   4
  -3  -9 -13 3374.47 545.850   4
  -3  -9 -13 3140.47 701.165   5
  -3  -9 -14 787.868 305.431   4
  -3  -9 -14 535.887 327.707   5
  -3  -9 -15 2512.15 487.503   4
  -3  -9 -15 1948.48 577.335   5
  -3  -9 -16 321.411 259.590   4
  -3  -9 -17 8122.75 882.973   4
  -3  -9 -18 642.102 284.931   4
  -3  -9 -19 2119.97 496.990   4
  -3  -9 -20 341.785 251.643   4
  -3 -11  10 1118.06 647.140   5
  -3 -11   9 2228.61 803.163   5
  -3 -11   8 2538.22 846.666   5
  -3 -11   7 4976.60 1091.06   5
  -3 -11   6 1188.95 853.287   5
  -3 -11   5 1459.72 561.396   5
  -3 -11   4 913.458 617.225   5
  -3 -11   3 2069.64 691.526   5
  -3 -11   2-424.551 275.075   5
  -3 -11   1-161.098 336.522   5
  -3 -11   0 1427.43 766.773   5
  -3 -11  -1 6570.62 1202.22   5
  -3 -11  -2 797.838 609.502   5
  -3 -11  -3-96.0707 360.921   5
  -3 -11  -4-306.399 313.468   5
   4   0 -37 432.483 322.372   4
   4   0 -36 1264.03 426.449   4
   4   0 -35 186.001 179.217   4
   4   0 -34 5353.27 780.531   4
   4   0 -33-265.323 246.169   4
   4   0 -32 3734.87 608.589   4
   4   0 -31 184.042 192.105   4
   4   0 -30 8957.04 899.710   4
   4   0 -29 309.097 244.877   4
   4   0 -28 447.143 177.475   4
   4   0 -27 179.362 234.537   4
   4   0 -26 13235.5 968.758   4
   4   0 -25 516.385 250.042   4
   4   0 -24 13351.3 922.756   4
   4   0 -23 518.619 272.842   4
   4   0 -23 164.251 68.3082   2
   4   0 -22 21767.6 1108.39   4
   4   0 -22 23313.0 633.257   2
   4   0 -21 262.922 174.757   4
   4   0 -21 5.77934 46.6021   2
   4   0 -20 2752.09 204.997   2
   4   0 -20 2828.76 404.357   4
   4   0 -19 57.0764 55.2403   2
   4   0 -19 165.121 163.978   4
   4   0 -18 18206.1 476.225   2
   4   0 -18 17402.2 863.153   4
   4   0 -17-40.9259 103.169   4
   4   0 -17 66.6028 50.8664   2
   4   0 -16 306.534 171.679   4
   4   0 -16 87.5617 44.4122   2
   4   0 -15 436.179 218.674   4
   4   0 -15 78.7976 51.8936   2
   4   0 -14 16400.7 732.690   4
   4   0 -14 15145.1 338.996   2
   4   0 -13 17.5112 25.7183   2
   4   0 -13 107.543 99.4494   4
   4   0 -12 2566.83 265.726   4
   4   0 -11 534.751 162.383   4
   4   0 -10 12971.9 617.486   5
   4   0  -9 121.752 101.982   5
   4   0  -8 15963.1 620.651   5
  -4   0   6 31919.5 776.263   5
  -4   0   5-13.1087 66.9677   5
   4   0  -4 57543.6 627.915   1
   4   0  -3 3.99528 40.9388   1
   4   0  -2 18909.9 459.471   1
   4   0  -1 81.5005 82.2278   1
   4   0   0 38232.2 761.679   1
   4   0   1 143.455 98.9224   1
   4   0   2 40778.2 892.746   1
  -4   0  -2 40674.7 593.098   4
  -4   0  -3 92.9604 56.9860   4
   4   0   3 79.4710 91.8207   1
   4   0   4 43717.6 1013.90   1
  -4   0  -4 44799.5 744.005   4
   4   0   5 142.251 82.2718   4
   4   0   5 229.203 146.191   1
  -4   0  -5 105.559 79.0656   4
  -4   0  -6 46.8880 62.4722   4
   4   0   6 23.8231 58.9835   1
   4   0   6 44.2222 42.5171   4
  -4   0  -6 80.7672 84.6899   1
   4   0   7-57.3283 71.4545   1
   4   0   7 41.2975 50.0401   4
  -4   0  -7-9.02546 57.8446   4
   4   0   8 19024.5 629.529   4
   4   0   8 18711.5 775.862   1
  -4   0  -8 18993.9 636.844   4
   4   0   9 333.326 157.501   1
  -4   0  -9 252.867 139.430   4
   4   0   9 110.592 104.323   4
   4   0  10 5746.16 454.768   1
   4   0  10 5377.77 375.374   4
  -4   0 -10 5534.03 391.351   4
   4   0  11-35.2210 81.0940   1
   4   0  11 3.14196 47.3560   4
  -4   0 -12 34181.3 1018.78   4
   4   0  12 34519.5 1154.53   1
  -4   0 -13 1349.17 297.893   4
   4   0  13 499.875 219.602   1
  -4   0 -14 3797.88 367.130   4
   4   0  14 3747.95 399.039   1
  -4   0 -15 136.214 165.705   4
  -4   0 -16 4711.19 436.060   4
  -4   0 -17 334.261 172.602   4
  -4   0 -18 8205.60 635.428   4
  -4   0 -19 176.091 182.349   4
  -4   0 -20 22265.7 1088.18   4
  -4   0 -21 1131.09 341.975   4
  -4   0 -22 17717.4 1026.67   4
  -4   0 -23 13.4111 121.256   2
  -4   0 -23 157.305 167.123   4
  -4   0 -24 984.435 275.574   4
  -4   0 -24 1369.02 270.682   2
  -4   0 -25-25.6541 176.736   4
  -4   0 -25 181.190 122.711   2
  -4   0 -26 6646.79 722.691   4
  -4   0 -26 6679.68 595.825   2
  -4   0 -27 45.7351 120.053   2
  -4   0 -27 86.3414 162.932   4
  -4   0 -28 2779.81 513.442   4
  -4   0 -28 2890.62 415.041   2
  -4   0 -29 241.230 261.914   4
  -4   0 -30 5004.70 687.673   4
  -4   0 -31-180.427 163.340   4
  -4   0 -32-19.6358 194.730   4
  -4   0 -33 326.418 275.593   4
  -4   0 -34 11145.7 1128.86   4
   4   2 -37 212.331 291.617   4
   4  -2 -36 1955.44 486.738   4
   4   2 -36 2731.01 610.271   4
   4   2 -35 135.416 238.403   4
   4  -2 -35 112.478 225.828   4
   4  -2 -34 2698.84 567.195   4
   4   2 -34 4512.30 760.054   4
   4  -2 -33 304.202 214.750   4
   4   2 -33 263.018 247.053   4
   4   2 -32 5418.65 784.066   4
   4  -2 -32 4634.46 662.825   4
   4  -2 -31 389.819 221.676   4
   4   2 -31 521.437 269.871   4
   4  -2 -30 5838.51 737.758   4
   4   2 -30 7089.30 858.947   4
   4  -2 -29-145.533 236.042   4
   4   2 -29 188.336 222.328   4
   4   2 -28 711.547 312.723   4
   4  -2 -28 215.167 188.788   4
   4  -2 -27 568.388 240.790   4
   4   2 -27 566.986 313.641   4
   4  -2 -26 11465.9 890.334   4
   4   2 -26 11862.6 956.550   4
   4  -2 -25 125.301 170.595   4
   4   2 -25 324.962 206.994   4
   4   2 -24 5440.47 623.526   4
   4  -2 -24 5872.60 610.757   4
   4  -2 -23 366.460 122.116   1
   4   2 -23 164.830 159.508   4
  -4  -2  23 409.503 140.402   1
   4  -2 -23 792.951 266.805   4
   4  -2 -22 15943.3 678.498   1
   4  -2 -22 16023.7 939.008   4
  -4  -2  22 16986.2 799.687   1
   4   2 -22 17037.7 1051.91   4
  -4  -2  21 239.136 128.387   1
   4  -2 -21 259.509 162.106   4
   4   2 -21 54.8992 158.856   4
   4  -2 -21 169.895 111.998   1
   4  -2 -20 451.792 130.114   1
   4  -2 -20 330.899 183.342   4
   4  -2 -19 152.334 115.419   1
   4  -2 -19 106.711 148.855   4
   4  -2 -18 19526.4 712.450   1
   4  -2 -18 19216.2 899.367   4
   4  -2 -17 138.348 118.722   4
   4  -2 -16 676.242 217.208   4
   4  -2 -15 1007.06 268.481   4
  -4  -2  15 493.536 148.628   2
  -4  -2  14 34749.3 951.470   2
   4  -2 -14 38098.9 1097.25   4
   4  -2 -13 430.215 214.359   4
  -4  -2  13 63.3169 61.9004   2
  -4   2  12 30506.2 901.005   4
  -4  -2  12 27709.3 803.009   2
   4  -2 -12 29868.9 890.001   4
  -4  -2  12 29500.8 1328.65   5
  -4  -2  11 466.288 236.052   5
  -4   2  11 584.550 150.525   4
   4  -2 -11 575.100 185.676   4
   4  -2 -10 11467.7 503.495   4
  -4  -2  10 11724.2 859.807   5
  -4   2  10 11751.8 509.915   4
  -4  -2   9 108.247 163.156   5
  -4   2   9 58.7211 55.1130   4
   4  -2  -9 32.3790 74.4663   4
   4  -2  -8 1614.58 175.484   4
  -4   2   8 1480.02 165.354   4
  -4  -2   8 1319.77 267.170   5
  -4   2   7 785.442 156.083   4
  -4  -2   7 719.704 314.679   5
   4  -2  -7 1189.94 179.565   4
  -4   2   6 11176.6 393.024   4
   4  -2  -6 10797.5 377.054   4
  -4  -2   6 11300.8 734.856   5
  -4  -2   5-55.6263 143.164   5
  -4   2   5 20.7088 33.1885   4
   4  -2  -5 49.9003 48.4608   4
   4  -2  -4 3536.65 181.857   4
  -4   2   4 3522.25 189.052   4
  -4  -2   4 3417.05 365.591   5
  -4  -2   3 338.606 146.058   5
   4  -2  -3 164.886 58.7213   4
  -4   2   3 100.641 37.4795   4
   4  -2  -2 14506.0 455.788   5
  -4   2   2 13000.2 292.513   4
   4  -2  -2 13671.4 293.677   4
  -4  -2   2 13688.9 618.112   5
   4  -2  -1 2135.22 192.856   5
   4  -2  -1 2520.17 237.436   2
  -4  -2   1 2353.10 200.381   4
  -4   2   1 2563.66 121.750   4
  -4   2   1 2670.51 176.600   5
  -4   2   0 78056.3 1171.37   5
  -4  -2   0 76634.7 1227.56   3
   4  -2   0 74766.8 1261.32   2
  -4  -2   0 73653.6 1124.99   4
  -4   2   0 73190.9 648.954   4
   4  -2   0 73092.3 1171.44   5
   4  -2   1 11000.9 511.057   2
  -4  -2  -1 10209.0 430.679   4
  -4   2  -1 11619.4 557.561   5
   4  -2   1 10246.8 440.948   5
  -4  -2  -1 9715.22 432.758   3
  -4  -2  -2 14599.7 526.745   3
  -4  -2  -2 14117.8 506.085   4
   4  -2   2 14158.0 589.080   2
  -4   2  -2 14213.2 653.763   5
   4  -2   3 256.859 110.073   2
  -4  -2  -3 274.986 95.2755   3
  -4  -2  -3 401.967 125.557   4
  -4   2  -3 378.663 139.911   5
  -4  -2  -4 102488. 1447.52   4
   4  -2   4 107418. 1709.35   2
  -4   2  -4 102034. 1914.81   5
   4  -2   5 866.289 256.509   2
  -4   2  -5 667.170 232.673   5
  -4  -2  -5 570.446 185.146   4
   4  -2   6 126.548 69.9193   2
  -4   2  -6 161.498 90.1833   5
  -4  -2  -6 235.079 99.9254   4
  -4  -2  -7 599.881 155.378   4
  -4   2  -7 692.475 202.208   5
  -4   2  -7 540.137 112.556   4
  -4   2  -7 444.477 149.164   2
  -4  -2  -8 8292.44 478.532   4
  -4   2  -8 8666.47 520.820   2
  -4   2  -8 8732.09 637.286   5
  -4   2  -8 8581.15 417.038   4
  -4  -2  -9 155.396 122.499   4
  -4   2  -9 271.790 177.752   5
  -4   2  -9 214.968 129.566   4
  -4   2  -9 394.858 216.317   2
  -4   2 -10 663.622 134.941   4
  -4   2 -10 773.158 181.344   2
  -4  -2 -10 531.770 142.230   4
  -4   2 -11 439.404 198.377   2
  -4   2 -11 162.874 120.657   4
  -4  -2 -11 274.884 191.604   4
  -4  -2 -11 81.6357 128.919   1
  -4   2 -12 36192.4 1155.18   2
  -4  -2 -12 35073.4 1123.96   4
  -4  -2 -12 35408.7 1270.86   1
  -4   2 -12 35901.0 1026.64   4
  -4   2 -13 1684.14 314.057   4
  -4  -2 -13 1526.82 323.181   1
  -4   2 -13 2015.34 351.909   2
  -4  -2 -13 1558.10 330.214   4
  -4   2 -14 5759.68 460.710   4
  -4   2 -14 5456.97 474.784   2
  -4  -2 -14 5116.30 507.866   1
  -4  -2 -14 5224.85 474.883   4
  -4   2 -15 278.618 163.158   4
  -4  -2 -15 177.252 162.133   1
  -4   2 -15 187.425 149.984   2
  -4  -2 -15 224.443 163.657   4
  -4   2 -16 6989.88 540.216   4
  -4   2 -16 7265.39 564.125   2
  -4  -2 -16 6407.97 554.684   4
  -4  -2 -16 5796.11 568.648   1
  -4   2 -17 248.579 183.974   4
  -4  -2 -17 379.966 244.290   1
  -4   2 -17 204.372 170.022   2
  -4  -2 -17 638.842 266.625   4
  -4  -2 -18 9974.25 782.227   1
  -4   2 -18 8643.37 654.718   4
  -4  -2 -18 9124.19 689.188   4
  -4   2 -18 9385.42 669.683   2
  -4   2 -19 160.272 193.729   4
  -4  -2 -19 149.198 205.824   1
  -4  -2 -19 277.767 212.343   4
  -4   2 -19 255.756 178.948   2
  -4  -2 -20 12517.2 847.955   4
  -4  -2 -20 13291.7 913.693   1
  -4   2 -20 12893.9 840.414   4
  -4   2 -20 13175.8 806.696   2
  -4  -2 -21 802.199 315.905   4
  -4  -2 -21 721.046 290.888   1
  -4   2 -21 644.043 246.863   4
  -4   2 -21 435.712 224.021   2
  -4   2 -22 8643.51 733.199   4
  -4   2 -22 8179.74 663.517   2
  -4  -2 -22 8139.60 717.908   1
  -4  -2 -22 8192.50 732.452   4
  -4  -2 -23 234.325 176.120   4
  -4   2 -23 237.493 168.554   4
  -4   2 -23-79.4976 108.452   2
  -4   2 -24 268.083 145.610   2
  -4   2 -24 313.884 214.591   4
  -4  -2 -24 367.321 212.946   4
  -4   2 -25 179.980 187.139   4
  -4   2 -25-77.1888 125.529   2
  -4  -2 -26 10074.6 900.863   4
  -4   2 -26 9889.83 878.844   4
  -4  -2 -27 907.276 318.715   4
  -4   2 -27 413.656 272.393   4
  -4   2 -28 6062.63 729.340   4
  -4  -2 -28 5937.46 714.858   4
  -4   2 -29-20.1503 149.976   4
  -4  -2 -29 299.236 253.224   4
  -4   2 -30 11940.1 1070.13   4
  -4  -2 -30 14056.9 1142.35   4
  -4  -2 -31 420.862 268.263   4
  -4   2 -31 431.890 234.254   4
  -4   2 -32 227.392 179.046   4
  -4  -2 -32-211.077 221.787   4
  -4   2 -33 375.826 266.891   4
  -4  -2 -33-22.8736 221.290   4
  -4   2 -34 8528.73 991.658   4
   4   4 -35 520.447 294.627   4
   4  -4 -35 205.190 189.382   4
   4  -4 -34 2587.36 524.897   4
   4   4 -34 2587.75 585.686   4
   4   4 -33 317.588 284.890   4
   4  -4 -33-93.6219 186.923   4
   4  -4 -32 3356.67 574.741   4
   4   4 -32 3741.95 670.911   4
   4   4 -31 438.795 288.137   4
   4  -4 -31 1131.11 340.210   4
   4  -4 -30 7793.68 833.754   4
   4   4 -30 5860.59 776.306   4
   4   4 -29 126.014 169.154   4
   4  -4 -29 585.618 262.827   4
   4  -4 -28 314.972 143.063   4
   4   4 -28 178.536 195.537   4
   4   4 -27 411.209 239.742   4
   4  -4 -27 836.749 301.041   4
   4  -4 -26 9134.95 846.494   4
   4   4 -26 6749.13 781.640   4
   4  -4 -26 7456.72 618.861   1
   4   4 -25 234.875 245.193   4
   4  -4 -25-15.8639 85.2351   1
   4  -4 -25 480.033 217.691   4
   4  -4 -24 3117.75 406.115   1
   4  -4 -24 3554.75 503.394   4
   4  -4 -23 918.976 300.727   4
   4  -4 -22 17956.4 1051.82   4
   4  -4 -21 300.141 170.608   4
   4  -4 -20 1579.64 313.791   4
   4  -4 -19 230.855 178.663   4
   4  -4 -18 18739.3 953.215   4
   4  -4 -17-38.9540 145.500   4
  -4  -4  16 283.239 305.443   5
   4  -4 -16 305.934 183.011   4
   4  -4 -15 173.912 175.632   4
  -4  -4  15 433.782 342.915   5
   4  -4 -14 17461.2 816.392   4
  -4  -4  14 18297.1 1341.20   5
  -4  -4  13 333.940 246.099   5
   4  -4 -13 587.046 188.794   4
  -4  -4  12 12724.8 1134.91   5
   4  -4 -12 12725.6 648.824   4
   4  -4 -11 410.654 180.602   4
  -4  -4  11-13.6029 287.287   5
   4  -4 -10 11303.9 572.659   4
  -4  -4  10 11730.4 1048.34   5
  -4   4   9-13.3784 60.3331   4
   4  -4  -9 83.6708 83.5830   4
  -4  -4   9-248.759 275.000   5
   4  -4  -8 3753.77 319.868   4
  -4  -4   8 3653.51 551.936   5
  -4   4   8 3718.44 314.329   4
   4  -4  -7 468.882 91.0796   3
  -4  -4   7 435.646 339.142   5
   4  -4  -7 1040.58 218.526   4
  -4   4   7 733.470 176.876   4
   4  -4  -6 11003.7 487.732   4
  -4  -4   6 11598.6 925.376   5
  -4   4   6 10808.6 493.666   4
   4  -4  -5 347.280 83.2870   4
  -4  -4   5 436.417 158.494   5
  -4   4   5 628.768 123.224   4
  -4  -4   4 22817.4 1170.89   5
   4  -4  -4 23237.6 896.661   5
  -4   4   4 23560.7 688.511   4
   4  -4  -4 23403.1 678.598   4
   4  -4  -3 131.524 131.533   5
  -4  -4   3 238.969 155.524   5
   4  -4  -3 281.318 114.780   4
   4   4  -3 194.355 112.648   3
  -4   4   3 241.403 95.5997   4
  -4  -4   2 6562.93 599.185   5
  -4   4   2 6602.76 345.499   4
   4  -4  -2 6782.99 536.891   5
   4   4  -2 5833.48 409.524   3
   4  -4  -1 795.166 200.149   5
  -4   4   1 810.134 116.735   4
   4   4  -1 967.300 161.154   3
  -4  -4   1 611.795 172.737   5
  -4   4   1 488.053 53.5740   3
   4   4   0 22349.3 766.860   3
  -4  -4   0 23345.4 1064.99   5
   4  -4   0 23803.2 1087.58   5
  -4  -4   0 24195.1 835.030   4
  -4   4   0 24881.8 663.084   4
   4  -4   1 3758.80 465.409   5
  -4   4  -1 4240.53 287.146   4
  -4  -4  -1 4290.60 375.455   4
   4  -4   2 4136.90 471.434   5
  -4  -4  -2 4027.84 343.392   4
  -4   4  -2 4292.68 414.536   5
  -4   4  -2 3816.80 268.739   4
  -4  -4  -3 1247.63 202.102   3
  -4   4  -3 1107.96 154.050   4
  -4  -4  -3 1166.38 206.941   4
  -4   4  -3 1188.79 223.838   5
   4  -4   3 1324.16 313.625   5
   4  -4   4 66547.4 1887.80   5
  -4  -4  -4 65632.6 1439.20   4
  -4   4  -4 70642.2 1954.36   5
  -4  -4  -4 63209.8 1379.05   3
  -4   4  -4 66506.6 1176.40   4
   4  -4   5 1050.25 323.481   5
  -4  -4  -5 607.176 171.947   3
  -4   4  -5 951.729 315.582   5
  -4  -4  -5 1066.22 248.818   4
  -4  -4  -6 987.181 178.567   3
  -4  -4  -6 870.046 181.354   4
   4  -4   6 1291.03 281.295   5
   4  -4   7 635.615 229.787   5
  -4  -4  -7 677.405 202.923   4
  -4  -4  -8 12151.6 675.929   4
  -4  -4  -9 405.153 219.749   4
  -4  -4 -10 1914.72 301.401   4
  -4  -4 -11 388.139 235.510   4
  -4  -4 -12 30426.8 1175.28   4
  -4  -4 -13 1825.38 366.341   4
  -4  -4 -14 3155.83 408.795   4
  -4  -4 -15 187.619 161.957   4
  -4   4 -15 333.674 157.317   4
  -4   4 -16 3623.82 430.163   4
  -4  -4 -16 3416.65 446.786   4
  -4  -4 -17 316.926 226.342   4
  -4   4 -17 216.828 158.521   4
  -4  -4 -18 6285.40 625.039   4
  -4   4 -18 7144.70 619.713   4
  -4  -4 -18 6417.57 686.929   1
  -4   4 -19-15.8242 139.710   4
  -4  -4 -19-174.097 167.658   1
  -4  -4 -19 111.739 178.801   4
  -4  -4 -20 14864.4 1066.01   1
  -4   4 -20 14639.2 943.014   4
  -4  -4 -20 13628.0 946.481   4
  -4  -4 -21 1305.63 369.817   4
  -4   4 -21 1040.31 317.840   4
  -4  -4 -21 1171.34 376.488   1
  -4   4 -22 9166.55 780.606   4
  -4  -4 -22 8562.59 837.579   1
  -4  -4 -22 9587.62 834.307   4
  -4  -4 -23 435.073 253.810   4
  -4   4 -23 144.702 190.162   4
  -4  -4 -23 3.99440 135.752   1
  -4  -4 -24 630.879 272.352   1
  -4   4 -24 253.162 196.916   4
  -4  -4 -24 375.386 206.411   4
  -4  -4 -25 401.333 257.782   1
  -4  -4 -25 430.946 272.787   4
  -4   4 -25 302.113 186.550   4
  -4  -4 -26 11392.0 1002.47   1
  -4   4 -26 11297.8 963.196   4
  -4  -4 -26 10781.6 951.766   4
  -4  -4 -27 212.501 241.846   4
  -4   4 -27 441.472 248.431   4
  -4  -4 -27 139.987 252.115   1
  -4   4 -28 4738.96 684.868   4
  -4  -4 -28 4384.00 646.800   4
  -4   4 -29 479.570 266.463   4
  -4  -4 -29 506.218 241.821   4
  -4   4 -30 7408.96 864.862   4
  -4  -4 -30 7578.11 879.581   4
  -4  -4 -31 822.039 351.615   4
  -4   4 -31 543.126 321.651   4
  -4   4 -32 246.484 306.417   4
  -4   4 -33 1014.62 343.381   4
   4  -6 -32 2548.06 539.723   4
   4   6 -32 3044.44 621.596   4
   4   6 -31 695.117 306.202   4
   4  -6 -31 471.960 249.598   4
   4   6 -30 5953.27 859.390   4
   4  -6 -30 4844.28 699.997   4
   4   6 -29-119.233 259.471   4
   4  -6 -29 212.144 205.324   4
   4  -6 -28 411.792 260.262   4
   4   6 -28 14.6582 170.086   4
   4  -6 -27 529.698 265.685   4
   4  -6 -26 7735.51 808.311   4
   4  -6 -25 161.352 152.475   4
   4  -6 -24 1784.01 379.175   4
   4  -6 -23 673.538 271.752   4
   4  -6 -22 15885.0 1057.93   4
   4  -6 -21 509.052 233.900   4
   4  -6 -20 1513.77 327.412   4
   4  -6 -19 185.413 190.594   4
   4  -6 -18 11644.3 845.506   4
  -4  -6  18 12095.0 1272.67   5
  -4  -6  17 342.591 203.366   5
   4  -6 -17 157.217 196.521   4
   4  -6 -16 352.086 201.364   4
  -4  -6  16 375.549 337.650   5
  -4  -6  15 459.979 350.048   5
   4  -6 -15 187.391 166.559   4
   4  -6 -14 9496.05 684.925   4
  -4  -6  14 9545.38 1168.06   5
  -4  -6  13 948.466 420.461   5
   4  -6 -13 1290.38 274.509   4
   4  -6 -12 8697.03 623.560   4
  -4  -6  12 8131.19 1046.07   5
  -4  -6  11 288.827 347.735   5
   4  -6 -11 279.953 188.816   4
  -4  -6  10 10478.5 1149.93   5
   4  -6 -10 11543.2 680.741   4
  -4  -6   9 492.183 335.023   5
   4  -6  -9 458.507 192.535   4
  -4  -6   8 3218.95 616.144   5
   4  -6  -8 3180.96 452.261   5
   4  -6  -8 3798.96 384.165   4
  -4  -6   7 405.855 317.113   5
   4  -6  -7 637.727 271.248   5
   4  -6  -7 624.264 191.642   4
   4  -6  -6 6560.99 665.370   5
  -4  -6   6 6521.50 865.391   5
   4   6  -6 6946.58 592.698   3
   4  -6  -6 7046.43 493.508   4
   4  -6  -5 941.910 247.614   5
   4  -6  -5 1169.23 208.691   4
  -4  -6   5 1076.97 428.986   5
   4  -6  -4 21565.4 1250.15   5
  -4  -6   4 21338.2 1460.87   5
  -4  -6   3 166.605 256.611   5
   4  -6  -3 141.632 220.338   5
  -4  -6   2 5162.58 670.639   5
   4  -6  -2 5264.61 662.652   5
  -4  -6   1-447.185 310.486   5
   4  -6  -1 115.399 176.050   5
   4  -6   0 12204.0 1042.51   5
  -4  -6   0 10723.1 959.791   5
  -4   6  -1 356.449 87.3340   3
   4  -6   1 570.011 300.024   5
  -4  -6  -1 521.115 277.140   5
   4  -6   2 1149.26 337.392   5
  -4  -6  -2 1093.55 295.220   5
  -4   6  -2 1571.33 171.133   3
  -4  -6  -2 1772.00 291.842   4
   4  -6   3 3694.43 658.586   5
  -4  -6  -3 3878.94 485.934   4
  -4  -6  -3 4047.60 643.168   5
  -4  -6  -4 40103.6 1344.82   4
   4  -6   4 44502.5 2043.27   5
  -4  -6  -4 41286.4 1776.46   5
  -4  -6  -5 1029.38 331.492   4
   4  -6   5 534.250 377.080   5
  -4  -6  -6 571.375 207.114   4
   4  -6   6 451.772 245.094   5
  -4  -6  -7 1048.94 262.647   4
   4  -6   7 732.676 301.046   5
  -4  -6  -8 6523.21 590.296   4
   4  -6   8 6685.81 757.959   5
  -4  -6  -9 885.267 264.470   4
   4  -6   9 767.756 314.286   5
  -4  -6 -10 1827.24 338.589   4
  -4  -6 -11 473.679 339.715   4
  -4  -6 -12 22431.8 1129.35   4
  -4  -6 -13 2003.63 429.677   4
  -4  -6 -14 1394.15 298.024   4
  -4  -6 -15 521.135 272.908   4
  -4  -6 -16 5035.23 587.665   4
  -4  -6 -17 730.809 271.330   4
  -4  -6 -18 6092.36 668.175   4
  -4   6 -18 6299.88 638.318   4
  -4   6 -19 554.001 246.219   4
  -4  -6 -19 177.121 209.700   4
  -4  -6 -20 11853.0 961.709   4
  -4   6 -20 14091.5 1062.34   4
  -4   6 -21 888.798 307.835   4
  -4  -6 -21 1090.52 379.616   4
  -4  -6 -22 7522.65 869.216   1
  -4   6 -22 7697.43 762.638   4
  -4  -6 -22 7294.34 780.847   4
  -4  -6 -23 396.259 245.736   4
  -4   6 -23 777.767 257.111   4
  -4  -6 -23 481.160 271.830   1
  -4  -6 -24 296.996 216.217   4
  -4  -6 -24 233.743 189.201   1
  -4   6 -24 337.567 223.700   4
  -4  -6 -25 1421.22 442.504   1
  -4   6 -25 1837.70 411.921   4
  -4  -6 -25 1036.24 351.162   4
  -4  -6 -26 7222.08 849.154   4
  -4   6 -26 7129.24 814.848   4
  -4  -6 -26 5955.90 798.885   1
  -4  -6 -27 408.009 321.490   4
  -4   6 -27 399.701 232.313   4
  -4  -6 -28 3071.68 561.811   4
  -4   6 -28 2888.13 538.012   4
  -4   6 -29 1261.44 385.948   4
   4  -8 -27 432.167 296.106   4
   4  -8 -26 5583.48 776.169   4
   4  -8 -25 415.170 209.113   4
   4  -8 -24 1399.85 385.842   4
   4  -8 -23 371.471 235.919   4
   4  -8 -22 6341.76 752.390   4
   4  -8 -21 115.321 200.211   4
   4  -8 -20 220.539 142.424   4
   4  -8 -19 57.6270 169.373   4
  -4  -8  18 11063.4 1382.10   5
   4  -8 -18 9357.27 838.451   4
   4  -8 -17 274.284 199.925   4
  -4  -8  17 831.822 435.919   5
   4  -8 -16 478.961 235.815   4
  -4  -8  16 91.1098 278.103   5
   4  -8 -15 401.063 249.366   5
   4  -8 -15 265.301 230.123   4
  -4  -8  15 505.909 442.169   5
   4  -8 -14 10019.6 978.343   5
   4  -8 -14 11522.9 864.266   4
  -4  -8  14 10734.6 1384.12   5
   4  -8 -13 1984.26 486.776   5
   4  -8 -13 2209.58 390.175   4
  -4  -8  13 1785.09 663.095   5
   4  -8 -12 10369.7 789.606   4
  -4  -8  12 9587.04 1315.87   5
   4  -8 -12 9127.81 931.736   5
   4  -8 -11 353.111 247.097   4
   4  -8 -11 507.688 311.335   5
   4   8 -11 641.405 284.932   3
  -4  -8  11 642.382 461.976   5
   4  -8 -10 7560.59 860.160   5
   4  -8 -10 7862.12 662.108   4
  -4  -8  10 8103.62 1200.11   5
   4   8 -10 7756.37 751.239   3
  -4  -8   9 123.267 249.034   5
   4  -8  -9 174.637 165.196   4
   4   8  -9 145.570 135.246   3
   4  -8  -9 192.090 212.567   5
   4  -8  -8 605.205 242.421   5
  -4  -8   8 703.037 465.713   5
   4   8  -8 790.650 246.848   3
  -4  -8   7 283.040 359.858   5
   4  -8  -7 73.6900 247.725   5
   4   8  -7 241.763 176.017   3
   4  -8  -6 2615.03 532.708   5
   4   8  -6 2820.37 404.322   3
  -4  -8   6 2549.76 653.597   5
  -4  -8   5 752.203 511.253   5
   4   8  -5 1140.63 304.737   3
  -4  -8   4 6673.83 1014.12   5
   4  -8  -4 8527.15 992.338   5
  -4  -8   3 84.5928 386.395   5
   4  -8  -3-309.281 246.965   5
   4  -8  -2 4012.10 721.070   5
  -4  -8   2 3771.32 740.500   5
  -4  -8   1 450.127 401.304   5
   4  -8  -1 225.061 316.654   5
  -4  -8   0 5491.57 834.144   5
   4  -8   0 6248.61 887.580   5
  -4  -8  -1-379.452 384.110   5
   4  -8   1-229.296 205.702   5
   4  -8   2 260.504 263.719   5
  -4  -8  -2 110.213 233.775   5
   4  -8   3 5310.83 893.926   5
  -4  -8  -3 4746.29 882.072   5
   4  -8   4 30213.0 1992.65   5
  -4  -8  -4 25553.5 1764.66   5
   4  -8   5 2037.91 772.526   5
  -4  -8  -5 828.309 612.620   5
  -4  -8  -6 502.088 209.926   4
  -4  -8  -6 500.433 265.240   5
   4  -8   6-30.4586 182.675   5
  -4  -8  -7 560.724 332.310   5
   4  -8   7 873.564 406.742   5
  -4  -8  -7 630.648 285.772   4
  -4  -8  -8 4453.91 548.963   4
   4  -8   8 5832.73 850.076   5
  -4  -8  -8 5687.74 817.938   5
  -4  -8  -9 956.508 322.397   4
   4  -8   9 569.938 384.177   5
  -4  -8  -9 814.326 379.578   5
  -4  -8 -10 789.140 266.780   4
  -4  -8 -10 463.331 280.995   5
  -4  -8 -11 686.028 336.960   4
  -4  -8 -12 15673.5 1084.05   4
  -4  -8 -13 2085.82 459.616   4
  -4  -8 -14 1459.92 368.644   4
  -4  -8 -15 281.898 230.805   4
  -4  -8 -16 2856.38 513.756   4
  -4  -8 -17 469.708 241.094   4
  -4  -8 -18 2993.63 519.107   4
  -4  -8 -19-106.875 167.339   4
  -4  -8 -20 6153.81 769.874   4
  -4  -8 -21 488.650 287.742   4
  -4  -8 -22 2789.19 519.355   4
  -4  -8 -23-107.631 181.654   4
  -4  -8 -24 531.543 304.451   1
  -4 -10  17 594.525 421.325   5
  -4 -10  16 378.994 480.494   5
  -4 -10  15 123.225 234.362   5
  -4 -10  14 4407.64 975.354   5
  -4 -10  13 234.833 412.488   5
  -4 -10  12 1994.80 689.918   5
  -4 -10  11 688.919 888.114   5
  -4 -10  10 4192.16 951.502   5
  -4 -10   9 624.523 413.139   5
  -4 -10   8 1753.02 609.458   5
  -4 -10   7-120.648 506.891   5
  -4 -10   6 3013.66 821.219   5
  -4 -10   5 736.209 765.907   5
  -4 -10   4 7598.12 1238.28   5
  -4 -10   3 1325.76 685.449   5
  -4 -10   2 1525.80 571.357   5
  -4 -10   1 347.985 480.681   5
  -4 -10   0 1573.20 596.607   5
  -4 -10  -1 104.903 286.917   5
  -4 -10  -2 333.738 327.440   5
  -4 -10  -3 2726.75 922.545   5
  -4 -10  -4 7540.06 1210.85   5
  -4 -10  -5 359.796 487.211   5
  -4 -10  -6 60.6033 224.565   5
  -4 -10  -7 867.925 454.896   5
  -4 -10  -8 3317.98 760.352   5
  -4 -10  -9 1404.60 544.066   5
  -4 -10 -10 675.420 391.190   5
  -4 -10 -11 589.423 410.199   5
  -4 -10 -12 8389.04 1191.52   5
  -4 -10 -13 890.893 501.493   5
  -4 -10 -14 1153.82 470.907   5
  -4 -10 -14 583.558 296.425   4
  -4 -10 -15 551.354 442.027   5
  -4 -10 -16 666.707 391.892   5
   5  -1 -37 7577.65 958.839   4
   5   1 -37 9420.39 1098.81   4
   5  -1 -36 174.788 279.030   4
   5   1 -36 185.635 253.995   4
   5   1 -35 2474.66 566.773   4
   5  -1 -35 2445.96 556.640   4
   5   1 -34 136.473 186.997   4
   5  -1 -34-88.7625 230.131   4
   5   1 -33 1046.06 362.536   4
   5  -1 -33 1191.40 382.474   4
   5   1 -32 66.2914 161.061   4
   5  -1 -32 22.5202 161.359   4
   5  -1 -31 9428.52 919.386   4
   5   1 -31 10182.9 988.355   4
   5   1 -30 283.300 257.780   4
   5  -1 -30 112.808 156.383   4
   5   1 -29 8516.63 863.032   4
   5  -1 -29 8412.07 818.221   4
   5   1 -28 2279.63 437.617   4
   5  -1 -28 446.791 233.526   4
   5  -1 -27 11656.4 918.000   4
   5   1 -27 10416.9 894.776   4
   5  -1 -26 434.378 239.642   4
   5   1 -26 155.107 157.363   4
   5  -1 -26 315.737 103.256   2
   5  -1 -25 719.573 229.598   4
   5   1 -25 640.202 307.160   4
   5  -1 -25 666.591 109.868   2
   5  -1 -24 299.600 202.022   4
   5   1 -24 269.950 202.829   4
   5  -1 -24 178.224 63.6437   2
   5  -1 -23 25743.3 1220.74   4
   5  -1 -23 23395.7 587.406   2
   5   1 -23 24540.8 1226.83   4
   5   1 -22-4.74459 144.709   4
   5  -1 -22 293.467 241.343   4
   5   1 -21 5078.95 533.372   4
   5  -1 -21 5803.89 565.002   4
  -5  -1  21 4758.57 287.628   1
   5   1 -20 247.182 181.404   4
  -5  -1  20-35.3646 49.3203   1
   5  -1 -19 25495.7 1068.70   4
   5   1 -19 24638.5 1109.35   4
  -5  -1  19 23181.8 633.636   1
  -5  -1  18 15.7309 48.7329   1
   5  -1 -18 112.718 142.904   4
   5   1 -18-121.775 145.120   4
   5  -1 -17 2752.53 342.921   4
  -5  -1  17 2553.27 213.671   1
   5  -1 -16 94.3818 117.497   4
   5  -1 -16 74.5522 42.1518   1
  -5  -1  16 95.3553 41.9082   1
   5  -1 -15 5335.05 250.125   1
   5  -1 -15 6088.06 455.063   4
   5  -1 -14 354.026 154.647   4
   5  -1 -14 256.932 59.9908   1
   5  -1 -13 135.130 102.693   4
  -5  -1  12-76.4907 55.9170   2
   5  -1 -12 513.624 192.525   4
  -5  -1  11 18863.1 454.115   2
  -5  -1  11 19447.8 965.142   5
   5  -1 -11 20583.9 685.701   4
   5  -1 -10 375.603 130.478   4
  -5  -1  10 126.566 123.824   5
  -5  -1   9 26098.7 1085.10   5
   5  -1  -9 26073.9 681.536   4
   5  -1  -8 513.236 149.876   4
  -5  -1   8 239.247 187.537   5
   5  -1  -7 25773.8 487.719   2
   5  -1  -7 26487.4 587.034   4
  -5  -1   7 28002.2 1094.70   5
   5  -1  -6 263.846 58.3473   2
   5  -1  -6 477.060 105.513   4
  -5  -1   6 344.413 160.959   5
   5  -1  -5 19091.2 458.260   2
   5  -1  -5 20156.1 418.236   4
  -5  -1   5 20599.2 822.976   5
   5  -1  -4 418.074 83.6518   2
  -5  -1   4 486.697 164.840   5
   5  -1  -4 619.876 84.0456   4
   5  -1  -3 14378.1 441.451   2
  -5  -1   3 15032.5 557.639   5
   5  -1  -3 14181.7 244.894   4
   5  -1  -2 153.210 90.2108   2
   5  -1  -2 189.149 45.1024   3
  -5   1   1 49642.3 621.924   3
  -5  -1   1 49428.0 794.050   4
  -5  -1   1 50081.8 920.591   3
  -5  -1   0-64.9273 63.4520   4
  -5  -1   0-34.5655 56.2551   3
  -5  -1  -1 3861.64 229.743   4
  -5   1  -1 3876.46 130.818   4
  -5  -1  -1 4024.86 263.133   3
   5  -1   1 3742.89 128.997   4
  -5   1  -2-5.90274 33.2146   4
   5  -1   2 12.9464 34.2782   4
  -5  -1  -2 63.7614 72.5669   4
  -5  -1  -3 14045.5 485.795   4
   5  -1   3 13990.5 353.245   4
  -5   1  -3 14398.9 356.961   4
   5  -1   4 144.827 60.9714   4
  -5   1  -4 87.4579 62.6480   4
  -5  -1  -4 92.5555 68.7413   4
  -5  -1  -5 1666.56 179.897   4
  -5   1  -5 1821.02 157.035   4
  -5   1  -6 646.710 118.903   4
  -5  -1  -6 423.447 93.4055   4
  -5  -1  -7 29934.6 1036.33   1
  -5   1  -7 29018.6 722.007   4
  -5  -1  -7 29820.0 830.256   4
  -5  -1  -8 471.105 228.166   1
  -5   1  -8 761.729 173.869   4
   5  -1   8 360.917 193.485   1
  -5  -1  -8 500.598 174.339   4
  -5   1  -9 530.906 132.127   4
  -5  -1  -9 603.761 179.760   1
  -5  -1  -9 602.295 155.464   4
   5  -1   9 468.741 157.407   1
  -5  -1 -10 181.752 164.332   1
  -5   1 -10 233.207 106.026   4
  -5   1 -10 222.188 142.196   2
  -5  -1 -10 233.347 133.832   4
   5  -1  10 78.2682 74.6063   1
  -5  -1 -11 3608.73 343.649   4
  -5  -1 -11 3849.21 420.498   1
  -5   1 -11 4069.44 377.829   2
  -5   1 -11 3985.99 328.073   4
   5  -1  11 3944.29 437.058   1
  -5   1 -12 117.308 151.001   2
  -5   1 -12 101.525 117.768   4
  -5  -1 -12-21.0851 113.353   4
  -5  -1 -12 65.1712 145.001   1
  -5   1 -13 498.356 150.360   4
  -5  -1 -13 790.876 229.202   1
  -5   1 -13 447.254 137.732   2
  -5  -1 -13 659.410 179.922   4
  -5  -1 -14 146.810 167.248   1
  -5  -1 -14 428.912 205.012   4
  -5   1 -14 29.2271 146.707   2
  -5   1 -14 145.609 142.213   4
  -5   1 -15 33168.1 1174.48   2
  -5  -1 -15 34399.1 1324.69   1
  -5  -1 -15 34154.8 1186.53   4
  -5   1 -15 34264.9 1134.45   4
  -5  -1 -16 1390.35 342.211   4
  -5   1 -16 900.637 294.641   4
  -5   1 -16 1073.62 305.635   2
  -5  -1 -16 712.511 297.145   1
  -5   1 -17 3060.06 376.328   4
  -5   1 -17 3445.26 403.112   2
  -5  -1 -17 2938.21 420.083   1
  -5  -1 -17 3486.57 420.291   4
  -5   1 -18 166.922 131.473   4
  -5  -1 -18 436.565 224.809   4
  -5   1 -18 70.0590 149.682   2
  -5  -1 -19 10523.6 758.476   4
  -5   1 -19 11117.3 751.254   4
  -5   1 -19 11832.0 765.640   2
  -5  -1 -20 412.768 225.596   4
  -5   1 -20-17.8287 142.653   4
  -5   1 -20 149.338 161.439   2
  -5  -1 -21 5365.13 567.758   4
  -5   1 -21 5319.08 559.786   4
  -5   1 -21 4979.92 510.714   2
  -5   1 -22 491.082 221.795   2
  -5  -1 -22 578.613 250.824   4
  -5   1 -22 492.930 201.407   4
  -5   1 -23 17377.5 973.194   2
  -5   1 -23 16582.8 1037.24   4
  -5  -1 -23 15535.2 1012.78   4
  -5   1 -24 502.579 247.461   2
  -5   1 -24 360.417 224.184   4
  -5  -1 -24 1092.84 329.266   4
  -5   1 -25 6453.17 615.040   2
  -5  -1 -25 5933.62 652.788   4
  -5   1 -25 6189.49 670.455   4
  -5   1 -26 158.600 185.826   4
  -5  -1 -26 573.950 267.207   4
  -5   1 -26 127.904 135.515   2
  -5   1 -27 199.022 160.417   4
  -5   1 -27 102.362 162.719   2
  -5  -1 -27 54.0542 162.824   4
  -5   1 -28 178.108 180.155   4
  -5  -1 -28 53.9199 141.632   4
  -5   1 -28 313.987 186.242   2
  -5   1 -29 6142.49 753.300   4
  -5  -1 -29 7613.71 837.975   4
  -5   1 -30 514.601 236.781   4
  -5  -1 -30 195.428 202.585   4
  -5   1 -31 1716.55 421.284   4
  -5  -1 -31 2608.66 533.011   4
  -5   1 -32 598.457 297.241   4
  -5  -1 -32 305.611 284.877   4
  -5  -1 -33 8261.04 958.826   4
  -5   1 -33 7115.33 885.114   4
  -5   1 -34 147.169 205.226   4
   5   3 -36 35.0714 168.990   4
   5  -3 -36 250.259 267.647   4
   5   3 -35 3676.34 699.657   4
   5  -3 -35 3393.30 621.847   4
   5  -3 -34 363.151 170.628   4
   5   3 -34 271.251 249.768   4
   5  -3 -33 1731.86 417.010   4
   5   3 -33 1947.37 488.557   4
   5  -3 -32 220.889 238.549   4
   5   3 -32-59.4180 247.805   4
   5   3 -31 6492.66 831.133   4
   5  -3 -31 5873.42 738.596   4
   5   3 -30-303.536 250.819   4
   5  -3 -30 250.359 276.214   4
   5   3 -29 6899.89 792.420   4
   5  -3 -29 7226.90 778.768   4
   5  -3 -28 627.854 271.244   4
   5   3 -28 347.400 280.563   4
   5   3 -27 4291.21 624.764   4
   5  -3 -27 5183.87 630.294   4
   5  -3 -26-55.3534 165.589   4
   5  -3 -26 60.8858 71.1830   1
   5   3 -26 47.0785 201.099   4
   5   3 -25-10.7436 168.732   4
   5  -3 -25 47.1138 160.598   4
   5  -3 -25 221.565 141.519   1
   5  -3 -24 292.526 122.517   1
   5  -3 -24 265.354 208.959   4
   5  -3 -23 16966.7 771.336   1
   5  -3 -23 16121.8 969.828   4
   5  -3 -22-219.734 114.672   1
   5  -3 -22 225.715 194.349   4
   5  -3 -21 3248.90 430.821   4
   5  -3 -20 535.442 209.141   4
  -5  -3  19 28288.6 1076.05   2
   5  -3 -19 27968.5 1140.16   4
  -5  -3  18 14.0036 121.099   2
   5  -3 -18 367.867 202.310   4
  -5  -3  17 3025.03 344.639   2
   5  -3 -17 3689.27 403.620   4
  -5  -3  16 294.862 119.402   2
   5  -3 -16 544.114 181.597   4
  -5  -3  15 16344.7 1170.58   5
   5  -3 -15 15284.6 734.328   4
  -5  -3  15 13381.0 696.160   2
  -5  -3  14-246.430 248.466   5
  -5  -3  14-7.55977 98.1992   2
   5  -3 -14 179.622 157.155   4
  -5  -3  13 658.387 303.979   5
   5  -3 -13 576.856 186.229   4
   5  -3 -12 593.443 193.872   4
  -5  -3  12 594.352 375.299   5
  -5   3  11 13716.6 605.929   4
  -5  -3  11 14395.6 1101.73   5
   5  -3 -11 13261.3 587.283   4
   5  -3 -10 464.494 126.177   4
  -5  -3  10 182.776 210.600   5
  -5   3  10 531.381 117.716   4
   5  -3  -9 18076.7 624.948   4
  -5   3   9 18185.5 639.896   4
  -5  -3   9 18204.7 1148.80   5
  -5   3   8 338.973 120.299   4
  -5  -3   8 127.893 238.457   5
   5  -3  -8 361.912 130.006   4
   5  -3  -7 12334.4 462.698   4
  -5   3   7 13518.2 495.672   4
  -5  -3   7 12964.0 911.252   5
  -5  -3   6 594.105 224.311   5
  -5   3   6 387.519 79.4303   4
   5  -3  -6 478.111 94.3640   4
   5  -3  -5 5053.10 266.503   4
  -5   3   5 4568.41 259.603   4
  -5  -3   5 4500.24 489.912   5
   5  -3  -4 942.212 160.237   5
  -5  -3   4 855.990 258.199   5
  -5   3   4 829.321 112.289   4
   5  -3  -4 889.131 126.047   4
   5  -3  -3 9144.42 319.072   4
  -5   3   3 9338.62 326.483   4
  -5  -3   3 9052.71 629.071   5
   5  -3  -3 9656.43 477.440   5
   5   3  -3 8915.88 511.403   3
   5  -3  -2 234.917 91.7093   5
  -5  -3   2 320.757 132.713   5
  -5   3   2 363.453 57.6621   4
   5   3  -2 290.141 77.3215   3
   5   3  -1 35167.0 962.018   3
  -5  -3   1 38010.9 943.306   4
  -5   3   1 37053.0 603.153   4
  -5  -3   1 37789.1 1213.64   5
   5  -3  -1 37208.0 1048.80   5
   5  -3  -1 39178.8 1099.60   2
  -5  -3   0 27.4458 74.2926   4
   5   3   0 3.76308 83.4925   3
  -5   3   0-8.77118 33.5867   4
   5  -3   0-97.9761 116.533   5
   5  -3   0 56.0760 78.6842   2
  -5   3   0 201.315 96.9423   5
  -5  -3  -1 2649.15 275.922   3
  -5  -3  -1 2613.74 265.442   4
   5  -3   1 2620.24 294.584   2
  -5   3  -1 2562.14 166.328   4
   5  -3   1 2562.19 284.903   5
  -5   3  -1 2850.05 294.220   5
   5  -3   2 681.954 170.378   2
  -5   3  -2 1020.83 217.102   5
  -5  -3  -2 442.250 122.254   4
   5  -3   2 594.762 152.325   5
  -5  -3  -2 638.360 132.968   3
  -5   3  -3 16459.4 873.955   5
  -5  -3  -3 14176.2 616.045   4
   5  -3   3 15494.8 739.424   2
  -5  -3  -3 14764.4 637.896   3
   5  -3   3 15019.4 675.476   5
  -5   3  -4 111.710 136.220   5
  -5  -3  -4 16.5363 55.1875   3
  -5  -3  -4 79.2037 103.613   4
   5  -3   4 157.813 128.236   2
  -5  -3  -5-16.2908 62.7512   3
  -5  -3  -5 100.810 146.632   4
  -5   3  -5 69.6307 115.385   5
  -5  -3  -6 2108.99 285.599   4
  -5   3  -6 1682.05 329.263   5
  -5  -3  -7 48317.9 1244.53   4
  -5   3  -7 44488.1 1683.51   5
  -5   3  -8 133.858 159.312   5
  -5  -3  -8 908.049 253.828   4
  -5  -3  -9 390.359 153.831   4
  -5  -3 -10 101.962 170.724   4
  -5   3 -10-4.10222 75.1860   4
  -5   3 -11 9777.73 536.788   4
  -5  -3 -11 9982.94 637.724   4
  -5  -3 -12 152.202 186.575   4
  -5   3 -12 189.653 156.994   4
  -5  -3 -13 78.5466 157.123   4
  -5   3 -13 279.961 131.812   4
  -5   3 -14-69.3171 94.0560   4
  -5  -3 -14-12.7293 150.812   1
  -5  -3 -14-7.12703 146.390   4
  -5  -3 -15 20090.7 1129.56   1
  -5   3 -15 20604.8 902.295   4
  -5  -3 -15 19166.7 972.686   4
  -5  -3 -16 452.510 251.280   1
  -5   3 -16 479.000 206.676   4
  -5  -3 -16 521.086 283.579   4
  -5  -3 -17 2014.48 355.401   4
  -5  -3 -17 2174.88 377.642   1
  -5   3 -17 2583.42 348.649   4
  -5   3 -18 169.821 146.344   4
  -5  -3 -18-7.66876 157.736   4
  -5  -3 -18-14.5120 136.912   1
  -5  -3 -19 3961.54 546.629   1
  -5  -3 -19 3800.40 483.833   4
  -5   3 -19 4175.18 476.887   4
  -5  -3 -20 480.867 221.525   1
  -5   3 -20 681.220 236.876   4
  -5  -3 -20 491.222 198.188   4
  -5  -3 -21 5147.92 631.242   1
  -5  -3 -21 5375.68 608.532   4
  -5   3 -21 5571.51 580.244   4
  -5   3 -22 335.866 206.050   4
  -5  -3 -22 75.2002 137.431   1
  -5  -3 -22 640.585 246.556   4
  -5   3 -23 18248.9 1104.00   4
  -5  -3 -23 21034.3 1292.73   1
  -5  -3 -23 18695.4 1156.71   4
  -5  -3 -24 351.517 232.956   1
  -5   3 -24 461.273 253.446   4
  -5  -3 -24 754.760 314.927   4
  -5   3 -25 7858.40 769.443   4
  -5  -3 -25 7804.19 795.444   1
  -5  -3 -25 8074.93 800.653   4
  -5   3 -26-62.6012 183.652   4
  -5  -3 -26 184.510 199.954   1
  -5  -3 -26 311.116 226.747   4
  -5   3 -27-35.1614 165.998   4
  -5  -3 -27 591.890 331.718   4
  -5  -3 -28 522.111 229.727   4
  -5   3 -28-236.347 222.408   4
  -5  -3 -29 8824.58 919.575   4
  -5   3 -29 8288.43 867.564   4
  -5   3 -30 119.108 156.192   4
  -5  -3 -30 638.130 290.016   4
  -5  -3 -31 1500.08 420.573   4
  -5   3 -31 1582.67 410.038   4
  -5   3 -32 286.980 274.377   4
  -5  -3 -32 292.677 267.813   4
  -5   3 -33 6953.10 880.012   4
  -5   3 -34 9.96321 188.662   4
   5  -5 -34 227.825 185.956   4
   5   5 -34 188.169 286.926   4
   5   5 -33 1439.34 460.410   4
   5  -5 -33 1206.95 391.893   4
   5   5 -32 43.9096 213.081   4
   5  -5 -32 177.235 150.763   4
   5   5 -31 3949.99 672.560   4
   5  -5 -31 4804.67 700.813   4
   5   5 -30-145.999 201.827   4
   5  -5 -30-150.460 224.230   4
   5  -5 -29 4113.60 610.277   4
   5   5 -29 4574.95 699.297   4
   5   5 -28 256.613 219.746   4
   5  -5 -28 791.147 310.951   4
   5  -5 -27 10751.9 935.776   4
   5  -5 -26 202.213 159.717   4
   5  -5 -25 1.88600 147.462   4
   5  -5 -24 625.262 243.866   4
   5  -5 -23 13486.7 947.398   4
   5  -5 -22-22.0325 125.414   4
   5  -5 -21 2203.23 370.423   4
   5  -5 -20 233.752 183.488   4
   5  -5 -19 9592.61 733.483   4
   5  -5 -18 168.756 169.493   4
  -5  -5  18 113.690 225.267   5
   5  -5 -17 2587.12 365.787   4
  -5  -5  17 2615.24 622.464   5
  -5  -5  16 16.4341 205.115   5
   5  -5 -16-168.053 119.973   4
   5  -5 -15 6204.04 529.250   4
  -5  -5  15 6213.21 897.029   5
   5  -5 -14-48.5963 104.759   4
  -5  -5  14 250.085 290.543   5
   5  -5 -13 640.527 192.721   4
  -5  -5  13 192.117 254.444   5
   5  -5 -12 386.081 191.035   4
  -5  -5  12 137.435 277.085   5
   5  -5 -11 21929.7 869.892   4
  -5  -5  11 20235.5 1506.34   5
   5  -5 -11 20624.4 603.306   3
  -5  -5  10 899.055 363.842   5
   5  -5 -10 1152.37 138.735   3
   5  -5 -10 1269.82 226.088   4
   5  -5  -9 10493.3 382.719   3
   5  -5  -9 11329.2 594.850   4
  -5  -5   9 10046.1 1009.25   5
  -5  -5   8-158.213 232.353   5
   5  -5  -8 257.736 144.704   4
   5  -5  -7 16032.5 857.810   5
   5  -5  -7 15334.9 653.376   4
  -5  -5   7 14512.3 1170.35   5
  -5  -5   6 431.592 267.682   5
   5  -5  -6 190.740 116.115   5
  -5   5   6 482.956 129.562   4
   5  -5  -6 325.031 108.445   4
  -5   5   5 5884.20 389.622   4
   5  -5  -5 6306.61 572.337   5
   5  -5  -5 5978.81 394.063   4
  -5  -5   5 5663.31 681.321   5
   5  -5  -4 207.432 134.202   4
   5  -5  -4 142.449 130.440   5
  -5  -5   4-148.706 196.354   5
  -5   5   4 222.437 111.105   4
   5  -5  -3 3320.62 425.383   5
  -5  -5   3 3096.48 468.969   5
  -5   5   3 3102.80 272.714   4
   5  -5  -2 148.652 167.012   5
  -5   5   2 107.598 62.5459   4
  -5  -5   2 107.367 185.037   5
  -5   5   1 31843.9 850.042   4
   5  -5  -1 32453.3 1434.31   5
  -5  -5   1 31363.4 1451.75   5
  -5   5   0 279.939 81.9573   4
   5  -5   0 393.077 219.097   5
  -5  -5   0 104.786 183.133   5
  -5   5   0 234.811 47.0999   3
  -5  -5  -1 2227.13 386.350   5
  -5  -5  -1 2882.71 333.402   4
  -5   5  -1 2963.54 261.381   4
   5  -5   1 2509.48 409.800   5
  -5  -5  -2 431.818 167.411   4
   5  -5   2 332.060 188.240   5
  -5   5  -2 350.865 100.544   4
  -5   5  -3 8189.25 447.226   4
   5  -5   3 8454.85 771.453   5
  -5  -5  -3 7662.21 550.160   4
  -5  -5  -4-51.3309 124.359   4
  -5   5  -4 113.190 92.9850   4
   5  -5   4 81.9819 166.454   5
   5  -5   5 366.893 216.097   5
  -5   5  -5 133.356 71.7294   4
  -5  -5  -5 278.098 156.376   4
  -5  -5  -6 2152.83 351.406   4
  -5   5  -6 1637.03 214.983   4
   5  -5   6 1487.64 331.389   5
  -5  -5  -7 17908.2 885.882   4
  -5  -5  -8 1485.28 304.665   4
  -5  -5  -9 430.125 199.921   4
  -5  -5 -10 99.7391 196.105   4
  -5  -5 -11 7051.75 595.813   4
  -5  -5 -12 191.086 182.899   4
  -5  -5 -13 614.901 235.605   4
  -5  -5 -14 974.556 343.722   4
  -5   5 -15 29994.0 1201.14   4
  -5  -5 -15 27747.3 1282.42   4
  -5  -5 -16 1215.58 382.841   4
  -5   5 -16 1258.39 345.668   4
  -5   5 -17 2178.12 354.586   4
  -5  -5 -17 1868.26 359.348   4
  -5   5 -18 166.074 109.631   4
  -5  -5 -18 590.296 262.003   4
  -5   5 -19 5812.55 589.675   4
  -5  -5 -19 5273.38 687.987   1
  -5  -5 -19 5987.09 666.118   4
  -5   5 -20 1004.38 328.575   4
  -5  -5 -20 646.775 279.628   4
  -5  -5 -20 754.567 339.138   1
  -5  -5 -21 5546.69 728.146   1
  -5  -5 -21 5073.39 615.940   4
  -5   5 -21 5350.35 596.699   4
  -5   5 -22 150.993 178.036   4
  -5  -5 -22-60.9198 206.444   1
  -5  -5 -22 133.233 190.104   4
  -5   5 -23 11585.8 937.647   4
  -5  -5 -23 8592.82 846.885   4
  -5  -5 -23 9016.71 938.886   1
  -5  -5 -24 477.638 284.199   4
  -5  -5 -24 238.179 229.433   1
  -5   5 -24 486.874 244.091   4
  -5  -5 -25 4895.07 704.623   1
  -5  -5 -25 5139.01 688.961   4
  -5   5 -25 5397.06 671.372   4
  -5  -5 -26 399.761 231.527   1
  -5  -5 -26 316.317 248.954   4
  -5   5 -26 427.119 217.506   4
  -5  -5 -27-107.461 237.336   1
  -5   5 -27 55.0395 165.676   4
  -5   5 -28 71.0191 165.898   4
  -5  -5 -28 4215.30 696.793   4
  -5  -5 -29 6293.07 812.613   4
  -5   5 -29 6756.80 819.535   4
  -5   5 -30 249.965 208.214   4
  -5   5 -31 2471.89 525.576   4
   5  -7 -30 774.497 287.571   4
   5   7 -30-274.862 205.765   4
   5  -7 -29 2680.69 560.782   4
   5  -7 -28 836.549 349.502   4
   5  -7 -27 3887.52 628.850   4
   5  -7 -26 51.5591 190.242   4
   5  -7 -25 269.663 215.759   4
   5  -7 -24 735.125 322.575   4
   5  -7 -23 6332.59 727.604   4
   5  -7 -22 688.635 245.161   4
   5  -7 -21 471.126 240.437   4
   5  -7 -20 77.4716 123.525   4
   5  -7 -19 15429.7 1012.71   4
  -5  -7  19 15854.8 1562.71   5
   5  -7 -18 406.155 211.407   4
  -5  -7  18 366.694 419.203   5
  -5  -7  17 792.990 444.535   5
   5  -7 -17 1130.57 288.301   4
  -5  -7  16-46.7309 256.802   5
   5  -7 -16 100.406 157.215   4
   5  -7 -15 7128.44 630.056   4
  -5  -7  15 7290.00 1085.07   5
  -5  -7  14 978.118 474.667   5
   5  -7 -14 1380.32 296.804   4
   5  -7 -13 200.603 155.995   4
  -5  -7  13 258.527 443.901   5
  -5  -7  12 213.247 378.486   5
   5  -7 -12 722.260 303.312   5
   5  -7 -12 430.415 209.865   4
   5  -7 -11 11507.3 751.709   4
  -5  -7  11 10282.2 1255.48   5
   5  -7 -11 10096.4 885.530   5
   5  -7 -10 1291.03 277.105   4
   5  -7 -10 1458.09 380.354   5
   5  -7  -9 7450.65 774.422   5
   5   7  -9 7603.45 717.609   3
   5  -7  -9 7099.77 563.015   4
  -5  -7   9 7314.29 1033.83   5
   5  -7  -8 225.377 173.212   4
   5  -7  -8 433.967 282.947   5
  -5  -7   8 216.931 289.043   5
   5   7  -8 320.699 224.891   3
   5  -7  -7 8610.49 592.339   4
   5  -7  -7 8032.15 816.041   5
   5   7  -7 8485.34 711.343   3
  -5  -7   7 7274.45 994.123   5
   5  -7  -6-275.810 227.894   5
  -5  -7   6 271.912 370.442   5
   5   7  -6 133.180 142.806   3
  -5  -7   5 4725.89 799.438   5
   5   7  -5 4491.85 482.381   3
   5  -7  -5 4786.05 678.675   5
   5  -7  -4 261.165 316.131   5
  -5  -7   4 233.572 309.487   5
   5   7  -4-81.8773 149.110   3
  -5  -7   3 4934.68 765.498   5
   5   7  -3 4960.33 481.664   3
   5  -7  -3 5820.97 765.461   5
   5  -7  -2-155.806 168.350   5
  -5  -7   2 665.529 347.994   5
  -5  -7   1 13269.6 1180.72   5
   5  -7  -1 14229.0 1210.71   5
   5  -7   0 237.663 278.691   5
  -5  -7   0 695.041 384.161   5
   5  -7   1 1549.11 423.520   5
  -5  -7  -1 1330.32 385.484   5
  -5  -7  -2 199.749 222.910   5
   5  -7   2 771.192 350.565   5
   5  -7   3 7799.55 920.250   5
  -5   7  -3 5447.38 307.327   3
  -5  -7  -3 6723.88 818.883   5
  -5  -7  -4 197.476 178.964   4
   5  -7   4 157.544 257.125   5
  -5   7  -4 115.360 81.8113   3
  -5  -7  -4 62.1275 191.134   5
  -5  -7  -5 443.898 290.672   5
  -5  -7  -5 333.829 171.169   4
   5  -7   5 523.641 246.793   5
  -5  -7  -6 1921.22 440.590   4
  -5  -7  -6 1936.83 543.759   5
   5  -7   6 1530.43 472.084   5
  -5  -7  -7 22589.0 1156.80   4
   5  -7   7 25296.6 1550.70   5
  -5  -7  -8 2355.35 447.986   4
   5  -7   8 2351.93 536.855   5
  -5  -7  -9 235.958 179.605   4
  -5  -7 -10 375.128 263.826   4
  -5  -7 -11 8295.72 738.691   4
  -5  -7 -12 805.281 271.914   4
  -5  -7 -13 75.6839 148.678   4
  -5  -7 -14 630.500 273.981   4
  -5  -7 -15 10109.7 866.143   4
  -5  -7 -16 821.201 328.325   4
  -5  -7 -17 1820.83 397.991   4
  -5  -7 -18 228.560 193.971   4
  -5   7 -18 594.816 218.600   4
  -5   7 -19 2955.21 452.504   4
  -5  -7 -19 3180.71 541.707   4
  -5   7 -20 158.477 198.079   4
  -5  -7 -20 536.594 268.516   4
  -5  -7 -21 4598.11 658.651   4
  -5  -7 -22 146.461 200.398   4
  -5  -7 -22 922.606 373.477   1
  -5  -7 -23 9097.44 945.151   4
  -5  -7 -23 8913.88 1045.72   1
  -5  -7 -24 1373.99 401.851   4
  -5  -7 -24 957.400 507.534   1
  -5  -7 -25 4765.67 724.798   4
  -5  -7 -25 4156.70 743.002   1
   5  -9 -23 3892.86 612.192   4
   5  -9 -22 582.966 265.551   4
   5  -9 -21 317.365 250.452   4
   5  -9 -20 692.877 290.139   4
   5  -9 -19 7215.59 784.636   4
  -5  -9  19 7413.90 1172.99   5
  -5  -9  18 517.892 422.541   5
   5  -9 -18 291.296 194.331   4
   5  -9 -17 253.525 191.357   4
  -5  -9  17 628.467 443.320   5
  -5  -9  16 482.220 417.238   5
   5  -9 -16-222.710 122.587   4
   5  -9 -15 5492.19 624.978   4
  -5  -9  15 5622.51 1104.43   5
   5  -9 -14 997.231 252.875   4
  -5  -9  14 1128.89 624.480   5
   5  -9 -13 326.113 201.760   4
  -5  -9  13 314.052 440.158   5
  -5  -9  12 110.630 333.149   5
  -5  -9  11 7853.79 1267.96   5
  -5  -9  10 1220.43 638.260   5
  -5  -9   9 5389.56 1056.11   5
   5  -9  -8 3642.36 774.365   5
  -5  -9   8-397.097 310.401   5
   5  -9  -7 4482.10 730.464   5
  -5  -9   7 4325.81 905.655   5
   5  -9  -6 277.772 546.085   5
  -5  -9   6-144.955 298.045   5
   5  -9  -5 3655.65 676.463   5
  -5  -9   5 1125.81 315.523   5
  -5  -9   4-120.131 302.934   5
   5  -9  -4-768.006 342.146   5
  -5  -9   3 3180.68 754.985   5
   5  -9  -3 3108.79 643.162   5
   5  -9  -2 1205.00 617.176   5
  -5  -9   2 1615.80 571.883   5
  -5  -9   1 9518.41 1248.40   5
   5  -9  -1 9654.20 1149.51   5
   5  -9   0 457.192 507.114   5
  -5  -9   0 304.267 456.126   5
  -5  -9  -1 2219.91 628.253   5
   5  -9   1 1663.93 537.636   5
  -5  -9  -2 278.820 493.502   5
   5  -9   2-44.8995 353.712   5
  -5  -9  -3 5940.62 956.657   5
   5  -9   3 6186.42 918.876   5
  -5  -9  -4 516.438 486.088   5
   5  -9   4 885.665 473.858   5
  -5  -9  -5 153.131 279.588   5
   5  -9   5 295.660 321.468   5
  -5  -9  -6 1927.40 710.188   5
   5  -9   6 2127.88 616.148   5
   5  -9   7 19176.7 1581.04   5
  -5  -9  -7 10940.9 1269.01   5
  -5  -9  -8 1519.90 592.139   5
  -5  -9  -9-21.5370 158.059   4
  -5  -9  -9 71.5973 247.296   5
  -5  -9 -10 261.735 230.205   5
  -5  -9 -10 246.169 224.824   4
  -5  -9 -11 4616.45 641.793   4
  -5  -9 -11 4511.51 840.221   5
  -5  -9 -12 796.804 435.475   5
  -5  -9 -12 629.233 268.963   4
  -5  -9 -13 313.646 355.593   5
  -5  -9 -13 63.5151 186.390   4
  -5  -9 -14 981.491 351.504   4
  -5  -9 -14 1089.70 465.566   5
  -5  -9 -15 8614.15 923.868   4
  -5  -9 -16 884.812 352.064   4
  -5  -9 -17 1376.16 393.170   4
  -5  -9 -18 155.117 187.540   4
  -5 -11   7 4462.58 1056.23   5
  -5 -11   6 1786.79 963.749   5
  -5 -11   5 1543.14 620.287   5
  -5 -11   4-122.426 298.324   5
  -5 -11   3 1218.59 506.226   5
  -5 -11   2 1485.43 725.281   5
  -5 -11   1 4032.59 937.237   5
  -5 -11   0 391.753 679.898   5
  -5 -11  -1 825.781 317.543   5
  -5 -11  -2-173.924 286.185   5
  -5 -11  -3 389.215 295.996   5
  -5 -11  -4-103.454 262.304   5
  -5 -11  -5-259.806 319.392   5
   6   0 -38 1479.33 451.172   4
   6   0 -37 116.384 216.675   4
   6   0 -36 3054.00 622.772   4
   6   0 -35 71.7697 229.306   4
   6   0 -34 9416.08 996.561   4
   6   0 -33-128.103 226.645   4
   6   0 -32 6773.37 810.794   4
   6   0 -31 186.007 205.464   4
   6   0 -30 2153.72 440.610   4
   6   0 -29 335.959 251.593   4
   6   0 -28 8630.26 823.502   4
   6   0 -27 269.665 259.513   4
   6   0 -26 4900.48 606.336   4
   6   0 -25 94.7698 216.402   4
   6   0 -24 17246.1 1042.62   4
   6   0 -23 196.141 206.303   4
   6   0 -22 173.801 213.712   4
   6   0 -21 194.536 169.194   4
   6   0 -20 30683.9 1215.91   4
   6   0 -19-87.2871 144.654   4
   6   0 -18 1800.50 295.642   4
   6   0 -17 18.5980 111.704   4
   6   0 -16 16528.2 790.410   4
   6   0 -15-12.4568 92.6558   4
   6   0 -15 18.9326 98.2955   5
   6   0 -14 7759.83 597.283   5
   6   0 -13-47.3928 96.8956   5
   6   0 -12 10972.9 650.329   5
   6   0 -11-71.6672 95.7038   5
   6   0 -10 76.5182 97.0334   5
   6   0  -9 372.061 172.490   5
  -6   0   8 60021.5 1272.69   5
   6   0  -8 62314.8 1342.84   5
   6   0  -7-24.6521 84.2370   5
  -6   0   7-394.629 135.135   5
   6   0  -6 78508.2 1349.62   5
   6   0  -6 78340.2 877.024   1
  -6   0   6 75963.2 1412.98   5
  -6   0   5-10.6808 85.4484   5
   6   0  -5 74.1584 76.9207   5
  -6   0   5 156.569 101.835   1
   6   0  -5 29.7474 51.8974   1
  -6   0   4 28302.2 679.262   5
   6   0  -4 27416.4 624.609   1
   6   0  -4 26978.2 619.714   5
   6   0  -3 121.713 80.2247   1
  -6   0   3-19.6494 49.8246   5
   6   0  -2 7857.43 382.605   1
   6   0  -2 7677.07 256.243   4
  -6   0   2 7825.33 347.669   3
  -6   0   1-31.7730 49.4344   4
   6   0  -1 7.71798 32.1996   4
  -6   0   1-13.6657 42.7512   3
   6   0   0 250.289 83.1178   1
  -6   0   0 181.770 55.8227   4
   6   0   0 177.854 53.8649   4
  -6   0   0 176.441 62.0591   3
   6   0   1-85.1024 83.5030   1
   6   0   1 14.6848 36.5241   4
  -6   0  -1 37.4130 46.0227   4
   6   0   2 12886.2 590.759   1
   6   0   2 12062.8 378.536   4
  -6   0  -2 12074.5 372.812   4
   6   0   3 49.6775 47.3904   4
   6   0   3 154.085 127.867   1
  -6   0  -3 11.7021 57.3661   4
   6   0   4 12308.5 622.376   1
  -6   0  -4 11588.7 416.700   4
   6   0   4 11895.0 421.528   4
  -6   0  -5 32.4836 60.1701   4
   6   0   5 45.4637 76.2099   1
   6   0   5 39.8695 43.5428   4
  -6   0  -6 16648.3 572.045   4
   6   0   6 16956.8 567.651   4
   6   0   6 16364.6 762.333   1
   6   0   7 88.6268 100.262   1
  -6   0  -7 52.3622 79.2624   4
   6   0   7 19.8645 58.8299   4
  -6   0  -8-22.6121 79.5248   4
   6   0   8 62.9873 63.2271   4
   6   0   8 83.9346 88.9977   1
   6   0   9-127.929 91.2952   1
   6   0   9 136.348 89.2171   4
  -6   0  -9 339.514 177.465   4
   6   0  10 91152.0 1575.51   4
   6   0  10 91268.8 1981.90   1
  -6   0 -10 89472.3 1580.96   4
  -6   0 -11 812.390 235.850   4
   6   0  11 255.695 163.334   1
  -6   0 -12 431.943 167.495   4
  -6   0 -13-17.6908 97.7698   4
  -6   0 -14 4738.45 441.213   4
  -6   0 -15 115.755 115.905   4
  -6   0 -16 5112.36 479.376   4
  -6   0 -17 300.090 203.910   4
  -6   0 -18 28658.3 1181.23   4
  -6   0 -19 895.359 284.817   4
  -6   0 -20 1854.50 346.099   4
  -6   0 -21-25.1181 121.752   4
  -6   0 -22 3116.04 454.369   4
  -6   0 -23 295.051 200.951   4
  -6   0 -24 5817.59 595.705   2
  -6   0 -24 6155.57 663.824   4
  -6   0 -25 180.652 159.560   2
  -6   0 -25-1.60971 130.326   4
  -6   0 -26 6831.03 663.159   2
  -6   0 -26 8053.24 796.323   4
  -6   0 -27 65.3465 183.070   2
  -6   0 -27 234.400 198.741   4
  -6   0 -28 5046.83 582.322   2
  -6   0 -28 4773.97 639.126   4
  -6   0 -29 125.263 192.763   4
  -6   0 -30 275.096 225.496   4
  -6   0 -31 476.234 267.881   4
  -6   0 -32 6014.97 791.407   4
  -6   0 -33 391.312 300.229   4
   6   2 -37 353.739 341.094   4
   6  -2 -37-133.699 203.247   4
   6   2 -36 1997.68 537.615   4
   6  -2 -36 2048.07 474.516   4
   6  -2 -35 143.527 172.885   4
   6   2 -35-112.171 202.562   4
   6   2 -34 8830.79 1021.51   4
   6  -2 -34 7781.89 879.692   4
   6   2 -33 225.475 278.089   4
   6  -2 -33-154.706 223.724   4
   6   2 -32 2627.68 547.306   4
   6  -2 -32 2462.08 475.353   4
   6  -2 -31 315.341 143.527   4
   6   2 -31 32.9328 176.138   4
   6  -2 -30 1899.13 418.017   4
   6   2 -30 1801.94 439.468   4
   6  -2 -29 127.755 138.540   4
   6   2 -29 59.8449 150.226   4
   6  -2 -28 11244.2 926.139   4
   6   2 -28 10784.7 970.099   4
   6  -2 -27 41.9109 133.245   4
   6   2 -27 82.6188 173.074   4
   6   2 -26 4539.98 592.247   4
   6  -2 -26 4294.17 549.445   4
   6  -2 -25 297.398 231.173   4
   6   2 -25-70.7052 191.753   4
   6   2 -24 14498.5 1013.72   4
   6  -2 -24 14553.7 946.004   4
   6  -2 -23 704.632 126.284   1
   6   2 -23 469.004 216.917   4
   6  -2 -23 623.986 197.891   4
  -6  -2  23 731.647 156.136   1
   6  -2 -22 198.251 85.0893   1
   6  -2 -22 552.366 233.071   4
  -6  -2  22 807.806 157.207   1
   6  -2 -21 584.490 201.743   4
   6  -2 -21 1036.79 162.501   1
   6  -2 -20 16079.9 576.784   1
   6  -2 -20 16668.5 880.031   4
   6  -2 -19 2.13988 56.7452   1
   6  -2 -19 122.610 134.748   4
   6  -2 -18 3437.27 400.615   4
  -6  -2  17 278.820 91.4935   2
   6  -2 -17 620.449 209.568   4
  -6  -2  16 39683.2 985.456   2
   6  -2 -16 40733.3 1198.82   4
   6  -2 -15 749.723 216.495   4
  -6  -2  15 169.552 70.5688   2
   6  -2 -14 13130.0 629.625   4
  -6  -2  14 12330.2 936.173   5
  -6  -2  14 11862.5 516.184   2
   6  -2 -13 650.179 210.149   4
  -6  -2  13 343.328 262.049   5
   6  -2 -12 26769.8 816.012   4
  -6  -2  12 27921.4 1408.79   5
  -6   2  12 27722.8 834.670   4
  -6  -2  11 285.435 165.226   5
  -6   2  11 371.328 104.142   4
   6  -2 -11 273.744 110.520   4
  -6   2  10 1268.72 162.006   4
   6  -2 -10 1101.49 158.658   4
  -6  -2  10 948.955 289.032   5
  -6  -2   9 673.948 293.827   5
  -6   2   9 690.188 145.767   4
   6  -2  -9 858.543 178.932   4
  -6  -2   8 6801.03 628.959   5
   6  -2  -8 7007.57 332.863   4
  -6   2   8 6964.11 331.759   4
  -6  -2   7 30.8220 126.222   5
   6  -2  -7 20.3514 49.7672   4
  -6   2   7 14.5941 42.2032   4
  -6   2   6 10965.6 350.387   4
  -6  -2   6 11275.2 727.204   5
   6  -2  -6 11293.4 353.408   4
   6  -2  -6 10238.1 442.788   2
  -6   2   5 143.143 49.9845   4
   6  -2  -5 216.814 53.4833   4
   6  -2  -5 199.147 83.6403   2
  -6  -2   5 106.333 108.865   5
  -6   2   4 7553.70 226.240   4
   6  -2  -4 7759.72 224.827   4
  -6  -2   4 7933.76 542.671   5
   6  -2  -4 7362.44 403.828   2
   6  -2  -4 6503.96 182.939   3
  -6   2   3 516.838 53.7043   4
  -6  -2   3 438.796 142.477   5
   6  -2  -3 503.892 50.7705   4
   6  -2  -3 733.662 140.703   2
   6  -2  -2 6521.09 390.166   2
   6  -2  -2 5646.43 207.725   5
  -6   2   1 484.025 92.2250   5
   6  -2  -1 494.155 124.960   2
  -6  -2   1 323.465 90.5985   4
   6  -2   0 18435.8 696.373   2
  -6  -2   0 18518.1 669.795   3
  -6  -2   0 18136.3 609.457   4
  -6   2   0 18264.9 628.418   5
   6  -2   1 1575.57 212.797   2
  -6   2  -1 1971.65 239.433   5
  -6   2  -1 1627.86 94.9483   4
  -6  -2  -1 1598.34 199.174   4
  -6  -2  -1 1587.84 196.829   3
   6  -2   2 63585.6 1354.76   2
  -6   2  -2 60667.7 636.813   4
  -6  -2  -2 63800.1 1246.37   3
  -6  -2  -2 62021.0 1165.54   4
  -6   2  -2 59744.7 1307.20   5
   6  -2   3 3327.13 346.864   2
  -6  -2  -3 3058.54 269.364   4
  -6   2  -3 3294.83 189.190   4
  -6  -2  -3 3369.41 306.341   3
  -6   2  -3 3126.66 318.860   5
  -6   2  -4 1930.64 150.510   4
  -6  -2  -4 2087.14 243.550   4
  -6   2  -4 2245.74 275.412   5
  -6   2  -5 225.781 120.408   5
  -6   2  -5 245.975 80.1391   4
  -6  -2  -5 366.719 192.930   4
  -6   2  -6 11711.9 431.092   4
  -6  -2  -6 12449.9 580.690   4
  -6   2  -6 13091.0 711.057   5
  -6   2  -7 284.910 101.962   4
  -6   2  -7 592.754 266.199   2
  -6  -2  -7 162.978 112.505   4
  -6   2  -8 520.632 206.075   2
  -6   2  -8 357.980 102.218   4
  -6  -2  -8 310.074 121.343   4
  -6  -2  -9 256.874 165.349   1
  -6   2  -9 366.519 133.093   4
  -6  -2  -9 127.083 146.850   4
  -6  -2 -10 44049.9 1467.14   1
  -6   2 -10 46480.5 1379.03   2
  -6  -2 -10 42792.3 1220.26   4
  -6   2 -10 42977.0 1047.22   4
  -6  -2 -11 312.017 229.504   1
  -6   2 -11 553.551 202.066   4
  -6  -2 -11 265.448 208.612   4
  -6   2 -11 979.105 319.650   2
  -6   2 -12 207.251 172.249   2
  -6  -2 -12-93.7905 124.868   4
  -6   2 -12 178.803 113.289   4
  -6  -2 -12 45.5923 136.161   1
  -6  -2 -13 44.2290 131.210   1
  -6   2 -13 144.631 93.0100   4
  -6   2 -13 420.822 194.169   2
  -6  -2 -13 130.885 151.405   4
  -6  -2 -14 10704.0 806.547   1
  -6  -2 -14 10190.4 671.538   4
  -6   2 -14 11138.4 637.185   4
  -6   2 -14 10608.3 718.105   2
  -6   2 -15 284.370 149.901   4
  -6  -2 -15 40.7351 138.024   1
  -6   2 -15 404.801 218.468   2
  -6  -2 -15 203.709 153.973   4
  -6   2 -16 4390.10 481.423   2
  -6   2 -16 4003.26 424.457   4
  -6  -2 -16 3944.11 522.813   1
  -6  -2 -16 3655.49 414.488   4
  -6   2 -17 296.347 188.433   2
  -6   2 -17 123.359 136.405   4
  -6  -2 -17 122.577 145.806   4
  -6  -2 -17 220.242 228.360   1
  -6  -2 -18 18102.7 994.942   4
  -6   2 -18 19040.2 953.893   4
  -6  -2 -18 20219.7 1174.67   1
  -6   2 -18 19464.6 1028.00   2
  -6   2 -19 383.808 212.170   4
  -6   2 -19 78.7487 160.949   2
  -6  -2 -19 205.255 232.010   1
  -6  -2 -19 336.807 220.350   4
  -6   2 -20 2054.46 352.427   4
  -6  -2 -20 2361.83 391.302   4
  -6  -2 -20 2233.27 423.655   1
  -6   2 -20 2172.60 355.698   2
  -6   2 -21-185.554 174.266   4
  -6   2 -21-37.3565 119.103   2
  -6  -2 -21 76.1606 129.005   4
  -6  -2 -21 120.523 125.241   1
  -6   2 -22 987.489 269.237   4
  -6  -2 -22 1141.94 309.052   1
  -6  -2 -22 729.696 214.157   4
  -6   2 -22 1276.91 295.570   2
  -6   2 -23-162.229 182.897   4
  -6   2 -23 218.057 163.038   2
  -6  -2 -23-28.3580 191.132   4
  -6   2 -24 4678.96 568.739   4
  -6  -2 -24 4351.89 568.994   4
  -6   2 -24 4761.78 561.192   2
  -6   2 -25 236.855 169.165   2
  -6  -2 -25 308.034 238.644   4
  -6   2 -25 287.357 210.857   4
  -6   2 -26 12563.9 921.778   2
  -6   2 -26 12157.8 957.068   4
  -6  -2 -26 10801.7 928.919   4
  -6   2 -27 758.568 290.642   4
  -6   2 -27 164.328 155.913   2
  -6  -2 -27 776.279 323.807   4
  -6  -2 -28 9653.53 925.150   4
  -6   2 -28 9455.28 819.416   2
  -6   2 -28 9745.34 915.577   4
  -6   2 -29 29.8549 179.698   4
  -6  -2 -29 419.932 274.655   4
  -6  -2 -30 169.123 180.770   4
  -6   2 -30-151.915 210.421   4
  -6  -2 -31-39.0555 153.252   4
  -6   2 -31-63.8102 166.076   4
  -6   2 -32 5936.28 794.463   4
  -6  -2 -32 6522.56 848.393   4
  -6   2 -33 332.455 254.655   4
  -6   2 -34 1575.77 430.549   4
   6   4 -35 401.095 223.835   4
   6  -4 -35 563.207 262.670   4
   6  -4 -34 7061.62 863.370   4
   6   4 -34 7493.09 968.139   4
   6   4 -33 443.337 304.061   4
   6  -4 -33 662.901 314.675   4
   6   4 -32 4645.27 736.103   4
   6  -4 -32 4395.86 653.695   4
   6   4 -31-262.571 251.995   4
   6  -4 -31 411.753 260.498   4
   6  -4 -30 2055.89 444.284   4
   6   4 -30 1149.61 363.392   4
   6   4 -29-9.94711 167.950   4
   6  -4 -29-74.7489 153.342   4
   6  -4 -28 8842.46 837.505   4
   6   4 -28 6363.96 796.563   4
   6   4 -27 49.7274 210.395   4
   6  -4 -27 229.016 207.892   4
   6  -4 -26 5430.57 483.101   1
   6  -4 -26 5942.24 657.356   4
   6  -4 -25 177.519 126.591   1
   6  -4 -25 347.659 206.498   4
   6  -4 -24 10303.4 836.502   4
   6  -4 -23 532.650 237.665   4
   6  -4 -22 356.537 196.851   4
   6  -4 -21 985.952 258.504   4
   6  -4 -20 16072.1 920.376   4
   6  -4 -19 920.648 264.688   4
   6  -4 -18 1361.49 289.773   4
  -6  -4  18 1020.42 389.518   5
  -6  -4  17 807.605 418.537   5
   6  -4 -17 1106.82 265.285   4
   6  -4 -16 21936.0 952.316   4
  -6  -4  16 21037.2 1497.75   5
  -6  -4  15 124.989 283.770   5
   6  -4 -15 427.890 175.777   4
  -6  -4  14 6134.23 835.468   5
   6  -4 -14 5047.16 423.071   4
  -6  -4  13 617.498 383.652   5
   6  -4 -13 65.3796 119.106   4
  -6  -4  12 12831.4 1133.82   5
   6  -4 -12 13263.3 637.206   4
   6  -4 -11 786.285 157.354   4
  -6  -4  11 380.722 238.496   5
  -6  -4  10 458.634 225.963   5
  -6   4  10 781.716 152.308   4
   6  -4 -10 793.003 162.246   4
  -6   4   9 1850.25 234.324   4
  -6  -4   9 1642.63 467.493   5
   6  -4  -9 1939.30 250.302   4
  -6   4   8 17616.6 638.645   4
   6  -4  -8 16670.3 607.453   4
  -6  -4   8 16452.2 1165.64   5
   6  -4  -8 13517.3 309.980   3
  -6  -4   7-129.804 189.603   5
   6  -4  -7 183.447 78.9944   4
  -6   4   7 267.911 84.1638   4
  -6  -4   6 21564.7 1234.41   5
   6  -4  -6 22253.7 823.513   5
   6  -4  -6 21915.1 641.918   4
  -6   4   6 22092.3 658.489   4
  -6   4   5-31.1357 45.2805   4
   6  -4  -5 30.7206 75.9271   4
   6  -4  -5-14.6067 92.6625   5
  -6   4   4 9831.25 399.741   4
  -6  -4   4 9125.87 761.898   5
   6  -4  -4 9463.01 391.802   4
   6  -4  -4 9588.63 582.660   5
   6  -4  -3 1137.71 216.773   5
  -6  -4   3 889.841 221.179   5
  -6   4   3 1215.49 133.928   4
   6  -4  -2 4842.01 443.710   5
  -6   4   2 4546.81 252.545   4
  -6  -4   2 4792.42 530.409   5
  -6  -4   1 41.4148 129.057   4
  -6  -4   1-114.103 143.278   5
   6  -4  -1-178.212 164.597   5
  -6   4   1-10.0607 49.6105   4
  -6  -4   0 6270.93 448.460   4
   6  -4   0 7598.75 574.989   5
  -6   4   0 6137.60 289.062   4
   6  -4   1 278.125 112.807   5
  -6   4  -1 362.957 112.471   5
  -6   4  -1 346.695 66.9041   4
  -6  -4  -1 323.055 103.777   4
  -6   4  -2 13306.2 746.389   5
  -6   4  -2 13222.2 452.454   4
  -6  -4  -2 12332.7 653.240   4
  -6  -4  -2 12850.5 684.204   3
   6  -4   2 13528.7 746.992   5
  -6   4  -3 3861.81 254.197   4
   6  -4   3 3963.34 408.532   5
  -6  -4  -3 3567.89 362.217   4
  -6   4  -3 4313.44 468.176   5
  -6   4  -4 67.0052 118.526   5
  -6  -4  -4 65.9649 136.016   4
  -6  -4  -5 589.468 202.799   4
  -6   4  -5 1381.67 329.188   5
  -6  -4  -6 16421.5 790.024   4
  -6  -4  -7 228.032 171.588   4
  -6  -4  -8 208.295 169.603   4
  -6  -4  -9 412.710 287.452   4
  -6  -4 -10 37514.4 1287.17   4
  -6   4 -11 396.445 187.445   4
  -6  -4 -11 699.614 276.760   4
  -6  -4 -12 744.307 237.952   4
  -6   4 -12 781.026 183.269   4
  -6   4 -13 8.33948 87.4591   4
  -6  -4 -13-80.9105 136.812   4
  -6   4 -14 7530.70 550.500   4
  -6  -4 -14 6912.24 618.965   4
  -6   4 -15 280.274 165.248   4
  -6  -4 -15 161.327 174.788   4
  -6   4 -16 2219.98 325.638   4
  -6  -4 -16 2400.87 389.563   4
  -6  -4 -16 2310.48 446.941   1
  -6   4 -17 287.623 165.646   4
  -6  -4 -17 359.798 247.735   4
  -6  -4 -17 284.828 172.700   1
  -6   4 -18 13531.2 833.746   4
  -6  -4 -18 13134.8 1050.59   1
  -6  -4 -18 13853.6 939.328   4
  -6   4 -19 601.510 227.206   4
  -6  -4 -19 903.208 321.156   4
  -6  -4 -19 548.280 294.060   1
  -6   4 -20 3243.77 443.826   4
  -6  -4 -20 2800.74 440.536   4
  -6  -4 -20 2320.60 452.047   1
  -6  -4 -21-94.7324 204.528   1
  -6   4 -21 200.906 183.883   4
  -6  -4 -21 130.269 182.644   4
  -6  -4 -22 3135.10 537.990   1
  -6  -4 -22 2867.77 470.750   4
  -6   4 -22 3352.53 472.653   4
  -6   4 -23 438.804 218.571   4
  -6  -4 -23 604.303 287.101   1
  -6  -4 -23-70.3338 141.307   4
  -6   4 -24 3498.08 511.691   4
  -6  -4 -24 2396.97 437.535   4
  -6  -4 -24 2949.37 550.236   1
  -6  -4 -25 136.478 211.886   1
  -6   4 -25 245.799 182.158   4
  -6  -4 -25 347.921 224.590   4
  -6  -4 -26 6006.73 811.057   1
  -6  -4 -26 5906.51 728.468   4
  -6   4 -26 5555.74 683.006   4
  -6   4 -27 519.257 230.347   4
  -6  -4 -27 179.549 204.500   1
  -6  -4 -27-52.8932 179.901   4
  -6   4 -28 6695.92 770.776   4
  -6  -4 -28 6603.86 789.641   4
  -6   4 -29 655.554 273.080   4
  -6  -4 -29 5.43102 198.481   4
  -6   4 -30-217.323 229.297   4
  -6  -4 -30-120.519 238.917   4
  -6   4 -31 226.332 203.253   4
  -6   4 -32 6496.93 851.742   4
  -6   4 -33 163.536 246.266   4
   6  -6 -33 348.923 237.649   4
   6   6 -32 4448.31 759.347   4
   6  -6 -32 3300.91 620.640   4
   6   6 -31 326.810 289.544   4
   6  -6 -31-170.346 211.398   4
   6   6 -30 1559.28 470.305   4
   6  -6 -30 1123.36 350.002   4
   6  -6 -29 285.578 207.183   4
   6  -6 -28 6349.59 761.492   4
   6  -6 -27 409.509 248.708   4
   6  -6 -26 3829.24 571.750   4
   6  -6 -25 471.315 272.156   4
   6  -6 -24 5698.36 664.921   4
   6  -6 -23 190.805 152.134   4
   6  -6 -22 416.716 226.460   4
   6  -6 -21 129.892 149.203   4
  -6  -6  20 12020.0 1296.96   5
   6  -6 -20 10247.5 809.102   4
   6  -6 -19 1130.54 287.571   4
  -6  -6  19 978.928 453.716   5
  -6  -6  18 1031.45 444.463   5
   6  -6 -18 925.358 267.132   4
  -6  -6  17 990.249 395.500   5
   6  -6 -17 828.385 239.957   4
   6  -6 -16 14713.4 863.172   4
  -6  -6  16 14277.5 1424.07   5
   6  -6 -15 464.461 174.465   4
  -6  -6  15 607.174 411.740   5
  -6  -6  14 4801.77 856.773   5
   6  -6 -14 4792.46 474.504   4
  -6  -6  13-144.862 288.682   5
   6  -6 -13 173.610 143.042   4
   6  -6 -12 11556.6 691.255   4
  -6  -6  12 10212.3 1175.26   5
   6  -6 -11 773.965 225.439   4
  -6  -6  11 296.119 297.141   5
   6  -6 -10 609.380 225.367   5
   6  -6 -10 607.323 205.455   4
  -6  -6  10 168.652 230.434   5
   6  -6  -9 1452.85 331.789   5
  -6  -6   9 1042.93 446.069   5
   6  -6  -9 1724.53 271.221   4
   6  -6  -8 14075.9 693.467   4
  -6  -6   8 13446.7 1247.25   5
   6  -6  -8 13867.1 924.598   5
  -6  -6   7 697.788 319.403   5
   6  -6  -7 353.936 168.266   5
   6  -6  -7 715.820 164.300   4
   6   6  -7 564.904 230.871   3
  -6  -6   6 17229.5 1356.00   5
   6  -6  -6 16869.7 1051.32   5
   6   6  -6 15237.6 894.391   3
   6  -6  -6 16539.4 708.293   4
  -6  -6   5-25.8366 265.177   5
   6   6  -5-297.366 179.268   3
   6  -6  -5-144.748 212.477   5
  -6  -6   4 7555.48 842.149   5
   6   6  -4 7136.55 582.318   3
   6  -6  -4 8476.28 778.823   5
   6  -6  -3 1406.90 316.276   5
  -6  -6   3 1050.06 319.039   5
   6   6  -3 1470.64 256.333   3
   6  -6  -2 6166.00 696.161   5
  -6  -6   2 5541.42 701.502   5
   6   6  -2 5020.25 463.771   3
   6  -6  -1-101.857 184.986   5
  -6   6   1-195.501 88.5330   4
  -6  -6   1-8.55916 177.818   5
  -6  -6   0 4264.79 608.867   5
  -6   6   0 4626.36 351.677   4
   6  -6   0 5696.42 700.385   5
  -6  -6  -1 92.8444 192.290   5
  -6   6  -1-103.239 92.2743   4
  -6   6  -1 33.3881 19.3888   3
   6  -6   1 312.107 262.384   5
  -6  -6  -2 8095.08 823.556   5
  -6  -6  -2 8137.88 623.289   4
  -6   6  -2 7944.91 337.467   3
  -6   6  -2 9509.27 521.246   4
   6  -6   2 11233.5 949.723   5
   6  -6   3 4028.49 586.509   5
  -6  -6  -3 3822.44 597.388   5
  -6   6  -3 3615.01 337.833   4
  -6  -6  -3 3656.63 443.371   4
  -6  -6  -4 247.664 187.053   4
   6  -6   4 249.496 232.693   5
  -6  -6  -5 354.971 236.255   4
   6  -6   5 224.702 199.524   5
  -6  -6  -6 10484.1 739.477   4
   6  -6   6 12579.7 942.434   5
  -6  -6  -7 592.721 227.095   4
  -6  -6  -8 268.938 199.053   4
  -6  -6  -9 1155.76 347.862   4
  -6  -6 -10 23672.7 1175.67   4
  -6  -6 -11 1478.37 376.282   4
  -6  -6 -12 1475.06 350.307   4
  -6  -6 -13 577.964 260.381   4
  -6  -6 -14 7545.42 704.512   4
  -6   6 -15 155.553 155.443   4
  -6  -6 -15 380.208 253.066   4
  -6   6 -16 1525.53 297.192   4
  -6  -6 -16 1463.87 366.292   4
  -6  -6 -17 428.966 268.658   4
  -6   6 -17 174.587 176.258   4
  -6   6 -18 11603.7 821.967   4
  -6  -6 -18 11384.2 927.855   4
  -6  -6 -19 890.835 361.177   4
  -6   6 -19 1020.24 316.059   4
  -6  -6 -20 2402.35 539.688   1
  -6  -6 -20 2603.34 476.438   4
  -6   6 -20 2842.52 436.514   4
  -6   6 -21 53.7061 185.518   4
  -6  -6 -21-84.1639 157.135   1
  -6  -6 -21 155.898 198.239   4
  -6   6 -22 2291.45 403.078   4
  -6  -6 -22 1891.99 507.238   1
  -6  -6 -22 2006.61 439.635   4
  -6   6 -23 414.912 216.136   4
  -6  -6 -23-11.1565 164.086   4
  -6  -6 -23-113.966 167.314   1
  -6   6 -24 2410.26 458.460   4
  -6  -6 -24 2344.07 486.751   4
  -6  -6 -24 1899.22 493.064   1
  -6   6 -25 368.667 191.983   4
  -6  -6 -25 256.058 246.900   4
  -6  -6 -26 2870.39 595.241   1
  -6  -6 -26 3606.31 625.925   4
  -6  -6 -27 372.136 281.973   4
   6  -8 -28 4514.50 702.184   4
   6  -8 -27 631.280 325.695   4
   6  -8 -26 2460.54 508.535   4
   6  -8 -25 458.882 228.666   4
   6  -8 -24 5170.58 679.677   4
   6  -8 -23 142.866 151.985   4
   6  -8 -22 110.910 135.502   4
   6  -8 -21 88.8421 182.616   4
   6  -8 -20 8325.25 804.984   4
  -6  -8  20 8921.18 1238.08   5
   6  -8 -19 415.784 195.251   4
  -6  -8  19 800.099 460.399   5
   6  -8 -18 1070.04 317.087   4
  -6  -8  18 1652.76 651.667   5
   6  -8 -17 1876.98 373.615   4
  -6  -8  17 1849.26 608.528   5
   6  -8 -16 12632.5 1047.30   5
   6  -8 -16 15485.6 1010.67   4
  -6  -8  16 17379.7 1770.34   5
  -6  -8  15 1227.43 588.604   5
   6  -8 -15 1268.28 318.802   4
   6  -8 -15 1278.99 373.926   5
   6  -8 -14 3012.41 517.342   5
   6  -8 -14 3972.76 503.616   4
  -6  -8  13 431.244 579.087   5
   6  -8 -13 178.916 168.944   4
   6  -8 -13 192.051 250.313   5
   6  -8 -12 10509.9 966.788   5
   6   8 -12 12161.4 1025.34   3
   6  -8 -12 12135.4 816.633   4
  -6  -8  12 11275.8 1434.09   5
   6  -8 -11 974.807 263.989   4
   6  -8 -11 750.928 294.998   5
  -6  -8  11-53.9559 271.089   5
   6   8 -11 836.730 322.247   3
   6  -8 -10 31.6102 144.619   5
  -6  -8  10 392.691 287.209   5
   6   8 -10 801.104 229.319   3
   6  -8 -10 249.363 158.038   4
   6  -8  -9 196.377 233.483   5
  -6  -8   9-9.44205 302.506   5
   6   8  -9 233.527 214.743   3
  -6  -8   8 3733.54 807.003   5
   6  -8  -8 3645.86 605.862   5
   6   8  -8 3847.29 539.938   3
   6  -8  -7 627.551 337.797   5
  -6  -8   7 824.996 561.509   5
   6   8  -7 778.532 302.380   3
   6   8  -6 4840.10 539.098   3
   6  -8  -6 4980.58 714.647   5
  -6  -8   6 4694.97 870.931   5
   6   8  -5 665.550 311.278   3
   6  -8  -5 403.197 358.804   5
  -6  -8   5 224.962 343.595   5
   6  -8  -4 2808.54 554.808   5
  -6  -8   4 3212.08 708.057   5
   6  -8  -3 484.832 303.473   5
  -6  -8   3 230.298 245.847   5
   6  -8  -2 3685.14 646.659   5
  -6  -8   2 3047.18 666.504   5
  -6  -8   1 159.104 354.408   5
   6  -8  -1-35.0839 426.728   5
  -6  -8   0 5256.29 827.243   5
   6  -8   0 7517.83 929.365   5
   6  -8   1 2334.72 691.588   5
  -6  -8  -1 1712.94 769.755   5
  -6  -8  -2 17593.7 1490.67   5
   6  -8   2 20444.9 1518.46   5
   6  -8   3 3931.00 738.527   5
  -6  -8  -3 3442.15 701.519   5
  -6  -8  -4 928.729 394.470   5
   6  -8   4 328.163 278.379   5
  -6  -8  -5-46.7061 240.349   5
   6  -8   5 101.503 243.575   5
  -6  -8  -6 6970.98 925.865   5
   6  -8   6 9077.18 982.072   5
  -6  -8  -6 7247.07 720.137   4
  -6  -8  -7 1203.24 430.142   5
  -6  -8  -7 926.914 320.133   4
  -6  -8  -8 173.318 191.329   4
  -6  -8  -8 178.586 281.853   5
  -6  -8  -9 1612.05 503.526   5
  -6  -8  -9 4433.93 584.408   4
  -6  -8 -10 12527.0 962.213   4
  -6  -8 -11 406.713 280.786   4
  -6  -8 -12 114.344 184.773   4
  -6  -8 -13 161.727 210.791   4
  -6  -8 -14 5312.97 673.733   4
  -6  -8 -15 289.279 227.370   4
  -6  -8 -16 1869.71 448.487   4
  -6  -8 -17 105.345 206.441   4
  -6  -8 -18 6565.24 800.324   4
  -6  -8 -19 672.280 352.155   4
  -6  -8 -20 1360.23 379.529   4
  -6  -8 -21-264.218 236.224   4
  -6  -8 -22 748.303 358.368   1
  -6  -8 -23 508.293 242.012   1
  -6 -10  16 5474.31 1078.26   5
  -6 -10  15 854.319 572.074   5
  -6 -10  14 1837.91 713.458   5
  -6 -10  13 879.199 639.066   5
  -6 -10  12 4623.58 1031.24   5
  -6 -10  11 651.572 613.628   5
  -6 -10  10 377.695 341.438   5
  -6 -10   9 474.015 404.967   5
  -6 -10   8 4437.89 1027.10   5
  -6 -10   7 2402.43 1036.36   5
  -6 -10   6 6561.88 1232.61   5
  -6 -10   5-307.047 610.565   5
  -6 -10   4 2483.20 704.405   5
  -6 -10   3 372.051 477.589   5
  -6 -10   2 1742.05 631.801   5
  -6 -10   1 995.709 668.344   5
  -6 -10   0 2030.67 696.600   5
  -6 -10  -1 1260.71 721.364   5
  -6 -10  -2 5524.29 1048.03   5
  -6 -10  -3 621.509 508.727   5
  -6 -10  -4 797.210 426.650   5
  -6 -10  -5 591.550 547.797   5
  -6 -10  -6 3234.17 780.545   5
  -6 -10  -7 617.859 469.788   5
  -6 -10  -8-70.5225 248.280   5
  -6 -10  -9 1305.60 556.734   5
  -6 -10 -10 8350.43 1244.84   5
  -6 -10 -11 665.894 483.956   5
  -6 -10 -12-48.9073 189.428   5
  -6 -10 -13-289.347 258.625   5
   7  -1 -38 10.0539 231.058   4
   7   1 -38 54.5005 234.410   4
   7  -1 -37 723.014 334.131   4
   7   1 -37-58.6295 176.483   4
   7  -1 -36 1.05984 168.451   4
   7   1 -36-307.074 236.069   4
   7   1 -35 4005.63 701.332   4
   7  -1 -35 3362.59 589.174   4
   7   1 -34 339.664 288.315   4
   7  -1 -34-200.637 271.827   4
   7   1 -33 2365.56 536.554   4
   7  -1 -33 1399.23 396.761   4
   7  -1 -32-316.530 230.837   4
   7   1 -32 47.5534 167.134   4
   7   1 -31 11813.6 1058.02   4
   7  -1 -31 11158.2 991.924   4
   7  -1 -30 305.890 200.014   4
   7   1 -30 175.891 229.624   4
   7   1 -29 9009.54 881.237   4
   7  -1 -29 10007.2 916.079   4
   7  -1 -28 111.078 161.214   4
   7   1 -28-171.458 191.330   4
   7  -1 -27 1098.72 332.082   4
   7   1 -27 778.023 274.846   4
   7  -1 -26 126.227 125.984   4
   7   1 -26 287.457 224.409   4
   7   1 -25 14520.1 991.042   4
   7  -1 -25 16070.1 1014.11   4
   7  -1 -24 146.248 178.730   4
   7   1 -24 199.924 206.448   4
   7  -1 -23 2621.14 410.861   4
   7   1 -23 2724.10 409.796   4
   7   1 -22 83.1806 135.429   4
   7  -1 -22 278.737 208.215   4
   7  -1 -21 11507.7 765.959   4
   7   1 -21 9732.33 753.211   4
   7  -1 -20 153.273 155.212   4
  -7  -1  19 921.790 83.1353   1
   7  -1 -19 1811.79 312.418   4
   7  -1 -18 156.467 168.447   4
  -7  -1  18-22.1557 23.7893   1
   7  -1 -17 18220.1 826.886   4
  -7  -1  17 11872.9 328.564   1
   7  -1 -16 417.766 165.119   4
   7  -1 -15 1003.96 191.164   4
  -7  -1  14 42.0203 32.5741   2
   7  -1 -14 499.510 209.381   4
   7   1 -14 354.126 200.657   5
   7  -1 -13 49757.0 1159.87   4
   7   1 -13 53273.7 1712.65   5
   7  -1 -12 48.8265 40.2896   2
   7  -1 -12 110.939 111.599   4
   7   1 -12-71.2378 108.658   5
  -7  -1  12-14.3475 122.479   5
  -7  -1  11 2642.52 392.491   5
   7  -1 -11 2560.85 243.043   4
   7   1 -11 2679.37 365.024   5
   7  -1 -11 2408.33 138.134   2
   7  -1 -11 2591.20 259.220   5
   7  -1 -10 116.538 59.0591   2
  -7  -1  10 176.160 165.747   5
   7   1 -10 225.753 155.146   5
   7  -1 -10 259.692 127.873   4
   7  -1 -10 88.3759 82.2562   5
   7  -1  -9 26343.1 674.660   4
  -7  -1   9 27237.3 1181.64   5
   7   1  -9 29008.4 1132.47   5
   7  -1  -9 26424.4 728.312   5
   7  -1  -9 26679.8 519.534   2
  -7  -1   8-90.1818 146.723   5
   7   1  -8-66.1260 109.319   5
   7  -1  -8 4.32340 49.7475   4
   7  -1  -8 29.1842 61.5343   5
  -7  -1   7 429.963 174.461   5
   7   1  -7 307.044 138.378   5
   7  -1  -7 486.257 99.3610   5
   7  -1  -6 5.24608 45.8231   5
  -7  -1   6 82.1791 127.795   5
   7   1  -6 33.5013 84.0808   5
  -7   1   6-50.5098 61.0483   2
   7   1  -5 39298.8 1035.54   5
  -7   1   5 33852.9 787.745   2
  -7  -1   5 37553.2 1044.96   5
  -7  -1   4 49.5112 97.4927   5
   7  -1  -4 89.4414 68.0470   3
  -7  -1   3 55691.6 1139.83   5
   7  -1  -3 56924.0 823.625   3
  -7  -1   2 347.524 83.1866   4
  -7   1   2 360.341 67.7661   3
  -7   1   1 16623.2 465.143   3
  -7  -1   1 16911.3 526.604   4
  -7  -1   1 17619.6 619.862   3
  -7  -1   0 780.675 130.376   3
  -7   1   0 747.970 64.9616   4
  -7  -1   0 699.201 111.108   4
   7  -1   0 655.325 58.1454   4
   7  -1   1 12027.4 288.447   4
  -7  -1  -1 12108.2 453.457   4
  -7   1  -1 11935.9 279.813   4
  -7  -1  -1 12584.7 523.928   3
  -7  -1  -2 432.863 113.788   3
   7  -1   2 281.281 60.7993   4
  -7  -1  -2 563.240 105.777   4
  -7   1  -2 277.318 60.1679   4
  -7  -1  -3 3292.93 256.552   4
   7  -1   3 3027.96 183.985   4
  -7   1  -3 3109.74 186.191   4
   7   1   3 3518.37 267.472   4
  -7   1  -4 12.7830 45.0021   4
   7   1   4 60.0267 66.8876   4
   7  -1   4-16.4264 36.0350   4
  -7  -1  -4-11.7196 73.3592   4
  -7  -1  -5 42703.0 970.180   4
   7  -1   5 43136.7 1291.40   1
   7  -1   5 42059.5 795.227   4
  -7   1  -5 43444.3 813.067   4
   7   1   5 43292.5 989.338   4
   7   1   6 84.3066 44.9638   4
   7  -1   6 25.8507 47.8707   4
  -7   1  -6 100.775 87.7355   4
  -7  -1  -6 75.3944 94.3436   4
   7  -1   6 67.7628 141.862   1
   7  -1   7 958.167 139.223   4
  -7   1  -7 1037.99 154.138   4
  -7  -1  -7 1184.33 270.165   1
   7   1   7 965.067 172.554   4
  -7  -1  -7 1018.69 194.356   4
   7  -1   7 1289.49 260.533   1
   7  -1   8 33.4540 55.5617   4
  -7   1  -8 234.621 97.6130   4
   7   1   8-17.2309 65.2113   4
  -7  -1  -8 33.4844 122.938   1
   7  -1   8 25.6536 84.8911   1
  -7  -1  -8 40.0367 91.7225   4
  -7  -1  -9 22228.9 821.070   4
   7  -1   9 22980.7 749.390   4
  -7  -1  -9 23381.7 1082.44   1
  -7   1  -9 22350.2 735.596   4
  -7   1 -10 164.540 130.356   4
  -7  -1 -10 56.5387 114.788   4
  -7  -1 -10 77.2839 116.710   1
  -7  -1 -11 100.275 160.084   1
  -7  -1 -11 94.5811 142.846   4
  -7   1 -11 135.501 99.2889   4
  -7   1 -12 1174.37 222.792   4
  -7  -1 -12 638.759 270.967   1
  -7  -1 -12 883.270 259.652   4
  -7   1 -13 43527.3 1216.61   4
  -7  -1 -13 43284.3 1577.23   1
  -7  -1 -13 44352.2 1323.22   4
  -7  -1 -14 227.988 202.070   1
  -7   1 -14 508.889 193.505   4
  -7  -1 -14 518.365 246.231   4
  -7   1 -14 841.255 278.508   2
  -7  -1 -15 1261.84 329.903   1
  -7   1 -15 983.521 243.278   4
  -7   1 -15 1177.15 280.713   2
  -7  -1 -15 1284.31 281.271   4
  -7   1 -16 188.266 164.237   2
  -7  -1 -16 129.027 153.813   4
  -7  -1 -16-36.8217 139.304   1
  -7   1 -16 53.9868 112.589   4
  -7   1 -17 10245.8 680.174   4
  -7   1 -17 10645.6 748.167   2
  -7  -1 -17 10432.5 720.137   4
  -7   1 -18 241.105 194.580   2
  -7   1 -18 91.0535 157.891   4
  -7  -1 -18 11.0732 139.667   4
  -7   1 -19 3222.45 443.479   2
  -7  -1 -19 3482.90 443.867   4
  -7   1 -19 3422.70 426.006   4
  -7   1 -20 245.132 178.728   4
  -7   1 -20 85.6606 147.150   2
  -7  -1 -20 345.580 218.444   4
  -7   1 -21 13033.2 884.204   2
  -7  -1 -21 13223.1 904.625   4
  -7   1 -21 12926.5 864.354   4
  -7   1 -22 519.247 223.017   4
  -7   1 -22 453.061 220.449   2
  -7  -1 -22 289.651 244.298   4
  -7   1 -23 9650.29 784.926   2
  -7  -1 -23 8946.82 787.693   4
  -7   1 -23 9670.88 794.793   4
  -7  -1 -24 346.506 206.879   4
  -7   1 -24 132.351 119.436   2
  -7   1 -24 81.4068 124.322   4
  -7   1 -25 2262.23 423.695   4
  -7  -1 -25 2133.47 428.586   4
  -7   1 -25 1950.13 359.883   2
  -7  -1 -26 149.367 189.312   4
  -7   1 -26 35.6996 128.355   4
  -7   1 -26 544.600 249.422   2
  -7   1 -27 7478.95 729.661   2
  -7  -1 -27 8384.64 840.174   4
  -7   1 -27 7222.20 766.387   4
  -7   1 -28 152.419 169.826   4
  -7   1 -28 151.906 148.739   2
  -7  -1 -28 75.1439 164.701   4
  -7  -1 -29 6072.53 758.527   4
  -7   1 -29 5026.36 673.780   4
  -7   1 -29 4899.07 601.398   2
  -7   1 -30 286.263 212.477   4
  -7  -1 -30 1838.04 441.319   4
  -7   1 -31 6677.26 821.031   4
  -7  -1 -31 7151.01 861.594   4
  -7  -1 -32-163.196 201.259   4
  -7   1 -32 413.699 274.131   4
  -7   1 -33 909.788 334.927   4
  -7  -1 -33 50.6661 181.624   4
   7  -3 -37 890.482 315.567   4
   7  -3 -36-56.5932 177.505   4
   7   3 -36 147.009 216.787   4
   7   3 -35 3294.06 643.439   4
   7  -3 -35 2949.76 585.426   4
   7   3 -34 81.6711 221.207   4
   7  -3 -34 158.071 194.976   4
   7   3 -33 1790.94 478.787   4
   7  -3 -33 1521.44 399.057   4
   7  -3 -32 285.743 223.008   4
   7   3 -32 263.196 263.040   4
   7   3 -31 9278.06 969.912   4
   7  -3 -31 8753.38 876.421   4
   7  -3 -30-4.71831 167.931   4
   7   3 -30-228.170 229.355   4
   7  -3 -29 3105.94 494.857   4
   7   3 -29 3657.47 590.234   4
   7  -3 -28 137.021 179.573   4
   7   3 -28 402.094 253.053   4
   7   3 -27 1735.03 427.550   4
   7  -3 -27 2289.83 405.498   4
   7  -3 -26 197.317 153.052   4
   7  -3 -25 15879.3 672.219   1
   7  -3 -25 16667.4 1032.59   4
   7  -3 -24 236.574 101.624   1
   7  -3 -24 422.249 240.230   4
   7  -3 -23 2602.21 271.870   1
   7  -3 -23 2960.00 437.914   4
   7  -3 -22 169.392 174.719   4
   7  -3 -21 18370.4 973.053   4
  -7  -3  20 1263.67 226.271   2
   7  -3 -20 1247.53 286.202   4
  -7  -3  19 1207.63 214.782   2
   7  -3 -19 1420.37 283.937   4
   7  -3 -18 132.431 137.781   4
  -7  -3  18 113.774 69.7763   2
  -7  -3  17 11580.2 648.674   2
  -7  -3  17 12735.6 1087.91   5
   7  -3 -17 12835.6 714.302   4
   7  -3 -16 936.038 218.649   4
  -7  -3  16 817.990 347.962   5
  -7  -3  15 5156.71 706.315   5
   7  -3 -15 4821.39 412.712   4
  -7  -3  14 1440.87 419.313   5
   7  -3 -14 1647.89 277.943   4
   7  -3 -13 32165.7 966.667   4
  -7  -3  13 34346.1 1752.45   5
   7  -3 -12 268.853 145.045   4
  -7   3  12 154.284 85.5862   4
  -7  -3  12 452.608 301.966   5
  -7   3  11 4915.20 343.208   4
   7  -3 -11 4968.69 343.775   4
  -7  -3  11 4531.08 614.820   5
  -7  -3  10 18.3791 187.929   5
  -7   3  10 106.687 88.0380   4
   7  -3 -10 123.146 105.214   4
  -7   3   9 22921.2 672.495   4
  -7  -3   9 22758.6 1266.29   5
   7  -3  -9 22272.8 655.056   4
  -7   3   8 54.1756 69.2093   4
  -7  -3   8 53.0768 149.167   5
   7  -3  -8-70.2405 61.7750   4
  -7  -3   7 3083.45 470.273   5
  -7   3   7 3310.32 227.074   4
   7  -3  -7 3046.71 214.374   4
   7  -3  -6 203.380 85.5913   2
  -7  -3   6 657.315 224.799   5
  -7   3   6 347.768 84.5000   4
   7  -3  -6 333.699 84.0499   4
   7  -3  -5 18633.4 578.982   5
   7  -3  -5 18527.9 441.038   4
  -7  -3   5 18383.3 983.258   5
   7  -3  -5 19781.7 780.505   2
  -7   3   5 18753.5 462.489   4
  -7   3   4 331.045 67.8050   4
  -7  -3   4 598.431 202.177   5
   7  -3  -4 297.066 57.2581   4
   7  -3  -4 124.208 59.1331   5
   7  -3  -4 454.119 154.932   2
   7  -3  -3 14818.0 690.217   2
  -7  -3   3 14305.8 797.693   5
  -7   3   3 14068.3 333.320   4
   7  -3  -3 13632.8 512.121   5
  -7  -3   2 450.661 160.922   5
   7  -3  -2 544.654 149.088   2
   7  -3  -2 331.232 90.2036   5
   7   3  -2 360.274 117.119   3
  -7   3   2 319.948 47.6467   4
  -7   3   1 12046.1 468.070   5
  -7  -3   1 11934.1 573.900   4
  -7   3   1 9827.84 241.783   4
   7   3  -1 10901.2 578.161   3
   7  -3  -1 12191.1 636.685   2
   7  -3  -1 12140.2 465.600   5
  -7   3   0 1007.81 155.493   5
  -7  -3   0 738.186 131.265   4
  -7   3   0 776.233 70.5108   4
   7   3   0 916.944 170.363   3
  -7  -3   0 1166.26 198.208   3
   7  -3   0 946.631 189.452   2
  -7   3  -1 11605.8 625.678   5
  -7  -3  -1 10099.5 548.811   4
  -7   3  -1 9308.67 266.277   4
  -7  -3  -1 10714.9 588.808   3
  -7   3  -2 148.845 133.785   5
  -7  -3  -2-62.9824 104.618   4
  -7  -3  -2-42.6374 76.2262   3
  -7  -3  -3 7960.91 498.813   4
  -7  -3  -3 8845.13 544.074   3
  -7   3  -3 8781.31 658.379   5
  -7  -3  -4 624.234 203.018   4
  -7   3  -4 448.689 189.579   5
  -7   3  -5 64683.9 1917.16   5
  -7  -3  -5 67583.9 1459.17   4
  -7   3  -5 66924.1 999.988   4
  -7   3  -6 800.718 263.234   5
  -7  -3  -6 1016.03 232.052   4
  -7   3  -6 889.268 165.426   4
  -7   3  -7 347.615 92.2850   4
  -7   3  -7 347.548 179.443   2
  -7   3  -7 386.004 191.947   5
  -7   3  -8 21.5885 69.4762   4
  -7  -3  -8 164.183 171.858   4
  -7   3  -8-137.058 162.175   2
  -7   3  -9 12345.9 541.076   4
  -7  -3  -9 11900.6 695.712   4
  -7   3  -9 12658.6 795.391   2
  -7   3 -10 357.389 250.062   2
  -7   3 -10 321.179 125.834   4
  -7  -3 -10 386.211 197.283   4
  -7   3 -11 125.458 104.361   4
  -7   3 -11 142.949 165.681   2
  -7  -3 -11 347.148 204.678   4
  -7   3 -12 1122.87 205.793   4
  -7  -3 -12 1146.41 284.035   1
  -7   3 -12 1682.44 345.645   2
  -7  -3 -12 1195.84 296.297   4
  -7  -3 -13 18217.3 1099.39   1
  -7   3 -13 18237.8 794.860   4
  -7  -3 -13 18339.7 932.006   4
  -7   3 -13 18337.9 1022.56   2
  -7   3 -14 77.4445 126.842   4
  -7  -3 -14-14.2011 144.836   1
  -7  -3 -14 218.340 207.010   4
  -7   3 -14 55.3448 166.503   2
  -7   3 -15 712.235 251.379   2
  -7   3 -15 778.430 215.908   4
  -7  -3 -15 677.570 261.908   4
  -7  -3 -15 331.926 175.030   1
  -7  -3 -16-151.191 190.071   1
  -7   3 -16 33.9696 107.824   4
  -7  -3 -16 144.521 173.306   4
  -7   3 -16 126.047 176.340   2
  -7   3 -17 10124.9 781.041   2
  -7  -3 -17 11109.1 805.307   4
  -7  -3 -17 10226.9 893.846   1
  -7   3 -17 10413.2 698.381   4
  -7  -3 -18 289.433 205.583   1
  -7  -3 -18 348.887 210.505   4
  -7   3 -18 115.173 172.437   2
  -7   3 -18 232.170 159.377   4
  -7   3 -19 3552.58 443.313   4
  -7  -3 -19 3925.77 497.522   4
  -7  -3 -19 3833.30 573.315   1
  -7   3 -19 3618.05 488.370   2
  -7   3 -20 15.8265 128.739   4
  -7   3 -20 164.237 175.074   2
  -7  -3 -20 398.227 273.882   4
  -7  -3 -20-99.0055 181.438   1
  -7  -3 -21 15491.7 1166.65   1
  -7   3 -21 15474.5 943.593   4
  -7  -3 -21 15667.4 1047.28   4
  -7  -3 -22 1343.83 391.133   1
  -7   3 -22 1327.69 344.711   4
  -7  -3 -22 1791.97 392.959   4
  -7   3 -23 7579.21 709.655   4
  -7  -3 -23 7986.63 853.898   1
  -7  -3 -23 8467.68 797.354   4
  -7   3 -24-79.4188 136.656   4
  -7  -3 -24 76.7406 162.139   4
  -7   3 -25 1530.21 325.842   4
  -7  -3 -25 1190.46 339.842   1
  -7  -3 -25 1644.57 373.666   4
  -7   3 -26 17.1697 127.922   4
  -7  -3 -26 27.7976 179.068   4
  -7   3 -27 7083.18 764.151   4
  -7  -3 -27 7552.78 829.027   4
  -7   3 -28 386.036 273.427   4
  -7  -3 -28 597.178 311.133   4
  -7  -3 -29 4991.49 699.373   4
  -7   3 -29 4918.36 667.996   4
  -7   3 -30 187.808 216.865   4
  -7  -3 -30 566.572 278.177   4
  -7   3 -31 5832.16 767.456   4
  -7  -3 -31 6882.11 863.819   4
  -7   3 -32 424.933 245.327   4
  -7   3 -33-190.948 212.646   4
   7  -5 -35 1642.44 419.678   4
   7  -5 -34 207.442 150.694   4
   7   5 -34 652.960 302.975   4
   7   5 -33 2986.97 627.768   4
   7  -5 -33 2933.45 550.466   4
   7  -5 -32 265.417 176.730   4
   7   5 -32 378.514 289.238   4
   7   5 -31 13445.9 1246.56   4
   7  -5 -31 10674.6 1012.84   4
   7  -5 -30 338.802 243.191   4
   7   5 -30 356.176 233.041   4
   7  -5 -29 9299.76 912.538   4
   7  -5 -28 423.816 237.345   4
   7  -5 -27 1075.48 300.407   4
   7  -5 -26 230.664 215.601   4
   7  -5 -25 11555.5 923.568   4
   7  -5 -24 116.698 159.273   4
   7  -5 -23 4814.03 573.547   4
   7  -5 -22-106.288 153.253   4
   7  -5 -21 5483.06 581.633   4
   7  -5 -20 688.364 213.709   4
  -7  -5  20 912.666 387.157   5
   7  -5 -19 335.940 170.641   4
  -7  -5  19 1061.65 451.784   5
  -7  -5  18 652.539 380.549   5
   7  -5 -18 773.222 223.230   4
  -7  -5  17 15697.4 1396.56   5
   7  -5 -17 14072.6 819.524   4
   7  -5 -16 693.818 217.404   4
  -7  -5  16 763.694 396.188   5
  -7  -5  15 371.947 335.158   5
   7  -5 -15 752.234 214.740   4
  -7  -5  14 702.711 402.948   5
   7  -5 -14 650.376 196.675   4
  -7  -5  13 20666.1 1570.08   5
   7  -5 -13 21395.4 890.880   4
  -7  -5  12-330.845 248.479   5
   7  -5 -12 244.628 151.770   4
   7  -5 -11 5544.93 421.812   4
  -7  -5  11 4358.14 698.516   5
   7  -5 -11 5033.05 240.761   3
  -7  -5  10-203.900 259.542   5
   7  -5 -10 226.825 135.358   4
  -7  -5   9 15918.9 1267.12   5
   7  -5  -9 16402.4 671.489   4
  -7  -5   8 189.082 200.054   5
  -7   5   8 104.028 76.1358   4
   7  -5  -8 89.6542 92.4678   4
   7  -5  -8-47.4601 118.146   5
   7  -5  -7 250.806 99.7398   4
  -7   5   7 317.617 100.447   4
  -7  -5   7 425.521 275.403   5
   7  -5  -7 300.194 151.450   5
   7  -5  -6 417.146 141.600   4
  -7  -5   6 69.9333 255.472   5
  -7   5   6 271.936 113.133   4
   7   5  -6 164.408 204.945   3
   7  -5  -6-44.2880 107.443   5
   7  -5  -5 27276.6 1169.00   5
   7  -5  -5 24948.1 723.838   4
  -7  -5   5 24594.1 1427.21   5
   7   5  -5 24169.7 1066.12   3
  -7   5   5 25710.7 750.557   4
   7  -5  -4 2028.30 340.904   5
  -7  -5   4 2333.13 476.551   5
  -7   5   4 2442.54 242.174   4
   7   5  -4 2041.44 335.511   3
   7   5  -3 22878.3 987.520   3
   7  -5  -3 24977.0 1150.26   5
  -7   5   3 23962.3 680.660   4
  -7  -5   3 23098.1 1329.95   5
  -7  -5   2-258.189 275.883   5
  -7   5   2 51.2216 64.8662   4
   7  -5  -2-249.423 192.053   5
  -7   5   1 7891.68 377.680   4
   7  -5  -1 8542.97 692.036   5
  -7  -5   1 7284.25 722.250   5
   7  -5   0 381.091 161.235   5
  -7  -5   0-43.9609 225.005   5
  -7  -5   0 592.139 189.215   4
  -7   5   0 276.794 60.8641   4
  -7  -5  -1 7689.77 562.104   4
  -7  -5  -1 6258.40 654.609   5
  -7   5  -1 7389.26 369.559   4
   7  -5   1 8209.22 658.120   5
   7  -5   2 365.058 197.922   5
  -7  -5  -2 129.553 144.553   4
  -7   5  -2 140.149 107.483   5
  -7   5  -2 295.336 92.8706   4
  -7   5  -3 2209.98 214.952   4
  -7  -5  -3 2108.59 323.940   4
   7  -5   3 1948.85 320.245   5
  -7   5  -4 260.817 96.5679   4
  -7  -5  -4 193.857 157.812   4
  -7  -5  -5 13561.2 792.854   4
  -7   5  -5 13643.1 559.860   4
  -7   5  -6 190.501 104.144   4
  -7  -5  -6 234.622 196.773   4
  -7  -5  -7 805.282 245.686   4
  -7  -5  -8 88.4821 187.943   4
  -7  -5  -9 8432.17 648.921   4
  -7  -5 -10 113.320 166.028   4
  -7  -5 -11 234.441 166.439   4
  -7   5 -12 1735.11 270.928   4
  -7  -5 -12 1786.72 415.414   4
  -7  -5 -13 30509.0 1326.90   4
  -7   5 -13 32614.7 1127.64   4
  -7   5 -14 407.673 187.281   4
  -7  -5 -14 649.715 298.609   4
  -7   5 -15 1527.97 278.375   4
  -7  -5 -15 1993.84 390.737   4
  -7   5 -16 208.110 140.754   4
  -7  -5 -16 106.211 153.306   4
  -7  -5 -17 8354.99 893.127   1
  -7   5 -17 9297.46 679.707   4
  -7  -5 -17 8788.09 776.068   4
  -7   5 -18 873.681 232.755   4
  -7  -5 -18 1364.21 390.381   1
  -7  -5 -18 1047.93 339.981   4
  -7   5 -19 1417.26 290.535   4
  -7  -5 -19 1505.13 382.581   1
  -7  -5 -19 1601.52 394.335   4
  -7   5 -20 13.2421 107.646   4
  -7  -5 -20-136.965 157.828   1
  -7  -5 -20 55.4228 208.751   4
  -7  -5 -21 7619.21 883.022   1
  -7   5 -21 8343.50 719.467   4
  -7  -5 -21 8350.75 818.370   4
  -7  -5 -22 761.015 275.847   1
  -7   5 -22 1060.49 281.768   4
  -7  -5 -22 902.475 313.650   4
  -7  -5 -23 3462.55 633.701   1
  -7   5 -23 3378.71 496.783   4
  -7  -5 -23 3490.63 562.292   4
  -7  -5 -24-326.969 258.118   1
  -7   5 -24 123.747 139.923   4
  -7  -5 -24 31.2868 188.510   4
  -7   5 -25 1285.09 329.974   4
  -7  -5 -25 687.805 299.048   1
  -7  -5 -25 1021.29 339.691   4
  -7   5 -26 138.945 151.263   4
  -7  -5 -26 477.567 274.860   4
  -7  -5 -26-38.2756 268.696   1
  -7  -5 -27 5967.53 839.878   1
  -7  -5 -27 6540.90 816.327   4
  -7   5 -27 7098.27 768.122   4
  -7   5 -28 188.616 158.546   4
  -7  -5 -28 407.299 293.891   4
   7  -7 -31 6399.03 839.613   4
   7  -7 -30 3778.42 681.487   4
   7  -7 -29 1781.11 446.677   4
   7  -7 -28 606.146 296.342   4
   7  -7 -27 524.990 261.227   4
   7  -7 -26 782.916 322.924   4
   7  -7 -25 11702.9 1016.23   4
   7  -7 -24 142.807 205.503   4
   7  -7 -23 4310.63 581.523   4
   7  -7 -22 1133.10 312.459   4
  -7  -7  21 9424.79 1209.73   5
   7  -7 -21 9418.34 822.584   4
   7  -7 -20 1129.50 300.089   4
  -7  -7  20 869.812 464.876   5
  -7  -7  19 243.304 294.662   5
   7  -7 -19 828.728 243.729   4
  -7  -7  18 461.999 331.651   5
   7  -7 -18 141.428 123.059   4
  -7  -7  17 10863.7 1308.58   5
   7  -7 -17 11452.4 810.207   4
   7  -7 -16-119.170 131.682   4
  -7  -7  16 474.086 420.239   5
  -7  -7  15 1360.29 486.271   5
   7  -7 -15 1567.76 305.187   4
   7  -7 -14 994.488 243.564   4
  -7  -7  14 631.114 351.827   5
  -7  -7  13 10635.9 1316.72   5
   7  -7 -13 11766.3 755.629   4
   7  -7 -13 10846.8 866.321   5
   7  -7 -12 272.121 184.653   5
  -7  -7  12 467.050 415.895   5
   7  -7 -12 353.716 172.015   4
   7  -7 -11 4429.31 566.504   5
   7  -7 -11 4976.91 471.025   4
  -7  -7  11 4249.77 823.465   5
   7  -7 -10-186.059 146.598   5
   7  -7 -10 4.98128 103.751   4
   7   7 -10-73.9764 177.969   3
  -7  -7  10 179.868 347.013   5
   7  -7  -9 14194.0 752.325   4
  -7  -7   9 13983.3 1409.54   5
   7  -7  -9 14352.4 1039.61   5
   7   7  -9 12941.5 963.563   3
  -7  -7   8 621.813 305.834   5
   7  -7  -8 939.620 219.875   4
   7  -7  -8 781.576 300.535   5
   7   7  -8 836.775 308.681   3
   7   7  -7 1181.03 282.760   3
   7  -7  -7 1723.33 394.832   5
  -7  -7   7 1325.81 473.513   5
   7  -7  -6-109.624 169.060   5
   7   7  -6 220.088 224.936   3
   7  -7  -5 10037.5 930.767   5
   7   7  -5 9478.36 748.860   3
  -7  -7   5 10347.2 1152.08   5
   7  -7  -4 580.910 332.559   5
  -7  -7   4 766.399 479.324   5
   7   7  -4 1224.91 352.666   3
   7   7  -3 9155.19 691.311   3
   7  -7  -3 11317.3 994.084   5
  -7  -7   3 9477.98 1041.85   5
  -7  -7   2 215.453 319.233   5
   7  -7  -2-446.509 332.477   5
   7  -7  -1 4605.86 685.681   5
  -7  -7   1 3794.37 644.643   5
  -7  -7   0 204.887 200.843   5
   7  -7   0 766.705 390.853   5
   7  -7   1 5561.80 723.806   5
  -7  -7  -1 4701.60 709.700   5
   7  -7   2-24.5927 161.779   5
  -7  -7  -2 104.200 285.868   5
  -7  -7  -3 2813.40 545.261   5
   7  -7   3 3710.43 576.605   5
   7  -7   4 1208.55 401.919   5
  -7  -7  -4 2469.08 729.226   5
  -7  -7  -4 1839.13 529.977   4
  -7  -7  -5 23505.3 1529.44   5
  -7  -7  -5 24128.4 1202.39   4
   7  -7   5 28306.7 1499.84   5
  -7  -7  -6 478.782 338.497   4
  -7  -7  -7 743.064 241.217   4
  -7  -7  -8 261.257 238.678   4
  -7  -7  -9 6802.16 677.455   4
  -7  -7 -10-3.03138 177.468   4
  -7  -7 -11 112.838 175.449   4
  -7  -7 -12 758.446 304.794   4
  -7  -7 -13 9531.09 850.247   4
  -7   7 -14 438.920 174.966   4
  -7  -7 -14 849.075 328.070   4
  -7  -7 -15 592.047 228.185   4
  -7  -7 -16-167.347 169.711   4
  -7  -7 -17 5926.37 707.661   4
  -7  -7 -18 872.191 307.258   4
  -7  -7 -19 1536.72 396.035   4
  -7  -7 -20-24.6334 143.502   4
  -7  -7 -21 10425.3 994.928   4
  -7  -7 -21 11041.8 1224.07   1
  -7  -7 -22 874.773 357.790   4
  -7  -7 -22 629.664 353.525   1
  -7  -7 -23 3567.15 614.268   4
  -7  -7 -23 2721.69 608.863   1
  -7  -7 -24-147.492 179.184   1
  -7  -7 -25 184.984 159.353   1
  -7  -9  20 1364.85 586.161   5
  -7  -9  19 709.452 411.993   5
  -7  -9  18 913.496 533.598   5
  -7  -9  17 10486.5 1448.99   5
  -7  -9  16 763.890 492.104   5
  -7  -9  15 182.641 374.897   5
  -7  -9  14 1364.93 573.055   5
  -7  -9  13 9071.92 1410.46   5
  -7  -9  12 946.036 675.817   5
  -7  -9  11 2877.32 832.363   5
  -7  -9  10-487.709 406.392   5
  -7  -9   9 5807.92 1075.33   5
  -7  -9   8 972.038 520.738   5
  -7  -9   7 641.125 328.779   5
  -7  -9   6-496.491 305.102   5
  -7  -9   5 4983.64 968.479   5
  -7  -9   4 2112.67 807.673   5
  -7  -9   3 9357.53 1274.71   5
  -7  -9   2 492.428 678.612   5
  -7  -9   1 3530.88 814.125   5
  -7  -9   0 1288.64 645.605   5
  -7  -9  -1 5433.59 955.804   5
  -7  -9  -2-31.1929 371.207   5
  -7  -9  -3 1437.86 560.730   5
  -7  -9  -4 2064.30 607.817   5
  -7  -9  -5 12769.9 1391.47   5
  -7  -9  -6 745.116 455.004   5
  -7  -9  -7 659.655 356.683   5
  -7  -9  -8 638.829 423.548   5
  -7  -9  -9 3514.56 557.914   4
  -7  -9  -9 3924.43 763.961   5
  -7  -9 -10 217.798 356.947   5
  -7  -9 -10 308.570 236.152   4
  -7  -9 -11 442.725 264.464   4
  -7  -9 -11 1188.32 504.898   5
  -7  -9 -12 1530.17 612.192   5
  -7  -9 -12 998.995 349.667   4
  -7  -9 -13 10194.3 976.787   4
  -7  -9 -13 9080.74 1184.71   5
  -7  -9 -14 367.405 314.454   4
  -7  -9 -14 1059.81 514.366   5
  -7  -9 -15 260.453 250.668   4
  -7  -9 -16 94.3470 172.985   4
   8   0 -38 623.644 339.733   4
   8   0 -37 334.846 270.557   4
   8   0 -36 14416.3 1275.04   4
   8   0 -35 545.298 311.631   4
   8   0 -34 2399.51 511.637   4
   8   0 -33-34.1479 186.404   4
   8   0 -32 4259.74 629.609   4
   8   0 -31 224.228 248.956   4
   8   0 -30 5302.88 693.681   4
   8   0 -29 84.7260 213.459   4
   8   0 -28 9617.66 867.479   4
   8   0 -27-71.5297 173.671   4
   8   0 -26 4628.35 579.248   4
   8   0 -25 116.832 185.677   4
   8   0 -24 1986.68 365.151   4
   8   0 -23 177.059 230.955   4
   8   0 -22 9073.83 705.441   4
   8   0 -21 141.773 163.161   4
   8   0 -20 6082.57 546.240   4
   8   0 -19-231.371 119.981   4
   8   0 -18 15080.9 811.478   4
   8   0 -17 22.1873 108.376   4
   8   0 -15 23.1607 102.739   5
   8   0 -14 26258.3 1121.29   5
   8   0 -13-29.0921 101.074   5
   8   0 -12 218.101 129.203   5
   8   0 -11-3.16540 82.8230   5
   8   0 -10 53202.4 1369.60   5
  -8   0  10 53138.5 1366.62   5
   8   0  -9-107.966 84.1027   5
  -8   0   9-12.1559 85.6300   5
   8   0  -8 36757.7 1046.79   5
  -8   0   8 40329.9 1185.28   5
   8   0  -7 31.7516 57.7478   1
  -8   0   7-147.179 120.829   5
   8   0  -7-67.2731 82.9468   5
  -8   0   6 48482.5 1118.94   5
  -8   0   6 46197.4 921.031   1
   8   0  -6 47500.4 1018.48   5
   8   0  -6 46902.1 887.521   1
  -8   0   5-104.051 87.2578   5
   8   0  -5 0.64993 55.6276   1
  -8   0   4 248.353 84.1684   5
   8   0  -4 273.789 101.883   3
   8   0  -4 268.050 92.2229   1
   8   0  -3-28.0486 46.7685   4
   8   0  -3 22.2958 78.4635   1
   8   0  -3 26.2523 70.0931   3
   8   0  -2 9013.34 319.930   4
  -8   0   2 9577.59 435.134   3
   8   0  -2 9720.27 495.578   1
   8   0  -1 36.6165 102.245   1
  -8   0   1-12.5825 46.8460   4
   8   0  -1-36.7602 34.5080   4
  -8   0   1-45.5107 60.8879   3
  -8   0   0 24511.3 541.814   4
   8   0   0 24690.8 854.698   1
  -8   0   0 25079.5 703.152   3
   8   0   0 24154.6 548.533   4
   8   0   1 109.012 120.198   1
  -8   0  -1-14.5840 49.7120   4
   8   0   1 34.6246 49.1991   4
   8   0   2 599.249 164.883   1
  -8   0  -2 551.170 97.9180   4
   8   0   2 577.956 100.484   4
  -8   0  -3-12.2191 53.2139   4
   8   0   3-57.0364 73.2339   1
   8   0   3-6.37811 40.3359   4
   8   0   4 10840.1 651.033   1
  -8   0  -4 10329.4 428.651   4
   8   0   4 10773.9 444.272   4
   8   0   5-13.8323 39.5275   4
  -8   0  -5-70.0530 81.2918   4
   8   0   5 62.8548 66.4697   1
   8   0   6 16072.1 586.895   4
  -8   0  -6 16593.4 605.965   4
   8   0   6 15607.2 818.428   1
   8   0   7 61.0486 46.0346   4
  -8   0  -7 7.02221 89.5241   4
   8   0   7-35.6210 79.2629   1
   8   0   8 41331.2 1056.27   4
  -8   0  -8 42300.5 1056.48   4
  -8   0  -9 249.282 157.164   4
   8   0   9 10.9708 73.5419   4
  -8   0 -10 2298.29 285.523   4
  -8   0 -11 100.346 131.144   4
  -8   0 -12 21338.0 867.333   4
  -8   0 -13 115.127 148.261   4
  -8   0 -14 771.658 216.602   4
  -8   0 -15 318.205 211.365   4
  -8   0 -16 31870.7 1209.06   4
  -8   0 -17 576.124 240.711   4
  -8   0 -18 3688.45 465.248   4
  -8   0 -19 47.5830 144.377   4
  -8   0 -20 8937.81 727.196   4
  -8   0 -21-37.9513 149.529   4
  -8   0 -22 2269.35 403.472   4
  -8   0 -23 114.660 177.144   4
  -8   0 -24 7697.96 724.600   2
  -8   0 -24 8466.84 849.481   4
  -8   0 -25 28.2217 162.867   2
  -8   0 -25 54.4642 146.229   4
  -8   0 -26 3635.79 514.199   2
  -8   0 -26 3860.56 563.588   4
  -8   0 -27-26.7163 136.846   2
  -8   0 -27 348.621 209.362   4
  -8   0 -28 1039.90 276.268   2
  -8   0 -28 1565.19 380.753   4
  -8   0 -29 49.5678 144.871   4
  -8   0 -29 136.069 157.368   2
  -8   0 -30 6154.58 783.993   4
  -8   0 -31 256.467 194.748   4
  -8   0 -32 9309.86 981.103   4
   8  -2 -38 274.433 199.549   4
   8   2 -37 167.057 199.549   4
   8  -2 -37 16.5513 155.097   4
   8   2 -36 14312.5 1324.91   4
   8  -2 -36 12423.0 1183.51   4
   8   2 -35 146.433 232.851   4
   8  -2 -35 96.6508 207.486   4
   8  -2 -34 1416.15 389.318   4
   8   2 -34 1173.73 414.259   4
   8   2 -33 123.496 219.506   4
   8  -2 -33 7.76297 142.242   4
   8  -2 -32 1417.85 373.624   4
   8   2 -32 2554.66 547.416   4
   8   2 -31 54.4345 211.659   4
   8  -2 -31 42.7806 175.727   4
   8   2 -30 4575.18 665.696   4
   8  -2 -30 4286.98 607.721   4
   8  -2 -29 211.069 207.114   4
   8   2 -29 354.343 284.655   4
   8   2 -28 11005.0 974.435   4
   8  -2 -28 10247.8 878.152   4
   8  -2 -27 316.075 185.236   4
   8   2 -27 220.193 177.014   4
   8   2 -26 5151.06 655.049   4
   8  -2 -26 4510.47 568.060   4
   8  -2 -25-95.4680 153.768   4
   8   2 -25 1.86690 145.551   4
   8  -2 -24 3174.14 437.631   4
  -8  -2  24 2052.69 198.119   1
  -8  -2  23 149.739 73.7714   1
   8  -2 -23 213.715 160.474   4
   8  -2 -22 8915.55 334.600   1
   8  -2 -22 11789.2 784.045   4
   8  -2 -21-19.0914 146.045   4
   8  -2 -21 116.719 46.2378   1
   8  -2 -20 4962.68 269.979   1
   8  -2 -20 5523.02 513.561   4
   8  -2 -19 138.070 170.192   4
   8  -2 -18 23898.6 985.891   4
  -8  -2  18 26888.7 775.411   2
  -8  -2  17 89.7414 67.8598   2
   8  -2 -17 331.208 163.009   4
   8  -2 -16 1626.74 256.434   4
  -8  -2  16 908.827 126.396   2
  -8  -2  16 1881.59 436.164   5
   8  -2 -15 361.020 170.146   4
  -8  -2  15 241.777 204.710   5
   8  -2 -14 32066.6 967.382   4
   8  -2 -14 33960.2 754.262   2
  -8  -2  14 36583.5 1671.32   5
   8  -2 -13 442.295 159.291   4
  -8  -2  13 182.002 227.018   5
   8  -2 -13 311.785 98.6609   2
   8  -2 -12 2633.11 262.165   4
   8  -2 -12 2854.17 224.124   2
  -8  -2  12 2804.39 465.923   5
  -8  -2  11-55.9090 160.777   5
   8  -2 -11 66.6665 70.7601   2
   8  -2 -10 20691.7 622.240   2
  -8  -2  10 21104.3 1173.34   5
   8  -2 -10 21923.3 648.010   4
  -8  -2   9 150.866 169.379   5
   8  -2  -9 457.923 132.073   4
   8  -2  -9 257.516 107.167   2
   8  -2  -8 21128.8 657.513   2
   8  -2  -8 21346.0 554.650   4
  -8  -2   8 22083.4 1100.12   5
   8  -2  -7 390.011 89.0325   4
  -8  -2   7 346.468 174.815   5
   8  -2  -7 326.588 107.917   2
   8  -2  -6 16443.3 607.560   2
   8  -2  -6 16375.6 390.019   4
  -8  -2   6 16027.9 845.649   5
  -8  -2   5-81.3824 161.306   5
   8  -2  -5 160.331 37.9738   4
   8  -2  -5 168.094 88.9906   2
   8  -2  -5 96.0564 41.3036   3
  -8  -2   4 2568.78 325.025   5
   8  -2  -4 2748.89 268.702   2
   8  -2  -4 2052.63 95.5221   4
  -8  -2   3 38.7049 85.1235   5
   8  -2  -3 96.3686 110.389   2
   8  -2  -2 18763.6 721.928   2
  -8  -2   2 18126.9 639.498   4
  -8   2   2 18291.9 456.587   3
  -8   2   2 14447.3 379.496   5
  -8   2   1 144.744 75.0032   3
   8  -2  -1 81.9133 109.932   2
  -8  -2   1 13.4825 102.170   4
  -8   2   1 43.9732 59.6765   5
  -8  -2   1 28.9678 81.9057   3
  -8  -2   0 39601.5 967.107   4
  -8   2   0 35235.0 866.106   5
  -8  -2   0 39779.9 1078.36   3
  -8  -2  -1 169.655 89.6825   4
  -8   2  -1 180.426 34.8953   4
  -8  -2  -1 164.211 80.9449   3
  -8   2  -1 333.269 107.473   5
  -8  -2  -2 15099.1 615.724   4
  -8   2  -2 15527.7 636.414   5
  -8   2  -2 14483.8 318.771   4
  -8  -2  -2 16146.6 692.372   3
  -8  -2  -3 74.1656 82.7938   3
  -8  -2  -3 99.4782 97.3667   4
  -8   2  -3 148.958 50.6719   4
  -8  -2  -4 8860.99 493.236   4
  -8  -2  -4 9265.80 535.082   3
  -8   2  -4 8836.37 326.018   4
  -8   2  -5 949.383 127.966   4
  -8  -2  -5 1045.42 202.643   4
  -8   2  -6 8993.05 390.466   4
  -8  -2  -6 9510.17 544.539   4
  -8   2  -7 1856.87 372.058   2
  -8  -2  -7 1324.35 238.537   4
  -8  -2  -7 1276.49 273.896   1
  -8   2  -7 1375.68 177.916   4
  -8   2  -8 32541.3 1239.14   2
  -8  -2  -8 31327.5 1291.53   1
  -8  -2  -8 32034.3 1032.11   4
  -8   2  -8 32105.2 824.646   4
  -8   2  -9 279.471 122.440   4
  -8  -2  -9 50.9284 97.7402   4
  -8  -2  -9 7.05498 141.732   1
  -8   2 -10 735.638 167.631   4
  -8   2 -10 662.893 263.044   2
  -8  -2 -10 524.071 193.728   4
  -8  -2 -10 747.756 281.280   1
  -8  -2 -11-58.0127 147.993   1
  -8   2 -11 93.7658 83.6261   4
  -8  -2 -11 11.7387 142.615   4
  -8   2 -12 13104.2 826.652   2
  -8  -2 -12 13429.9 929.286   1
  -8  -2 -12 13714.8 759.757   4
  -8   2 -12 12670.5 626.852   4
  -8   2 -13 284.601 132.090   4
  -8  -2 -13 408.836 244.100   1
  -8   2 -13 248.128 132.338   2
  -8  -2 -13 255.272 148.747   4
  -8   2 -14 155.364 114.410   4
  -8  -2 -14 234.441 224.830   1
  -8   2 -14 236.517 213.877   2
  -8  -2 -14 84.5859 124.043   4
  -8   2 -15 359.531 132.079   4
  -8   2 -15 764.611 264.562   2
  -8  -2 -15 689.642 287.967   1
  -8  -2 -15 639.106 229.006   4
  -8  -2 -16 20189.9 1235.62   1
  -8   2 -16 20724.8 1089.04   2
  -8  -2 -16 20439.2 1042.80   4
  -8   2 -16 20110.3 923.687   4
  -8   2 -17 186.526 115.934   4
  -8   2 -17 104.387 189.758   2
  -8  -2 -17 311.576 272.282   1
  -8  -2 -17 216.582 187.168   4
  -8   2 -18 1671.92 306.047   4
  -8   2 -18 2074.35 390.437   2
  -8  -2 -18 1559.44 399.788   1
  -8  -2 -18 1938.32 369.176   4
  -8   2 -19-95.0565 136.340   4
  -8  -2 -19 103.503 166.033   1
  -8   2 -19 47.0597 161.141   2
  -8  -2 -19 42.1540 143.967   4
  -8   2 -20 6814.32 663.937   2
  -8  -2 -20 6704.98 726.597   1
  -8  -2 -20 6355.93 638.775   4
  -8   2 -20 5885.58 577.186   4
  -8   2 -21 115.830 122.305   4
  -8   2 -21-12.0833 146.725   2
  -8  -2 -21-133.455 235.070   1
  -8  -2 -21-218.282 243.914   4
  -8  -2 -22 5375.62 628.001   4
  -8   2 -22 4583.28 528.343   4
  -8   2 -22 5123.04 604.251   2
  -8   2 -23 186.749 143.875   4
  -8   2 -23 423.570 242.046   2
  -8  -2 -23 401.860 212.148   4
  -8  -2 -24 14812.8 1064.61   4
  -8   2 -24 14270.2 982.358   4
  -8   2 -24 15624.7 1061.40   2
  -8  -2 -25 478.607 250.945   4
  -8   2 -25 202.654 176.830   2
  -8   2 -25 241.453 214.820   4
  -8   2 -26 5460.66 654.142   2
  -8  -2 -26 5664.00 714.648   4
  -8   2 -26 5200.48 646.778   4
  -8   2 -27 268.780 202.540   4
  -8   2 -27 221.841 163.770   2
  -8  -2 -27 112.786 161.937   4
  -8   2 -28 2809.95 487.120   4
  -8  -2 -28 3238.01 566.264   4
  -8   2 -28 2997.87 494.820   2
  -8   2 -29 530.384 229.043   2
  -8   2 -29 311.526 172.888   4
  -8  -2 -29 570.804 236.702   4
  -8   2 -30 3575.24 587.041   4
  -8  -2 -30 4579.87 686.286   4
  -8   2 -31 354.111 188.546   4
  -8  -2 -31 89.4586 154.081   4
  -8   2 -32 4120.46 658.934   4
  -8   2 -33 392.571 246.703   4
   8   4 -36 14858.8 1414.79   4
   8  -4 -36 11354.1 1120.49   4
   8  -4 -35 258.063 224.929   4
   8   4 -35-343.482 348.277   4
   8   4 -34 1689.41 480.171   4
   8  -4 -34 890.973 271.998   4
   8   4 -33-290.570 272.409   4
   8  -4 -33 252.966 259.347   4
   8  -4 -32 1191.43 340.811   4
   8   4 -32 2558.54 561.644   4
   8  -4 -31 188.034 207.519   4
   8   4 -31-61.7494 213.043   4
   8   4 -30 4532.07 725.676   4
   8  -4 -30 3344.81 544.170   4
   8  -4 -29 1081.43 332.218   4
   8   4 -29 250.205 285.807   4
   8  -4 -28 9075.85 848.122   4
   8  -4 -27 992.077 302.887   4
   8  -4 -26 7202.38 716.327   4
   8  -4 -25 124.153 188.528   4
   8  -4 -24 2318.20 422.922   4
   8  -4 -23 67.5209 117.750   4
   8  -4 -22 16035.9 951.658   4
   8  -4 -21 261.992 226.186   4
  -8  -4  20 9275.16 1035.29   5
   8  -4 -20 9300.67 694.900   4
  -8  -4  19 323.031 285.057   5
   8  -4 -19 89.5406 128.307   4
   8  -4 -18 12411.6 743.566   4
  -8  -4  18 12411.6 1172.00   5
  -8  -4  17 172.954 304.115   5
   8  -4 -17 203.026 159.324   4
  -8  -4  16 458.835 374.436   5
   8  -4 -16 602.024 191.526   4
  -8  -4  15 429.964 329.608   5
   8  -4 -15 22.8532 105.618   4
   8  -4 -14 22119.1 855.497   4
  -8  -4  14 21529.1 1513.64   5
  -8  -4  13 37.5896 267.754   5
   8  -4 -13 514.073 161.823   4
  -8  -4  12 1090.37 345.760   5
   8  -4 -12 1028.76 197.188   4
  -8   4  11 536.639 148.485   4
   8  -4 -11 427.928 151.140   4
  -8  -4  11-43.4175 233.593   5
  -8   4  10 25151.5 782.211   4
   8  -4 -10 24569.9 763.963   4
  -8  -4  10 21526.0 1389.77   5
  -8   4   9 717.643 151.620   4
  -8  -4   9 798.261 338.612   5
   8  -4  -9 829.152 151.186   4
   8  -4  -8 17014.9 569.457   4
  -8  -4   8 17642.6 1195.39   5
  -8   4   8 17866.2 602.617   4
  -8  -4   7-110.668 257.037   5
  -8   4   7 189.796 89.3439   4
   8  -4  -7 29.9493 77.7418   5
   8  -4  -7 175.076 91.5683   4
  -8  -4   6 18742.1 1133.65   5
   8  -4  -6 20368.7 762.959   5
   8  -4  -6 19936.6 554.511   4
  -8   4   6 20399.2 574.242   4
   8  -4  -5 206.643 97.6522   5
  -8  -4   5 451.859 169.063   5
  -8   4   5 596.180 113.000   4
   8  -4  -5 487.669 82.4833   4
  -8   4   4 810.309 100.568   4
   8  -4  -4 683.848 140.348   5
  -8  -4   4 605.822 172.180   5
  -8  -4   3 322.834 200.744   5
  -8   4   3 554.257 83.4235   4
   8  -4  -3 552.282 144.050   5
  -8  -4   2 10947.7 819.351   5
  -8   4   2 10454.6 325.954   4
   8  -4  -2 10746.2 559.456   5
  -8  -4   1 266.654 217.408   5
  -8  -4   1 341.693 192.862   4
   8  -4  -1 289.695 119.764   5
  -8   4   1 212.346 52.2607   4
  -8   4   0 24818.8 833.208   5
  -8  -4   0 23675.5 921.797   4
  -8   4   0 21931.5 462.307   4
  -8   4  -1 790.911 174.263   5
  -8   4  -1 746.334 95.2631   4
  -8  -4  -1 810.776 217.021   4
  -8   4  -2 11674.6 375.378   4
  -8  -4  -2 12054.5 680.889   4
  -8   4  -2 13772.7 769.698   5
  -8   4  -3 18.2604 122.090   5
  -8   4  -3 4.98598 36.6708   4
  -8  -4  -3 11.9582 111.623   4
  -8  -4  -4 6309.13 500.593   4
  -8   4  -4 7535.70 682.461   5
  -8   4  -5 447.232 241.451   5
  -8  -4  -5 103.342 155.431   4
  -8  -4  -6 8593.55 612.428   4
  -8   4  -7 2272.13 228.370   4
  -8  -4  -7 2617.29 373.418   4
  -8   4  -8 24439.3 745.794   4
  -8  -4  -8 24282.5 1041.15   4
  -8   4  -9 111.576 102.509   4
  -8  -4  -9 194.274 191.253   4
  -8   4 -10 806.929 178.603   4
  -8  -4 -10 1203.44 292.878   4
  -8   4 -11 77.4469 107.646   4
  -8  -4 -11-25.2768 187.859   4
  -8  -4 -12 9071.48 688.438   4
  -8   4 -12 8600.61 529.681   4
  -8   4 -13 1043.12 200.848   4
  -8  -4 -13 1198.76 283.391   4
  -8   4 -14 312.881 160.913   4
  -8  -4 -14 449.957 215.406   4
  -8  -4 -14 232.252 201.043   1
  -8   4 -15 580.537 187.073   4
  -8  -4 -15 168.719 211.651   1
  -8  -4 -15 697.893 279.351   4
  -8  -4 -16 22166.3 1172.09   4
  -8   4 -16 22218.4 990.838   4
  -8  -4 -16 20736.5 1355.36   1
  -8  -4 -17 141.518 209.825   4
  -8  -4 -17 395.421 285.372   1
  -8   4 -17 169.176 139.144   4
  -8  -4 -18 1583.13 429.302   1
  -8  -4 -18 1615.18 386.225   4
  -8   4 -18 1706.24 323.987   4
  -8  -4 -19-219.238 246.282   1
  -8  -4 -19-77.0281 170.948   4
  -8   4 -19-48.6159 99.1761   4
  -8   4 -20 5367.99 549.278   4
  -8  -4 -20 5041.38 701.197   1
  -8  -4 -20 5220.56 640.828   4
  -8   4 -21 495.971 198.599   4
  -8  -4 -21-113.535 233.015   1
  -8  -4 -21 366.564 269.923   4
  -8  -4 -22 4341.33 689.919   1
  -8   4 -22 4473.03 533.577   4
  -8  -4 -22 3795.75 564.529   4
  -8  -4 -23 92.7197 167.131   1
  -8  -4 -23 378.014 206.979   4
  -8   4 -23 490.371 260.023   4
  -8   4 -24 10292.9 849.549   4
  -8  -4 -24 10337.3 1049.66   1
  -8  -4 -24 10727.3 968.061   4
  -8   4 -25 411.065 185.416   4
  -8  -4 -25 663.548 257.393   4
  -8  -4 -25 242.100 241.320   1
  -8   4 -26 2653.32 475.459   4
  -8  -4 -26 3022.66 595.229   1
  -8  -4 -26 2794.64 520.689   4
  -8   4 -27 182.856 202.351   4
  -8  -4 -27 596.073 281.236   4
  -8  -4 -27 143.437 212.959   1
  -8  -4 -28 1641.30 418.145   4
  -8   4 -28 1885.48 415.719   4
  -8   4 -29 481.499 199.971   4
  -8  -4 -29 918.850 359.911   4
  -8   4 -30 3709.47 596.397   4
  -8   4 -31 55.2570 126.032   4
   8  -6 -33 157.668 229.378   4
   8   6 -32 2506.38 598.895   4
   8  -6 -32 1388.33 410.429   4
   8  -6 -31 575.112 281.795   4
   8  -6 -30 3688.89 622.419   4
   8  -6 -29-290.418 251.469   4
   8  -6 -28 7275.64 808.608   4
   8  -6 -27 1229.01 335.782   4
   8  -6 -26 5033.70 653.054   4
   8  -6 -25 470.845 217.235   4
   8  -6 -24 1044.04 296.035   4
   8  -6 -23 790.801 273.306   4
   8  -6 -22 9238.93 791.330   4
   8  -6 -21 115.391 162.426   4
  -8  -6  21-38.9211 244.886   5
   8  -6 -20 6200.32 613.008   4
  -8  -6  20 6648.39 974.759   5
   8  -6 -19 744.820 226.093   4
  -8  -6  19 1084.95 435.956   5
   8  -6 -18 9104.80 702.760   4
  -8  -6  18 9146.38 1155.51   5
  -8  -6  17 150.569 309.911   5
   8  -6 -17 129.018 152.585   4
  -8  -6  16 699.436 399.835   5
   8  -6 -16 292.185 138.550   4
   8  -6 -15 18.9095 117.007   4
  -8  -6  15 197.327 231.532   5
   8  -6 -14 15411.5 802.547   4
  -8  -6  14 13918.1 1385.18   5
   8  -6 -13 562.440 188.781   4
  -8  -6  13 835.464 403.004   5
  -8  -6  12-329.423 299.002   5
   8  -6 -12 261.901 153.434   4
   8  -6 -11 186.822 139.265   5
  -8  -6  11 371.282 322.867   5
   8  -6 -11 449.519 163.923   4
   8  -6 -10 18998.1 1010.96   5
   8  -6 -10 19244.2 806.055   4
  -8  -6  10 17871.7 1499.50   5
   8  -6  -9 851.848 196.241   4
   8  -6  -9 921.302 240.307   5
  -8  -6   9 799.927 357.691   5
   8   6  -9 882.799 344.225   3
  -8  -6   8 7301.27 919.320   5
   8  -6  -8 8243.05 502.911   4
   8  -6  -8 8354.15 694.369   5
   8   6  -8 7541.54 699.578   3
   8  -6  -7 77.3913 161.106   5
  -8  -6   7 107.356 201.928   5
   8  -6  -7 17.2783 102.197   4
   8   6  -7-143.456 124.283   3
  -8  -6   6 14261.6 1235.51   5
   8   6  -6 14413.6 917.310   3
  -8   6   6 13957.1 612.021   4
   8  -6  -6 15839.4 997.199   5
  -8   6   5 786.039 196.533   4
   8  -6  -5 649.563 230.662   5
  -8  -6   5 346.058 230.732   5
   8   6  -5 729.878 205.097   3
  -8  -6   4 1062.61 282.008   5
   8   6  -4 1342.43 268.457   3
   8  -6  -4 769.815 203.000   5
  -8   6   4 1186.99 168.895   4
  -8  -6   3-15.7829 216.321   5
   8  -6  -3-300.098 216.061   5
  -8   6   3 135.570 110.827   4
   8   6  -3 128.217 202.061   3
  -8  -6   2 10053.9 975.465   5
  -8   6   2 9807.79 474.224   4
   8   6  -2 9455.01 680.800   3
   8  -6  -2 11304.3 873.111   5
   8  -6  -1 1206.35 342.154   5
  -8  -6   1 1531.59 430.767   5
  -8   6   1 1242.07 207.490   4
  -8  -6   0 12139.1 1035.60   5
  -8   6   0 13261.9 541.386   4
   8  -6   0 15342.6 974.222   5
  -8  -6  -1 434.449 281.915   5
  -8   6  -1 204.266 91.1744   4
   8  -6   1 571.418 230.908   5
  -8  -6  -2 5742.39 717.515   5
  -8  -6  -2 4913.26 499.230   4
  -8   6  -2 5152.37 341.990   4
   8  -6   2 5581.88 573.737   5
  -8  -6  -3 345.516 186.119   4
  -8   6  -3 191.581 90.2537   4
  -8   6  -4 4178.90 323.955   4
  -8  -6  -4 3794.08 460.153   4
  -8  -6  -5 893.614 263.977   4
  -8  -6  -6 6651.33 616.838   4
  -8  -6  -7 1369.18 378.826   4
  -8  -6  -8 16969.2 996.923   4
  -8  -6  -9-271.738 160.441   4
  -8  -6 -10 952.418 301.567   4
  -8   6 -11 5.83675 111.812   4
  -8  -6 -11 446.766 254.522   4
  -8   6 -12 10387.8 633.083   4
  -8  -6 -12 10178.7 809.628   4
  -8   6 -13 683.838 190.529   4
  -8  -6 -13 496.118 245.222   4
  -8   6 -14 300.134 152.807   4
  -8  -6 -14 394.667 285.403   4
  -8   6 -15 862.017 220.058   4
  -8  -6 -15 636.707 296.022   4
  -8   6 -16 18144.0 929.631   4
  -8  -6 -16 19186.8 1203.27   4
  -8   6 -17 565.439 215.917   4
  -8  -6 -17 847.439 294.888   4
  -8   6 -18 1377.15 295.601   4
  -8  -6 -18 772.327 315.443   4
  -8  -6 -18 1199.59 421.369   1
  -8   6 -19-107.704 134.969   4
  -8  -6 -19 140.037 229.691   4
  -8  -6 -19 11.1891 178.502   1
  -8   6 -20 4439.05 523.891   4
  -8  -6 -20 4139.18 611.333   4
  -8  -6 -20 3372.82 660.755   1
  -8  -6 -21 261.471 228.982   4
  -8  -6 -21 404.233 256.211   1
  -8  -6 -22 3116.24 556.330   4
  -8  -6 -22 2517.96 578.767   1
  -8  -6 -23 387.882 215.481   4
  -8  -6 -23 39.7625 173.722   1
  -8  -6 -24 7350.03 975.601   1
  -8  -6 -24 8836.98 936.123   4
  -8  -6 -25 612.610 332.619   1
  -8  -6 -25 970.875 349.787   4
  -8  -6 -26 1928.57 513.930   1
   8  -8 -28 4582.07 689.985   4
   8  -8 -27 1245.77 360.147   4
   8  -8 -26 2814.92 528.233   4
   8  -8 -25 820.255 304.006   4
   8  -8 -24 931.093 285.034   4
   8  -8 -23 917.322 312.808   4
   8  -8 -22 8419.25 814.806   4
  -8  -8  22 7477.75 1157.33   5
  -8  -8  21-239.296 276.654   5
   8  -8 -21-65.3789 153.563   4
  -8  -8  20 2260.66 667.614   5
   8  -8 -20 2566.19 435.523   4
   8  -8 -19 295.483 159.154   4
  -8  -8  19 1281.30 554.674   5
   8  -8 -18 10651.7 846.150   4
  -8  -8  18 8911.54 1281.03   5
  -8  -8  17 532.019 419.436   5
   8  -8 -17 410.615 209.353   4
   8  -8 -16 242.058 117.656   4
  -8  -8  16 153.567 273.197   5
  -8  -8  15 354.636 404.957   5
   8  -8 -15-29.4039 101.116   4
   8  -8 -14 8751.02 693.943   4
   8   8 -14 9204.23 951.215   3
  -8  -8  14 9302.97 1293.64   5
  -8  -8  13 720.915 523.975   5
   8  -8 -13 425.705 167.511   4
   8   8 -13 401.156 300.073   3
  -8  -8  12 54.0691 265.841   5
   8  -8 -12 139.696 126.744   4
   8   8 -12 292.131 160.743   3
  -8  -8  11 380.420 413.872   5
   8  -8 -11 709.810 213.968   4
   8  -8 -10 7556.75 819.928   5
   8   8 -10 9453.98 874.410   3
  -8  -8  10 8140.83 1202.14   5
  -8  -8   9 990.642 497.174   5
   8  -8  -9 1806.53 474.711   5
   8   8  -9 1233.34 410.539   3
   8  -8  -8 3361.12 551.014   5
  -8  -8   8 3370.61 731.644   5
   8   8  -8 3650.62 510.885   3
   8  -8  -7-270.553 240.313   5
  -8  -8   7-41.4486 301.679   5
   8   8  -7 560.982 374.827   3
  -8  -8   6 6211.18 970.173   5
   8  -8  -6 6008.92 758.051   5
   8   8  -6 6827.89 677.086   3
  -8  -8   5 930.168 558.060   5
   8  -8  -5 864.416 382.885   5
   8  -8  -4 1056.03 294.070   5
  -8  -8   4 1423.86 498.183   5
   8  -8  -3-446.235 186.201   5
  -8  -8   3 425.237 601.009   5
   8  -8  -2 7973.40 857.424   5
  -8  -8   2 7057.21 1009.07   5
   8  -8  -1 1571.96 607.411   5
  -8  -8   1 951.741 628.792   5
  -8  -8   0 8472.94 1053.76   5
   8  -8   0 9789.16 946.801   5
  -8  -8  -1 285.762 475.792   5
   8  -8   1 493.032 421.388   5
  -8  -8  -2 4438.70 783.345   5
   8  -8   2 4614.60 665.229   5
   8  -8   3 2090.88 471.844   5
  -8  -8  -3 1811.01 575.580   5
  -8  -8  -4 5795.14 860.628   5
  -8  -8  -5 1113.29 509.422   5
  -8  -8  -6 3073.37 491.988   4
  -8  -8  -6 3144.73 658.907   5
  -8  -8  -7 1586.80 460.154   4
  -8  -8  -7 2071.52 635.013   5
  -8  -8  -8 13246.1 1287.41   5
  -8  -8  -8 12479.5 971.517   4
  -8  -8  -9 650.248 458.931   5
  -8  -8  -9 713.781 347.522   4
  -8  -8 -10 134.843 180.942   4
  -8  -8 -11 250.137 332.638   4
  -8  -8 -12 6053.68 701.661   4
  -8  -8 -13 382.358 293.763   4
  -8  -8 -14-281.853 152.611   4
  -8  -8 -15 495.434 279.346   4
  -8  -8 -16 9222.90 926.921   4
  -8  -8 -17 997.658 354.660   4
  -8  -8 -18 1087.34 407.776   4
  -8  -8 -19 569.804 298.859   4
  -8  -8 -21 385.743 303.735   1
  -8  -8 -22 1815.63 559.417   1
  -8 -10  15 865.699 650.740   5
  -8 -10  14 4382.10 999.361   5
  -8 -10  13 543.819 501.635   5
  -8 -10  12-45.3913 260.227   5
  -8 -10  11 1456.53 790.677   5
  -8 -10  10 8931.33 1438.37   5
  -8 -10   9 1494.36 921.045   5
  -8 -10   8 1983.15 695.490   5
  -8 -10   7 151.475 520.089   5
  -8 -10   6 5772.42 1149.21   5
  -8 -10   5 1621.11 770.149   5
  -8 -10   4-138.739 324.798   5
  -8 -10   3-187.452 303.270   5
  -8 -10   2 2081.67 680.235   5
  -8 -10   1 1454.02 682.470   5
  -8 -10   0 3049.22 806.291   5
  -8 -10  -1 506.057 342.125   5
  -8 -10  -2 606.800 378.379   5
  -8 -10  -3 532.271 484.117   5
  -8 -10  -4 3317.04 820.374   5
  -8 -10  -5 630.508 448.539   5
  -8 -10  -6 1149.77 571.358   5
  -8 -10  -7 1124.64 519.148   5
  -8 -10  -8 8294.20 1261.54   5
  -8 -10  -9 1944.09 761.291   5
  -8 -10 -10 343.446 391.927   5
   9  -1 -38-231.091 240.434   4
   9   1 -38 4345.47 688.306   4
   9   1 -37 4292.60 736.817   4
   9  -1 -37 3636.21 630.241   4
   9  -1 -36-66.9661 195.647   4
   9   1 -36-44.6783 217.651   4
   9   1 -35 867.544 396.148   4
   9  -1 -35 560.279 282.837   4
   9  -1 -34 356.725 247.978   4
   9   1 -34-243.673 216.618   4
   9   1 -33 12862.9 1149.42   4
   9  -1 -33 12010.3 1066.00   4
   9   1 -32 76.8448 240.094   4
   9  -1 -32 442.892 264.476   4
   9   1 -31 4333.70 635.440   4
   9  -1 -31 4466.43 627.366   4
   9  -1 -30-140.343 211.990   4
   9   1 -30 444.642 261.522   4
   9  -1 -29 4557.43 603.566   4
   9   1 -29 4162.52 602.098   4
   9  -1 -28 145.486 153.923   4
   9   1 -28 204.109 238.375   4
   9  -1 -27 3993.29 561.664   4
   9   1 -27 3976.95 553.870   4
   9   1 -26 107.198 155.467   4
   9  -1 -26 121.329 188.708   4
   9  -1 -25 11075.8 843.691   4
   9   1 -25 11325.6 889.056   4
   9   1 -24-48.2195 141.593   4
   9  -1 -24-136.841 166.663   4
   9  -1 -23 6683.19 636.307   4
   9   1 -23 6896.03 663.418   4
   9  -1 -22-101.374 148.914   4
   9  -1 -21 2955.59 414.758   4
   9  -1 -20 108.305 154.227   4
   9  -1 -19 23660.6 1013.04   4
   9  -1 -18 131.225 162.372   4
   9  -1 -17 4875.21 429.370   4
   9  -1 -16 189.339 147.141   4
   9  -1 -16 19.9741 84.5761   5
   9  -1 -15 16371.1 823.007   5
   9  -1 -15 15665.3 718.919   4
   9  -1 -14 158.039 122.900   5
   9   1 -14 152.112 145.061   5
   9  -1 -14 178.519 129.484   4
   9  -1 -14 44.5433 25.6271   1
  -9  -1  14 201.423 164.520   5
   9   1 -13 11473.0 803.116   5
  -9  -1  13 11668.5 867.043   5
   9  -1 -13 9395.57 505.852   4
   9  -1 -13 10681.5 618.489   5
   9  -1 -12 118.047 110.956   4
   9   1 -12 108.214 130.789   5
   9  -1 -12 203.609 127.316   5
  -9  -1  12-128.882 153.635   5
   9   1 -11 18251.8 954.071   5
   9  -1 -11 16366.7 692.263   5
  -9  -1  11 19265.0 1060.61   5
  -9  -1  10 371.743 152.971   5
   9   1 -10 543.498 186.583   5
   9  -1 -10 343.147 98.6989   5
  -9  -1   9 1253.59 260.833   5
   9   1  -9 957.816 208.141   5
   9  -1  -9 1078.98 172.127   5
  -9   1   9 1237.01 156.073   2
  -9  -1   8 84.7491 118.572   5
   9   1  -8 170.156 129.412   5
   9  -1  -8 246.233 88.8365   5
  -9   1   8 134.233 86.0956   2
  -9  -1   7 31020.8 1109.71   5
   9   1  -7 32070.7 1057.44   5
  -9   1   7 28189.0 781.846   2
   9  -1  -7 28214.9 652.156   5
  -9   1   6-15.0685 44.6889   5
  -9  -1   6-54.6149 109.524   5
  -9   1   6-5.28145 76.9578   2
  -9  -1   6 158.891 145.286   1
  -9  -1   5 10624.5 572.797   5
  -9   1   5 9418.76 492.691   2
  -9  -1   5 11120.8 506.437   1
   9  -1  -5 10430.7 448.959   3
  -9   1   5 9359.42 339.557   5
  -9   1   4 31.9440 31.3765   5
  -9  -1   4 52.0976 71.2258   5
   9   1  -4 172.293 71.9164   4
   9  -1  -4-42.5762 61.4544   3
   9   1  -3 24856.6 683.832   4
   9  -1  -3 23014.5 393.544   4
   9  -1  -3 23920.2 623.476   3
  -9  -1   2 237.363 81.5769   4
   9   1  -2 167.639 61.4347   4
   9  -1  -2 203.000 39.6332   4
  -9  -1   2 352.746 110.574   3
  -9   1   2 319.964 86.1796   3
   9   1  -1 7209.11 372.506   4
   9  -1  -1 6621.28 218.105   4
  -9   1   1 7403.82 369.346   3
  -9  -1   1 7528.57 454.978   3
  -9  -1   1 6822.41 362.639   4
   9  -1   0-21.0201 31.0939   4
  -9   1   0 63.4422 59.2629   3
   9   1   0-24.8368 58.9019   4
  -9   1   0 89.5017 34.6602   4
  -9  -1   0-59.0533 85.1570   4
  -9  -1   0 1.12539 62.8247   3
  -9  -1  -1 11413.0 480.411   4
   9   1   1 11976.8 497.374   4
  -9   1  -1 11098.6 318.137   4
   9  -1   1 11707.5 657.994   1
  -9  -1  -1 12344.3 588.265   3
   9  -1   1 11075.5 329.656   4
  -9  -1  -2 516.890 133.383   3
   9  -1   2 434.941 83.5461   4
  -9  -1  -2 550.917 139.245   4
  -9   1  -2 398.429 69.7981   4
   9  -1   2 446.971 163.486   1
   9   1   2 554.610 111.240   4
   9  -1   3 33627.4 678.879   4
  -9  -1  -3 33902.6 864.780   4
  -9   1  -3 32938.2 655.375   4
   9  -1   3 35352.2 1214.27   1
   9   1   3 34586.4 899.159   4
   9  -1   4-11.9698 82.3124   1
   9  -1   4 13.3076 39.1718   4
  -9   1  -4-18.6038 61.0068   4
  -9  -1  -4 65.7284 77.9344   4
   9   1   4 45.5196 56.9347   4
   9  -1   5 1832.03 185.069   4
  -9   1  -5 1889.94 192.026   4
  -9  -1  -5 1797.98 238.277   4
   9   1   5 1910.71 233.051   4
   9   1   6 40.6499 54.5063   4
   9  -1   6 165.997 122.445   4
  -9  -1  -6-100.584 103.960   4
  -9   1  -6 48.5573 71.2473   4
  -9  -1  -7 4897.09 507.128   1
   9  -1   7 4440.58 310.344   4
  -9  -1  -7 4418.12 371.187   4
  -9   1  -7 4761.71 326.730   4
  -9  -1  -8 82.5672 88.2081   4
   9  -1   8 52.7932 55.6052   4
  -9   1  -8 243.692 112.645   4
  -9  -1  -8 5.90201 141.942   1
  -9  -1  -9 3223.23 455.122   1
   9  -1   9 3101.45 294.864   4
  -9   1  -9 3529.57 322.915   4
  -9  -1  -9 3143.63 341.539   4
  -9   1 -10 223.353 132.733   4
  -9  -1 -10 79.0656 206.762   1
  -9  -1 -10 199.140 165.651   4
  -9  -1 -11 31616.4 1430.74   1
  -9  -1 -11 31731.9 1095.23   4
  -9   1 -11 32682.5 1012.29   4
  -9  -1 -12-136.502 146.046   1
  -9   1 -12 224.863 152.999   4
  -9  -1 -12 96.4491 157.921   4
  -9   1 -13 414.740 193.988   4
  -9  -1 -13 378.314 282.592   1
  -9  -1 -13 381.118 215.841   4
  -9  -1 -14 242.073 222.858   1
  -9   1 -14 100.343 137.977   4
  -9  -1 -14 46.2475 136.325   4
  -9   1 -15 11348.7 815.891   2
  -9  -1 -15 11981.4 754.526   4
  -9   1 -15 11329.4 695.518   4
  -9  -1 -15 11646.6 910.776   1
  -9   1 -16 351.470 174.653   2
  -9   1 -16 223.309 140.879   4
  -9  -1 -16 27.4391 168.421   4
  -9   1 -17 284.000 183.715   2
  -9   1 -17 130.907 150.264   4
  -9  -1 -17 129.043 156.734   4
  -9   1 -18 57.0852 132.751   2
  -9   1 -18 116.675 119.944   4
  -9  -1 -18-12.0258 127.744   4
  -9   1 -19 13183.8 926.980   2
  -9  -1 -19 14164.8 907.506   4
  -9   1 -19 13598.6 858.659   4
  -9   1 -20-101.735 149.204   2
  -9   1 -20 528.756 212.570   4
  -9   1 -21 1194.23 317.064   4
  -9   1 -21 858.202 296.925   2
  -9  -1 -21 801.490 263.802   4
  -9   1 -22 92.8608 151.537   4
  -9  -1 -22 91.9887 153.551   4
  -9   1 -22 380.126 192.205   2
  -9   1 -23 5463.80 623.275   2
  -9  -1 -23 4806.77 598.497   4
  -9   1 -23 5027.57 582.017   4
  -9   1 -24 140.366 165.401   4
  -9   1 -24-10.8914 162.157   2
  -9   1 -25 2544.04 447.861   2
  -9   1 -25 2800.75 466.705   4
  -9  -1 -25 2917.35 483.990   4
  -9   1 -26-3.47015 147.207   2
  -9  -1 -26 38.2033 162.691   4
  -9   1 -27 9879.59 887.514   2
  -9  -1 -27 8815.21 873.312   4
  -9   1 -27 9285.24 864.390   4
  -9   1 -28 400.872 196.862   2
  -9   1 -28 274.076 216.808   4
  -9  -1 -28 146.283 175.179   4
  -9   1 -29 4408.07 614.261   2
  -9  -1 -29 4948.00 693.750   4
  -9   1 -29 4493.71 653.788   4
  -9   1 -30-281.427 188.379   4
  -9  -1 -30 185.394 215.341   4
  -9   1 -31 365.130 231.478   4
  -9  -1 -31 735.528 255.731   4
  -9   1 -32 219.493 271.168   4
   9   3 -37 4801.77 816.371   4
   9  -3 -37 3308.53 639.659   4
   9   3 -36-11.2936 220.408   4
   9  -3 -36-73.0265 156.508   4
   9  -3 -35 600.374 285.997   4
   9   3 -35 1082.70 398.876   4
   9  -3 -34-103.675 192.361   4
   9   3 -34 668.144 379.227   4
   9   3 -33 8831.88 981.126   4
   9  -3 -33 8626.31 909.248   4
   9   3 -32 628.419 283.597   4
   9  -3 -32 443.935 251.578   4
   9  -3 -31 1357.82 351.316   4
   9   3 -31 1784.40 487.087   4
   9  -3 -30 122.698 170.036   4
   9   3 -30 475.621 288.956   4
   9  -3 -29 1758.02 397.050   4
   9   3 -29 2296.29 481.546   4
   9  -3 -28 20.7729 184.666   4
   9   3 -28 48.1971 240.130   4
   9  -3 -27 4050.24 540.098   4
   9  -3 -26 106.835 139.480   4
   9  -3 -25 12523.3 515.389   1
   9  -3 -25 14428.7 951.042   4
   9  -3 -24 739.936 256.676   4
   9  -3 -24 298.106 89.2931   1
   9  -3 -23 14358.4 897.669   4
  -9  -3  22-89.6628 95.6087   2
   9  -3 -22 215.849 171.421   4
  -9  -3  21 958.109 184.197   2
   9  -3 -21 1620.67 311.532   4
   9  -3 -20 217.353 178.673   4
  -9  -3  20 8.70972 83.1730   2
  -9  -3  19 28166.3 1660.11   5
   9  -3 -19 26636.7 1088.42   4
  -9  -3  19 27385.8 968.315   2
   9  -3 -18 309.829 189.643   4
  -9  -3  18 27.4023 86.9042   2
  -9  -3  18 166.766 292.098   5
   9  -3 -17 3925.95 400.032   4
  -9  -3  17 4072.13 661.551   5
  -9  -3  16 173.798 250.363   5
   9  -3 -16 350.275 169.940   4
   9  -3 -15 9678.75 571.462   4
  -9  -3  15 9379.65 963.689   5
  -9  -3  14 241.308 238.032   5
   9  -3 -14 48.8306 112.372   4
  -9  -3  13 2155.86 467.564   5
   9  -3 -13 2525.24 278.051   2
   9  -3 -13 2512.66 273.524   4
   9  -3 -12 177.368 113.819   4
  -9  -3  12-113.241 275.658   5
   9  -3 -12 148.667 111.826   2
   9  -3 -11 19165.9 757.861   2
  -9  -3  11 16362.4 1154.03   5
   9  -3 -11 17974.2 630.740   4
  -9  -3  10 1480.61 375.486   5
   9  -3 -10 1977.76 253.961   2
   9  -3 -10 2044.53 204.990   4
  -9  -3   9 644.037 251.322   5
   9  -3  -9 919.202 172.452   2
   9  -3  -9 958.702 144.648   4
  -9  -3   8 1013.16 296.256   5
   9  -3  -8 1016.93 203.394   2
   9  -3  -8 1013.25 133.154   4
  -9  -3   7 20324.7 1123.82   5
   9  -3  -7 22101.1 509.982   4
   9  -3  -7 22568.5 845.885   2
   9  -3  -7 18918.0 379.833   3
  -9  -3   6 179.830 162.742   5
   9  -3  -6 363.463 161.579   2
   9  -3  -6 370.754 66.2176   4
   9  -3  -5 12691.2 298.721   4
   9  -3  -5 15024.6 703.594   2
  -9  -3   5 13701.0 858.504   5
   9  -3  -4 258.486 131.168   2
  -9  -3   4-11.8993 121.628   5
  -9  -3   3 12246.1 768.752   5
  -9   3   2 41.5744 34.5820   3
  -9   3   1 4009.84 284.116   5
  -9  -3   1 3332.53 321.531   4
  -9   3   1 3796.53 208.560   3
  -9   3   0 162.423 99.4497   5
  -9  -3   0-52.9912 117.724   4
  -9  -3  -1 23045.0 864.556   4
  -9   3  -1 23221.5 920.891   5
  -9   3  -2 416.829 69.4236   4
  -9   3  -2 282.088 142.535   5
  -9  -3  -2 449.223 208.356   4
  -9  -3  -3 43701.3 1213.57   4
  -9   3  -3 41866.6 621.236   4
  -9   3  -3 43295.5 1454.46   5
  -9   3  -4 260.888 90.5740   4
  -9  -3  -4-148.967 148.525   4
  -9   3  -4 190.003 144.219   5
  -9   3  -5 7643.27 330.623   4
  -9  -3  -5 7610.80 527.698   4
  -9   3  -5 6829.34 634.260   5
  -9  -3  -6 117.499 126.046   4
  -9   3  -6 436.406 105.377   4
  -9   3  -6 432.814 190.030   5
  -9   3  -6 730.052 317.261   2
  -9   3  -7 9032.69 698.984   2
  -9  -3  -7 8251.03 571.862   4
  -9   3  -7 9267.76 426.022   4
  -9   3  -8 375.548 114.782   4
  -9  -3  -8 442.855 183.378   4
  -9   3  -8 352.118 199.350   2
  -9   3  -9 1449.66 202.822   4
  -9  -3  -9 1689.71 312.253   4
  -9   3  -9 1409.30 333.466   2
  -9  -3  -9 1032.24 302.798   1
  -9   3 -10 328.441 118.193   4
  -9  -3 -10 162.540 176.858   1
  -9  -3 -10 278.493 188.671   4
  -9   3 -10 189.718 208.573   2
  -9   3 -11 14243.4 644.596   4
  -9  -3 -11 12640.7 793.870   4
  -9  -3 -11 12373.8 942.197   1
  -9   3 -11 14071.8 909.442   2
  -9   3 -12 853.998 178.490   4
  -9  -3 -12 1054.36 261.267   4
  -9  -3 -12 445.338 217.223   1
  -9   3 -12 811.875 264.091   2
  -9   3 -13 176.525 134.002   4
  -9  -3 -13 253.528 225.380   4
  -9  -3 -13 90.8472 197.243   1
  -9   3 -14 106.321 194.529   2
  -9   3 -14 28.1674 95.7263   4
  -9  -3 -14 292.917 223.045   1
  -9  -3 -14 292.930 207.730   4
  -9  -3 -15 6462.77 745.900   1
  -9   3 -15 6553.08 675.388   2
  -9  -3 -15 6680.54 618.597   4
  -9   3 -15 6445.46 517.113   4
  -9  -3 -16 64.4782 208.581   1
  -9   3 -16 174.484 114.011   4
  -9  -3 -16 157.939 169.142   4
  -9   3 -16-35.3332 142.767   2
  -9   3 -17-88.0973 113.219   4
  -9  -3 -17-27.0605 187.110   1
  -9  -3 -17 215.457 204.689   4
  -9   3 -17 22.8116 176.994   2
  -9   3 -18 457.682 193.998   4
  -9  -3 -18 52.1821 156.596   1
  -9  -3 -18 779.391 302.901   4
  -9   3 -18 343.619 214.506   2
  -9  -3 -19 20599.2 1399.06   1
  -9  -3 -19 20442.8 1165.24   4
  -9   3 -19 19462.5 1001.04   4
  -9   3 -19 20094.3 1192.77   2
  -9   3 -20 270.482 172.617   4
  -9  -3 -20 111.398 158.957   1
  -9  -3 -20 305.201 192.073   4
  -9   3 -20-253.510 189.218   2
  -9   3 -21 1466.45 325.360   4
  -9  -3 -21 1798.93 462.188   1
  -9  -3 -21 1549.70 372.648   4
  -9   3 -21 1457.35 368.843   2
  -9   3 -22-383.586 271.444   2
  -9   3 -22-59.7954 156.278   4
  -9  -3 -22 87.1858 157.861   1
  -9  -3 -22 159.743 189.889   4
  -9   3 -23 6762.58 735.128   2
  -9  -3 -23 7013.87 839.349   1
  -9  -3 -23 7307.80 766.974   4
  -9   3 -23 7580.49 705.347   4
  -9  -3 -24-175.270 187.197   4
  -9  -3 -24 99.4944 143.005   1
  -9   3 -24-46.2790 109.012   4
  -9   3 -25 2269.85 416.580   4
  -9  -3 -25 1735.81 422.685   4
  -9   3 -26 447.944 229.287   4
  -9  -3 -26 353.156 238.164   4
  -9  -3 -27 7232.02 817.035   4
  -9   3 -27 7321.30 772.218   4
  -9   3 -28 128.408 135.281   4
  -9  -3 -28 464.851 250.397   4
  -9  -3 -29 4758.59 703.870   4
  -9   3 -29 4438.53 640.651   4
  -9   3 -30 105.341 182.382   4
  -9  -3 -30 293.467 249.106   4
  -9   3 -31 597.628 296.173   4
  -9   3 -32 602.230 264.393   4
   9  -5 -35 404.407 257.681   4
   9  -5 -34-70.5308 287.750   4
   9   5 -34 1294.37 480.764   4
   9   5 -33 14650.6 1342.59   4
   9  -5 -33 10784.8 1046.28   4
   9   5 -32 791.873 389.292   4
   9  -5 -32 587.073 259.660   4
   9  -5 -31 4581.55 669.319   4
   9  -5 -30-44.3573 159.970   4
   9  -5 -29 2420.27 472.691   4
   9  -5 -28-20.1777 152.273   4
   9  -5 -27 6032.70 693.629   4
   9  -5 -26 14.3848 187.541   4
   9  -5 -25 8059.58 752.087   4
   9  -5 -24 629.351 225.781   4
   9  -5 -23 2328.09 432.682   4
   9  -5 -22 764.757 254.544   4
  -9  -5  21 992.695 410.002   5
   9  -5 -21 578.567 212.155   4
  -9  -5  20 423.323 325.266   5
   9  -5 -20 45.9457 110.308   4
   9  -5 -19 19383.6 986.141   4
  -9  -5  19 18886.2 1539.48   5
  -9  -5  18 16.7414 348.344   5
   9  -5 -18 241.792 150.576   4
   9  -5 -17 3996.24 431.213   4
  -9  -5  17 4258.78 771.060   5
  -9  -5  16 1209.44 416.520   5
   9  -5 -16 1351.49 254.062   4
  -9  -5  15 20872.9 1631.43   5
   9  -5 -15 21303.0 903.245   4
  -9  -5  14 279.412 335.762   5
   9  -5 -14 337.576 153.947   4
  -9  -5  13 2395.77 564.048   5
   9  -5 -13 2328.50 289.424   4
  -9  -5  12-216.922 310.484   5
   9  -5 -12 61.9619 90.4970   4
   9  -5 -12 34.9763 24.4395   3
   9  -5 -11 12379.3 589.958   4
  -9  -5  11 12444.1 1187.26   5
  -9   5  10 1598.09 216.587   4
  -9  -5  10 975.111 346.469   5
   9  -5 -10 1367.19 233.079   5
   9  -5 -10 1602.83 217.535   4
  -9  -5   9 628.821 334.323   5
   9  -5  -9 662.661 160.020   5
  -9   5   9 629.008 128.823   4
   9  -5  -9 758.553 154.913   4
   9  -5  -8 877.754 208.082   5
  -9   5   8 1216.18 178.637   4
  -9  -5   8 1125.57 377.286   5
   9  -5  -8 1024.82 175.181   4
   9   5  -8 1058.09 312.907   3
   9  -5  -7 16348.3 812.163   5
   9  -5  -7 15507.8 562.354   4
  -9  -5   7 12101.3 1056.34   5
   9   5  -7 13299.5 887.594   3
  -9   5   7 15410.5 570.056   4
   9  -5  -6-3.79039 115.318   5
  -9  -5   6 204.741 188.260   5
   9  -5  -6 309.694 97.5330   4
   9   5  -6 143.186 136.009   3
  -9   5   6 344.835 126.921   4
  -9  -5   5 9299.89 864.695   5
   9   5  -5 9582.01 694.090   3
  -9   5   5 10698.2 428.281   4
   9  -5  -5 10706.8 659.835   5
  -9   5   4 186.786 126.903   4
  -9  -5   4 229.958 171.923   5
   9  -5  -4-201.618 160.088   5
   9   5  -4 26.1842 154.594   3
  -9  -5   3 22072.1 1315.70   5
   9   5  -3 21080.4 999.768   3
   9  -5  -3 24216.4 963.278   5
  -9   5   3 22831.2 578.257   4
   9  -5  -2 612.968 172.449   5
  -9   5   2 520.733 110.501   4
   9   5  -2 438.466 146.361   3
  -9  -5   2 210.322 163.919   5
  -9  -5   1 4370.02 581.258   5
  -9   5   1 4329.19 239.660   4
   9  -5  -1 4599.49 402.098   5
  -9  -5   0 159.451 191.178   5
  -9  -5   0-35.4846 146.673   4
  -9   5   0-20.9374 34.8274   4
  -9  -5  -1 9569.79 667.427   4
  -9   5  -1 8583.40 340.321   4
  -9   5  -2 280.115 133.824   5
  -9  -5  -2 276.991 246.501   4
  -9   5  -2 390.903 91.2215   4
  -9   5  -3 15879.0 896.283   5
  -9   5  -3 16507.1 509.898   4
  -9  -5  -3 15960.7 878.210   4
  -9  -5  -4-72.4562 152.968   4
  -9   5  -4-87.6676 52.5799   4
  -9   5  -5 1493.87 175.057   4
  -9  -5  -5 2026.17 358.108   4
  -9   5  -6 893.767 142.543   4
  -9  -5  -6 1160.19 305.878   4
  -9   5  -7 4397.44 312.519   4
  -9  -5  -7 4511.28 487.966   4
  -9   5  -8 45.4025 59.2600   4
  -9  -5  -8 113.850 164.534   4
  -9   5  -9 3479.76 307.679   4
  -9  -5  -9 3923.72 480.536   4
  -9   5 -10 797.813 178.548   4
  -9  -5 -10 1211.88 384.634   4
  -9   5 -11 30712.5 972.997   4
  -9  -5 -11 30646.7 1322.00   4
  -9   5 -12 1602.31 258.639   4
  -9  -5 -12 1829.41 379.576   4
  -9  -5 -13 1408.89 332.658   4
  -9   5 -13 1323.90 254.997   4
  -9   5 -14 88.3016 121.092   4
  -9  -5 -14-49.8524 150.164   4
  -9   5 -15 6396.07 510.633   4
  -9  -5 -15 6412.55 790.154   1
  -9  -5 -15 6119.80 655.582   4
  -9   5 -16 192.421 131.954   4
  -9  -5 -16-40.5960 181.146   1
  -9  -5 -16 10.9297 152.388   4
  -9   5 -17 468.443 170.870   4
  -9  -5 -17 325.619 278.792   1
  -9  -5 -17 397.342 249.217   4
  -9   5 -18 205.340 119.535   4
  -9  -5 -18 186.217 219.134   4
  -9  -5 -18-40.7870 178.885   1
  -9   5 -19 8183.62 656.664   4
  -9  -5 -19 7348.88 901.498   1
  -9  -5 -19 8784.20 832.624   4
  -9  -5 -20 193.729 191.408   1
  -9  -5 -20-90.2201 151.022   4
  -9   5 -20 18.4644 105.720   4
  -9   5 -21 1064.02 272.029   4
  -9  -5 -21 826.040 305.270   4
  -9   5 -22 387.488 198.052   4
  -9  -5 -22-225.552 232.501   1
  -9  -5 -22 46.5164 162.507   4
  -9  -5 -23 6428.44 901.886   1
  -9  -5 -23 5574.50 708.151   4
  -9   5 -23 5745.59 615.956   4
  -9   5 -24-4.20823 156.998   4
  -9  -5 -24-65.5621 181.312   4
  -9  -5 -24-7.52511 226.807   1
  -9  -5 -25 1466.86 387.970   4
  -9  -5 -25 1211.03 410.937   1
  -9  -5 -26 14.9367 201.586   1
  -9  -5 -26 368.185 278.549   4
  -9  -5 -27 8827.06 1083.23   1
  -9  -5 -27 7642.49 901.481   4
   9  -7 -32 312.392 286.181   4
   9  -7 -31 804.539 344.011   4
   9  -7 -30 235.903 256.554   4
   9  -7 -29 1168.13 368.575   4
   9  -7 -28 868.768 310.430   4
   9  -7 -27 3931.85 602.738   4
   9  -7 -26 422.277 260.237   4
   9  -7 -25 7561.18 794.137   4
   9  -7 -24 1380.17 346.632   4
   9  -7 -23 8191.36 797.075   4
  -9  -7  22 604.166 424.882   5
   9  -7 -22 277.473 211.695   4
  -9  -7  21 542.996 399.463   5
   9  -7 -21 282.556 130.207   4
  -9  -7  20 365.839 258.035   5
   9  -7 -20 28.0393 125.524   4
   9  -7 -19 11815.1 854.721   4
  -9  -7  19 12427.0 1428.59   5
  -9  -7  18-40.5132 278.000   5
   9  -7 -18-147.175 139.076   4
   9  -7 -17 2851.42 394.396   4
  -9  -7  17 2810.65 725.355   5
  -9  -7  16 998.633 463.655   5
   9  -7 -16 1169.35 244.374   4
  -9  -7  15 5580.17 969.763   5
   9  -7 -15 7861.11 627.240   4
   9  -7 -15 5783.73 608.276   5
   9  -7 -14 729.274 244.657   5
   9  -7 -14 754.934 210.761   4
   9  -7 -13 679.956 192.053   5
   9  -7 -13 965.067 219.037   4
  -9  -7  13 510.407 295.715   5
   9  -7 -12 268.774 204.757   5
   9  -7 -12 387.484 167.405   4
   9   7 -12 644.405 280.926   3
  -9  -7  12 221.133 313.021   5
   9  -7 -11 11565.6 675.951   4
   9   7 -11 10810.7 953.863   3
   9  -7 -11 11215.3 854.197   5
  -9  -7  11 9877.66 1260.69   5
  -9  -7  10 898.644 408.573   5
   9  -7 -10 1027.00 294.025   5
   9  -7 -10 1439.65 240.606   4
   9   7 -10 811.564 400.269   3
  -9  -7   9 250.089 306.507   5
   9   7  -9-19.4053 141.044   3
   9  -7  -9 184.382 185.303   5
   9  -7  -8 97.0979 219.452   5
  -9  -7   8 1098.96 471.171   5
   9   7  -8 798.532 293.847   3
  -9  -7   7 11750.5 1254.38   5
   9  -7  -7 12448.1 942.945   5
   9   7  -7 11426.5 884.069   3
   9  -7  -6 395.405 258.654   5
  -9  -7   6 1206.19 553.857   5
   9   7  -6 1052.95 313.495   3
  -9  -7   5 4686.67 757.155   5
   9  -7  -5 4628.79 568.549   5
   9   7  -5 5193.08 564.853   3
   9  -7  -4-478.063 184.820   5
   9   7  -4 172.143 219.288   3
  -9  -7   4-425.223 297.163   5
   9  -7  -3 9429.42 816.987   5
  -9  -7   3 8842.17 1009.89   5
   9  -7  -2 976.863 344.590   5
  -9  -7   2 273.397 356.181   5
   9  -7  -1 1216.02 290.561   5
  -9  -7   1 749.118 305.416   5
  -9  -7   0 398.168 353.563   5
   9  -7   0 401.422 273.363   5
  -9  -7  -1 7836.01 936.994   5
   9  -7   1 9193.74 772.883   5
  -9  -7  -2 2188.61 645.807   5
  -9  -7  -3 17676.0 1374.86   5
  -9  -7  -4 692.671 417.866   5
  -9  -7  -4 238.116 327.406   4
  -9  -7  -5 3993.51 677.032   5
  -9  -7  -5 4409.61 543.775   4
  -9  -7  -6 1820.86 403.383   4
  -9  -7  -7 4260.40 541.982   4
  -9  -7  -8 160.148 169.630   4
  -9  -7  -9 725.846 276.467   4
  -9  -7 -10 1247.72 389.032   4
  -9  -7 -11 12488.4 960.399   4
  -9  -7 -12 771.496 303.334   4
  -9  -7 -13 485.208 276.944   4
  -9  -7 -14 8.43059 189.453   4
  -9  -7 -15 3700.88 554.019   4
  -9  -7 -16 80.6968 175.431   4
  -9  -7 -17 309.299 257.003   4
  -9  -7 -18 679.775 297.142   4
  -9  -7 -19 12303.1 1320.76   1
  -9  -7 -19 13387.1 1126.98   4
  -9  -7 -20 405.603 254.624   1
  -9  -7 -20 1142.31 338.824   4
  -9  -7 -21 573.916 291.107   4
  -9  -7 -21 225.830 240.325   1
  -9  -7 -22 50.9118 152.775   4
  -9  -7 -22 258.560 305.784   1
  -9  -7 -23 3991.89 783.456   1
  -9  -7 -24-46.5456 167.704   1
  -9  -9  21 272.634 461.967   5
  -9  -9  20 579.369 403.994   5
  -9  -9  19 7314.11 1212.42   5
   9   9 -19 6772.52 913.307   3
  -9  -9  18 878.423 480.512   5
   9   9 -18 264.436 295.478   3
  -9  -9  17 2090.94 675.788   5
   9   9 -17 929.203 380.476   3
  -9  -9  16 140.759 296.647   5
   9   9 -16 138.958 171.868   3
  -9  -9  15 5022.83 1034.02   5
   9   9 -15 5730.82 775.694   3
  -9  -9  14 1424.93 719.661   5
   9   9 -14 1462.19 424.385   3
  -9  -9  13 1308.04 664.282   5
   9   9 -13 226.067 209.120   3
  -9  -9  12 590.184 580.648   5
   9   9 -12 306.531 260.887   3
  -9  -9  11 4390.11 995.569   5
   9   9 -11 5594.16 715.227   3
  -9  -9  10 1387.02 612.219   5
   9   9 -10 80.8911 220.153   3
   9   9  -9 215.107 170.664   3
  -9  -9   9-111.554 346.856   5
   9   9  -8 1424.32 443.562   3
  -9  -9   8-23.4799 558.658   5
  -9  -9   7 7243.21 1191.96   5
  -9  -9   6 2482.40 918.053   5
  -9  -9   5 2775.77 730.467   5
  -9  -9   4-158.399 304.840   5
  -9  -9   3 7833.48 1144.54   5
  -9  -9   2 491.864 494.822   5
  -9  -9   1 1196.91 507.597   5
  -9  -9   0-222.165 239.602   5
  -9  -9  -1 4884.86 901.354   5
  -9  -9  -2 1631.23 603.686   5
  -9  -9  -3 8404.52 1168.32   5
  -9  -9  -4 674.801 591.781   5
  -9  -9  -5 1624.51 563.527   5
  -9  -9  -6 1688.94 676.766   5
  -9  -9  -7 3399.80 764.242   5
  -9  -9  -8 210.678 319.087   5
  -9  -9  -9 370.831 372.079   5
  -9  -9  -9-65.7285 158.742   4
  -9  -9 -10 1106.30 359.205   4
  -9  -9 -10 2262.35 638.258   5
  -9  -9 -11 13649.6 1592.12   5
  -9  -9 -11 11950.1 1062.30   4
  -9  -9 -12 834.729 424.200   5
  -9  -9 -12 980.632 367.319   4
  -9  -9 -13 524.066 583.888   5
  -9  -9 -13 460.646 217.915   4
  -9  -9 -14 269.029 223.441   4
  10   0 -38 15850.6 1380.34   4
  10   0 -37-162.957 269.799   4
  10   0 -36 507.721 229.669   4
  10   0 -35-226.547 198.793   4
  10   0 -34 4220.13 669.808   4
  10   0 -33 171.491 242.824   4
  10   0 -32 1272.47 398.676   4
  10   0 -31 685.523 311.912   4
  10   0 -30 18084.2 1238.66   4
  10   0 -29-205.372 194.787   4
  10   0 -28 6326.58 696.596   4
  10   0 -27-2.48629 210.438   4
  10   0 -26 1373.88 323.985   4
  10   0 -25-119.447 147.092   4
  10   0 -24 14726.6 942.929   4
  10   0 -23 165.664 203.861   4
  10   0 -22 9693.42 730.567   4
  10   0 -21-177.531 176.369   4
  10   0 -20 1850.08 316.613   4
  10   0 -16 24027.2 1158.75   5
  10   0 -15 64.2178 87.8420   5
  10   0 -14 6638.43 572.587   5
  10   0 -13 57.2943 102.917   5
 -10   0  13 28.5691 29.4781   2
 -10   0  12 49407.9 1458.07   5
  10   0 -12 46130.4 1388.09   5
  10   0 -11-13.0845 69.9911   5
 -10   0  11-22.2211 96.0553   5
  10   0 -10 19514.0 835.425   5
 -10   0  10 20667.7 949.681   5
  10   0  -9 163.438 91.6990   5
 -10   0   9-19.8985 103.161   5
  10   0  -8 23378.1 666.112   1
  10   0  -8 24118.9 828.009   5
 -10   0   8 24514.9 930.497   5
 -10   0   7-39.5825 102.986   5
  10   0  -7 27.4791 70.5767   1
 -10   0   6 3064.45 289.491   5
  10   0  -6 3442.75 287.249   1
 -10   0   5-17.4734 68.2248   5
 -10   0   5 212.788 130.865   1
  10   0  -5-18.1732 78.7574   3
  10   0  -5 20.6082 54.7904   1
  10   0  -4 3112.17 294.815   1
 -10   0   4 2647.95 229.668   5
  10   0  -4 2671.76 271.293   3
 -10   0   4 2967.85 314.430   1
  10   0  -4 2770.94 201.731   4
  10   0  -3 185.803 107.519   3
  10   0  -3-22.6313 43.1161   4
 -10   0   3-31.8929 70.0593   3
  10   0  -3-9.33477 70.5799   1
  10   0  -2 6925.44 474.237   1
  10   0  -2 6944.39 315.017   4
 -10   0   2 6914.78 419.900   3
  10   0  -1 74.1903 98.2646   1
 -10   0   1-115.927 66.0653   4
  10   0  -1-16.0903 50.3777   4
 -10   0   1 53.0318 53.0001   3
  10   0   0 20783.3 877.129   1
 -10   0   0 19987.7 550.854   4
  10   0   0 19752.6 554.704   4
 -10   0   0 20852.9 727.930   3
 -10   0  -1 55.4999 69.2176   3
  10   0   1 19.7881 81.3669   1
 -10   0  -1-19.7915 59.0182   4
  10   0   1-14.3979 49.4470   4
  10   0   2 6551.01 520.852   1
 -10   0  -2 5990.34 324.452   4
  10   0   2 6242.39 339.569   4
  10   0   3-1.65281 38.6197   4
 -10   0  -3 22.9875 56.5867   4
  10   0   3-0.96345 74.3268   1
 -10   0  -4 15128.4 564.076   4
  10   0   4 15430.4 571.606   4
  10   0   5 14.6273 54.6179   4
 -10   0  -5 307.331 111.330   4
 -10   0  -6 26777.0 807.479   4
  10   0   6 26771.1 814.466   4
  10   0   7-58.0045 67.0842   4
 -10   0  -7-13.4374 74.1398   4
  10   0   8 294.095 110.724   4
 -10   0  -8 512.666 154.393   4
 -10   0  -9-28.3224 103.305   4
 -10   0 -10 11338.0 625.784   4
 -10   0 -11 16.8225 99.2975   4
 -10   0 -12 5641.01 478.565   4
 -10   0 -13 497.527 223.486   4
 -10   0 -14 42073.5 1340.31   4
 -10   0 -15 342.026 189.586   4
 -10   0 -16 581.623 241.626   4
 -10   0 -17 301.201 195.411   4
 -10   0 -18 14554.0 887.412   4
 -10   0 -19 121.877 146.544   4
 -10   0 -20 954.867 286.467   4
 -10   0 -21 120.232 146.281   4
 -10   0 -22 7299.61 702.619   4
 -10   0 -23-37.3109 122.366   4
 -10   0 -24 1255.06 292.532   2
 -10   0 -24 1439.50 362.216   4
 -10   0 -25 81.1342 155.159   2
 -10   0 -25-105.044 180.310   4
 -10   0 -26 2046.64 409.303   4
 -10   0 -26 1940.90 408.836   2
 -10   0 -27-131.873 162.471   2
 -10   0 -27-329.107 217.474   4
 -10   0 -28 4238.90 603.994   2
 -10   0 -28 3753.36 588.374   4
 -10   0 -29 210.250 233.772   2
 -10   0 -29-80.8244 230.392   4
 -10   0 -30 5071.00 698.146   4
 -10   0 -31 261.645 251.186   4
  10   2 -38 11813.6 1249.91   4
  10  -2 -38 9247.10 1029.85   4
  10  -2 -37-474.375 275.577   4
  10   2 -37-189.295 277.970   4
  10  -2 -36 361.549 254.257   4
  10   2 -36 99.3650 184.788   4
  10  -2 -35-94.3808 162.541   4
  10   2 -35 638.401 984.133   4
  10  -2 -34 3089.80 566.783   4
  10   2 -34 3884.65 683.171   4
  10  -2 -33 204.540 235.141   4
  10   2 -33 171.830 265.252   4
  10  -2 -32 2968.14 536.500   4
  10   2 -32 3421.20 632.247   4
  10  -2 -31 309.671 228.804   4
  10   2 -31 212.733 272.653   4
  10  -2 -30 11866.4 963.457   4
  10   2 -30 13122.1 1109.66   4
  10  -2 -29 269.133 192.580   4
  10   2 -29 268.069 236.063   4
  10   2 -28 4612.18 630.017   4
  10  -2 -28 4236.11 582.967   4
  10  -2 -27 286.093 216.724   4
  10   2 -27 53.1413 163.353   4
  10  -2 -26 1072.99 286.547   4
  10  -2 -25-89.2323 156.840   4
  10  -2 -24 9280.57 746.970   4
 -10  -2  24 4014.26 166.857   1
 -10  -2  23 127.998 45.9853   1
  10  -2 -23 59.2905 131.139   4
  10  -2 -22 13195.7 822.513   4
  10  -2 -21 115.717 33.2065   1
  10  -2 -21 438.718 222.833   4
 -10  -2  20 16223.2 545.625   2
  10  -2 -20 16205.1 876.581   4
  10  -2 -19 81.7376 117.478   4
 -10  -2  19 37.8405 55.7962   2
  10  -2 -19 40.4048 38.5206   2
 -10  -2  18 1521.52 437.783   5
  10  -2 -18 80.5007 141.588   4
 -10  -2  18 1087.13 168.103   2
  10  -2 -17 137.166 124.592   5
  10  -2 -17 115.349 139.097   4
  10  -2 -17 42.3159 54.3436   2
 -10  -2  17 132.410 251.362   5
  10  -2 -16 24179.4 910.039   4
  10  -2 -16 24533.4 616.263   2
  10  -2 -16 25271.2 978.025   5
 -10  -2  16 25999.9 1480.98   5
  10  -2 -15 116.139 107.954   5
  10  -2 -15 153.462 74.8356   2
  10  -2 -15 215.153 151.566   4
 -10  -2  15 0.76866 176.726   5
  10  -2 -14 4910.10 385.058   5
  10  -2 -14 5357.00 307.074   2
  10  -2 -14 5494.14 405.747   4
 -10  -2  14 5441.28 678.713   5
 -10  -2  13 162.373 229.005   5
  10  -2 -13 237.802 131.810   4
  10  -2 -13 130.831 67.5690   2
  10  -2 -13 202.260 93.7750   5
  10  -2 -12 7777.69 392.323   2
 -10  -2  12 8557.71 820.979   5
  10  -2 -12 8193.64 439.932   4
  10  -2 -12 7084.33 410.741   5
  10  -2 -11 25.4050 49.6119   5
 -10  -2  11 29.2401 184.684   5
  10  -2 -11 11.8460 55.4433   2
  10  -2 -11 42.7985 93.6672   4
  10  -2 -10 1977.06 205.638   4
 -10  -2  10 1618.32 359.907   5
  10  -2 -10 1759.81 206.597   2
  10   2 -10 1762.55 323.230   5
  10  -2 -10 1678.29 183.315   5
  10  -2  -9 102.463 51.2149   5
 -10  -2   9 66.8506 182.558   5
  10   2  -9 12.5719 84.4879   5
  10  -2  -9 265.722 119.135   4
  10  -2  -9 116.258 97.9164   2
  10  -2  -8 21228.7 719.277   2
  10  -2  -8 21984.8 543.476   4
  10   2  -8 23056.4 1073.19   5
 -10  -2   8 22618.5 1108.90   5
  10  -2  -7 115.403 61.1417   4
  10  -2  -7 72.5711 71.5414   2
  10  -2  -7-12.9855 58.6437   3
 -10  -2   7-102.266 163.020   5
  10  -2  -6 307.699 57.1886   4
 -10  -2   6 141.548 110.474   5
  10  -2  -6 344.193 84.0917   3
 -10   2   6 253.795 127.260   2
  10  -2  -5 98.5391 35.0448   4
 -10  -2   5 61.3618 129.219   5
  10  -2  -5 268.835 84.5227   3
 -10   2   5 101.231 131.377   2
 -10  -2   4 19858.8 888.066   5
 -10   2   4 20612.0 863.417   2
 -10  -2   2 24943.4 801.097   4
 -10   2   2 25585.2 657.166   3
 -10  -2   1 306.689 125.999   4
 -10  -2   1 331.274 125.158   3
 -10   2   1 137.273 69.2526   3
 -10  -2   0 12225.7 577.024   4
 -10  -2   0 12974.2 672.636   3
 -10  -2  -1 8.14144 94.4077   4
 -10   2  -1 40.6315 23.8207   4
  10   2   1 14.9039 59.5909   4
 -10  -2  -2 539.218 143.262   4
 -10   2  -2 574.720 70.3216   4
 -10  -2  -3 265.068 149.022   4
 -10   2  -3 52.9320 42.1717   4
 -10  -2  -4 14836.5 682.792   4
 -10   2  -4 15707.9 456.463   4
 -10  -2  -5 429.690 196.919   4
 -10   2  -5 35.8881 70.7533   4
 -10  -2  -6 26530.3 940.958   4
 -10   2  -6 27889.7 714.486   4
 -10   2  -7 857.686 154.226   4
 -10   2  -7 1177.78 326.988   2
 -10  -2  -7 804.460 211.989   4
 -10  -2  -7 832.347 261.407   1
 -10  -2  -8 2438.40 413.128   1
 -10   2  -8 2251.94 367.914   2
 -10  -2  -8 2271.49 317.610   4
 -10   2  -8 2552.47 254.180   4
 -10   2  -9 191.889 114.004   4
 -10  -2  -9 65.3350 239.782   1
 -10   2  -9 668.250 287.142   2
 -10  -2  -9 232.898 188.913   4
 -10   2 -10 16019.3 954.018   2
 -10  -2 -10 15905.1 1046.19   1
 -10  -2 -10 15182.9 794.738   4
 -10   2 -10 16845.8 686.286   4
 -10  -2 -11 134.252 216.724   1
 -10   2 -11 47.8382 159.965   2
 -10  -2 -11 154.496 185.232   4
 -10   2 -11-16.0107 85.9108   4
 -10  -2 -12 1688.86 391.113   1
 -10  -2 -12 2227.87 343.612   4
 -10   2 -12 2288.18 287.671   4
 -10   2 -12 2178.83 412.315   2
 -10   2 -13 261.900 149.470   4
 -10   2 -13 497.530 264.281   2
 -10  -2 -13 435.023 238.726   4
 -10  -2 -13-4.48023 245.072   1
 -10  -2 -14 17744.7 1194.16   1
 -10  -2 -14 19567.8 997.898   4
 -10   2 -14 19474.8 1113.39   2
 -10   2 -14 19733.5 873.185   4
 -10   2 -15 150.399 138.109   4
 -10  -2 -15 99.5897 205.134   1
 -10   2 -15 65.1362 146.453   2
 -10  -2 -15 159.670 167.605   4
 -10   2 -16 304.122 181.542   4
 -10  -2 -16 283.128 219.683   4
 -10  -2 -16 353.663 243.194   1
 -10   2 -16 318.300 227.034   2
 -10   2 -17 216.056 105.289   4
 -10   2 -17 303.152 217.413   2
 -10  -2 -17 221.302 196.511   4
 -10  -2 -17 301.823 242.477   1
 -10   2 -18 8182.28 754.087   2
 -10  -2 -18 8428.71 871.263   1
 -10  -2 -18 8671.77 736.512   4
 -10   2 -18 8791.17 664.913   4
 -10   2 -19-118.006 145.775   4
 -10  -2 -19-152.025 184.323   1
 -10   2 -19-105.444 159.132   2
 -10  -2 -19 187.407 167.720   4
 -10   2 -20 615.061 232.686   4
 -10  -2 -20 364.220 270.233   1
 -10   2 -20 268.491 200.751   2
 -10  -2 -20 258.976 160.413   4
 -10   2 -21 469.852 259.390   2
 -10   2 -21 233.424 158.572   4
 -10  -2 -21 518.268 258.196   4
 -10   2 -22 18228.6 1172.25   2
 -10  -2 -22 18346.8 1168.95   4
 -10   2 -22 18285.6 1064.69   4
 -10   2 -23 811.446 257.890   4
 -10   2 -23 379.582 241.729   2
 -10  -2 -23 368.376 182.343   4
 -10   2 -24 2808.85 471.137   2
 -10   2 -24 2287.99 412.600   4
 -10  -2 -24 2307.60 449.585   4
 -10   2 -25 51.5177 161.234   4
 -10   2 -25 205.791 204.496   2
 -10  -2 -25 88.6055 179.124   4
 -10   2 -26 3216.44 511.140   4
 -10   2 -26 3578.44 560.718   2
 -10  -2 -26 3579.26 570.727   4
 -10   2 -27 257.450 185.579   4
 -10   2 -27-82.3416 183.987   2
 -10  -2 -27 303.235 193.322   4
 -10   2 -28 3105.07 515.178   4
 -10   2 -28 3647.42 563.569   2
 -10  -2 -28 4111.09 638.601   4
 -10   2 -29 395.550 251.792   4
 -10  -2 -29 58.4745 211.249   4
 -10   2 -29-17.7396 220.219   2
 -10  -2 -30 2666.85 554.206   4
 -10   2 -30 2165.41 468.342   4
 -10   2 -31 255.380 203.183   4
 -10   2 -32 2681.06 535.052   4
  10  -4 -37 302.500 252.238   4
  10  -4 -36 553.333 208.081   4
  10   4 -36 437.376 252.570   4
  10   4 -35-55.6700 234.909   4
  10  -4 -35 130.009 222.338   4
  10   4 -34 4677.50 766.796   4
  10  -4 -34 2926.85 532.559   4
  10  -4 -33-182.505 186.365   4
  10   4 -33 33.8051 286.966   4
  10  -4 -32 1432.08 386.593   4
  10   4 -32 1886.04 496.087   4
  10   4 -31 337.937 275.261   4
  10  -4 -31 318.613 196.466   4
  10  -4 -30 10641.7 942.802   4
  10  -4 -29 454.019 241.921   4
  10  -4 -28 4546.95 592.034   4
  10  -4 -27 268.736 171.861   4
  10  -4 -26 1409.44 334.826   4
  10  -4 -25-30.6220 138.622   4
  10  -4 -24 9997.89 792.884   4
  10  -4 -23 415.556 200.960   4
  10  -4 -22 6281.94 598.291   4
 -10  -4  21 685.685 331.794   5
  10  -4 -21 575.425 201.461   4
  10  -4 -20 13097.8 802.209   4
 -10  -4  20 11672.5 1144.14   5
  10  -4 -19 182.325 155.985   4
 -10  -4  19 275.705 338.444   5
 -10  -4  18 880.670 397.241   5
  10  -4 -18 958.268 236.856   4
 -10  -4  17-9.55957 229.245   5
  10  -4 -17 247.534 139.413   4
  10  -4 -16 19222.6 857.175   4
 -10  -4  16 17260.4 1390.15   5
 -10  -4  15 247.118 351.940   5
  10  -4 -15 12.4265 110.933   4
 -10  -4  14 2600.63 545.041   5
  10  -4 -14 3332.98 331.249   4
 -10  -4  13 175.808 265.819   5
  10  -4 -13 595.463 152.002   4
  10  -4 -12 24630.2 797.569   4
 -10   4  12 24436.1 795.011   4
 -10  -4  12 22814.2 1493.36   5
 -10  -4  11 653.059 353.302   5
 -10   4  11 599.225 132.950   4
  10  -4 -11 399.212 121.548   4
 -10   4  10 4254.04 297.752   4
 -10  -4  10 4071.17 616.040   5
  10  -4 -10 4709.96 316.537   4
  10  -4 -10 2973.15 149.150   3
 -10  -4   9 332.274 299.405   5
  10  -4  -9 0.20254 55.0619   5
 -10   4   9 131.457 73.0818   4
  10  -4  -9 440.023 136.262   4
  10  -4  -8 16864.7 590.495   5
 -10   4   8 18458.8 538.127   4
  10  -4  -8 18824.8 537.498   4
 -10  -4   8 18373.1 1227.81   5
  10  -4  -7 80.6920 59.5318   5
 -10  -4   7-116.472 250.252   5
 -10   4   7 96.4671 61.7727   4
  10  -4  -7 48.4580 52.5852   4
  10   4  -7-23.6026 180.221   3
  10  -4  -6-13.1804 42.8474   5
 -10  -4   6-79.2463 234.434   5
  10  -4  -6 90.2567 46.9473   4
 -10   4   6 47.4617 35.2895   4
  10   4  -6-272.342 209.113   3
  10  -4  -5 466.700 91.4476   5
 -10   4   5 418.215 66.6268   4
  10   4  -5 419.541 191.745   3
 -10  -4   5 208.174 161.363   5
 -10   4   4 6760.81 205.851   4
 -10  -4   4 8638.72 748.259   5
  10   4  -4 8454.58 639.564   3
 -10  -4   3 807.259 292.766   5
  10   4  -3 581.624 197.990   3
 -10  -4   2 11315.8 850.144   5
  10   4  -2 11056.5 692.667   3
 -10  -4   1-2.28846 133.130   4
 -10   4   1 124.373 47.4495   3
 -10   4   0 10827.0 556.423   5
 -10  -4   0 9906.07 639.469   4
 -10   4  -1 520.884 150.373   5
 -10   4  -1 283.747 39.4104   4
 -10  -4  -1 494.265 206.011   4
 -10   4  -1 249.306 36.6688   4
 -10   4  -2 5529.27 502.669   5
 -10   4  -2 3865.36 168.509   4
 -10  -4  -2 4274.57 421.041   4
 -10   4  -2 3912.53 167.377   4
 -10   4  -3 239.622 160.229   5
 -10   4  -3 204.184 56.5404   4
 -10   4  -3 143.788 47.5831   4
 -10  -4  -3 341.272 166.981   4
 -10   4  -4 9836.37 340.951   4
 -10  -4  -4 10701.7 696.891   4
 -10   4  -4 11242.1 841.517   5
 -10   4  -5 180.425 86.2175   4
 -10   4  -5 143.312 153.471   5
 -10  -4  -5 397.566 292.360   4
 -10   4  -6 30023.4 698.773   4
 -10  -4  -6 29785.6 1157.56   4
 -10   4  -7 497.943 125.897   4
 -10  -4  -7 397.959 222.707   4
 -10   4  -8 3072.58 261.271   4
 -10  -4  -8 3206.87 415.065   4
 -10   4  -9 624.912 147.599   4
 -10  -4  -9 681.821 252.895   4
 -10   4 -10 7000.14 429.686   4
 -10  -4 -10 7224.74 616.979   4
 -10   4 -11 156.991 96.0441   4
 -10  -4 -11 217.011 197.729   4
 -10  -4 -11 28.0745 151.787   1
 -10  -4 -12 1430.55 375.820   1
 -10  -4 -12 1518.25 321.058   4
 -10   4 -12 1806.92 256.667   4
 -10   4 -13 233.768 136.105   4
 -10  -4 -13 140.993 413.028   1
 -10  -4 -13 505.445 320.832   4
 -10  -4 -14 23072.2 1471.66   1
 -10   4 -14 22777.8 915.174   4
 -10  -4 -14 23376.8 1195.51   4
 -10   4 -15 357.544 155.088   4
 -10  -4 -15 856.817 281.761   4
 -10  -4 -15 216.767 213.198   1
 -10   4 -16 44.1988 87.8010   4
 -10  -4 -16-54.6960 199.830   1
 -10   4 -17 269.298 154.583   4
 -10  -4 -17 246.985 251.440   4
 -10  -4 -17-157.002 157.926   1
 -10  -4 -18 9498.43 1002.72   1
 -10  -4 -18 9815.33 844.829   4
 -10   4 -18 9458.09 685.215   4
 -10   4 -19-6.00652 132.425   4
 -10  -4 -19-384.410 189.596   1
 -10  -4 -19-206.344 209.258   4
 -10   4 -20 767.492 232.385   4
 -10  -4 -20 672.223 281.035   1
 -10  -4 -20 560.819 253.713   4
 -10  -4 -21-20.3894 141.468   4
 -10  -4 -21 200.885 224.854   1
 -10   4 -21 138.012 126.715   4
 -10  -4 -22 10089.7 1088.64   1
 -10  -4 -22 10713.7 970.669   4
 -10   4 -22 10347.1 796.650   4
 -10  -4 -23 332.263 260.699   1
 -10  -4 -23 496.553 256.562   4
 -10   4 -23 289.357 137.841   4
 -10   4 -24 1161.16 296.781   4
 -10  -4 -24 1982.60 497.816   1
 -10  -4 -24 970.183 330.681   4
 -10   4 -25 218.232 166.551   4
 -10  -4 -25 422.874 257.373   4
 -10  -4 -25 123.834 198.648   1
 -10   4 -26 2125.54 409.348   4
 -10  -4 -26 1876.44 504.106   1
 -10  -4 -26 2060.03 481.819   4
 -10   4 -27-188.330 153.943   4
 -10  -4 -27 385.655 316.432   4
 -10  -4 -28 3980.42 660.159   4
  10  -6 -34 2691.40 570.259   4
  10  -6 -33 282.300 194.194   4
  10  -6 -32 1183.36 404.966   4
  10  -6 -31 165.979 168.641   4
  10  -6 -30 9288.08 932.875   4
  10  -6 -29 268.128 205.662   4
  10  -6 -28 6689.00 798.429   4
  10  -6 -27-168.712 167.349   4
  10  -6 -26 1033.42 316.284   4
  10  -6 -25-201.917 162.965   4
  10  -6 -24 5292.66 619.124   4
  10  -6 -23 4.95199 160.832   4
 -10  -6  23 315.120 278.537   5
  10  -6 -22 3772.63 496.603   4
 -10  -6  22 3500.67 749.763   5
 -10  -6  21 780.123 383.622   5
  10  -6 -21 841.422 272.681   4
  10  -6 -20 7090.11 636.582   4
 -10  -6  20 5966.15 940.426   5
 -10  -6  19 508.984 353.126   5
  10  -6 -19 530.969 227.551   4
 -10  -6  18 1123.85 493.651   5
  10  -6 -18 1137.65 262.215   4
  10  -6 -17 1388.96 282.930   4
 -10  -6  17 541.040 419.583   5
  10  -6 -16 17147.9 867.321   4
 -10  -6  16 15964.3 1519.84   5
 -10  -6  15 250.968 338.335   5
  10  -6 -15 136.501 143.814   4
  10  -6 -14 2558.66 324.296   4
 -10  -6  14 2393.11 569.525   5
 -10  -6  13 679.377 373.293   5
  10  -6 -13 1413.53 251.263   4
  10  -6 -13 826.750 219.662   5
  10  -6 -12 21403.5 1000.24   5
  10  -6 -12 23313.3 885.817   4
 -10  -6  12 20258.8 1648.58   5
 -10  -6  11 1249.96 564.656   5
  10  -6 -11 1298.10 257.792   5
  10  -6 -11 1356.76 224.637   4
  10  -6 -10 4242.81 447.240   5
 -10  -6  10 3792.86 701.453   5
  10  -6 -10 3761.66 336.560   4
  10   6 -10 3646.68 537.523   3
 -10  -6   9-49.2383 255.151   5
  10  -6  -9 84.8511 178.080   5
  10  -6  -9 204.848 121.542   4
  10   6  -9 281.382 288.936   3
  10  -6  -8 15954.1 631.539   4
 -10  -6   8 14861.1 1319.12   5
  10   6  -8 14505.6 987.198   3
 -10   6   8 15535.9 632.238   4
  10  -6  -8 17862.6 946.455   5
  10  -6  -7-199.192 153.700   5
 -10  -6   7-495.670 392.899   5
 -10   6   7 47.5936 100.080   4
  10   6  -7-196.270 205.801   3
  10  -6  -6 110.909 115.971   5
 -10  -6   6-266.534 336.785   5
 -10   6   6 103.719 75.8006   4
  10   6  -6-153.038 202.459   3
 -10   6   5 671.497 144.351   4
 -10  -6   5 451.860 255.413   5
  10   6  -5 722.527 251.681   3
 -10  -6   4 6965.87 830.895   5
  10   6  -4 6905.12 626.968   3
 -10   6   4 6573.28 348.080   4
  10  -6  -4 7052.86 565.698   5
  10   6  -3 636.927 249.903   3
 -10   6   3 377.697 137.024   4
 -10  -6   3 454.902 301.418   5
  10  -6  -3 56.7771 171.799   5
 -10  -6   2 9491.72 960.849   5
  10  -6  -2 9770.46 637.339   5
 -10   6   2 9076.60 388.071   4
 -10  -6   1 338.674 308.654   5
 -10   6   1-9.98801 85.0002   4
 -10  -6   0 8548.51 902.199   5
 -10   6   0 8149.67 358.290   4
 -10  -6  -1 910.005 379.149   5
 -10  -6  -2 2512.82 497.303   5
 -10  -6  -2 1978.26 333.783   4
 -10  -6  -3 1335.36 306.917   4
 -10  -6  -4 3776.30 469.540   4
 -10  -6  -5 2638.34 553.670   4
 -10  -6  -6 21506.2 1131.50   4
 -10   6  -7 688.151 163.025   4
 -10  -6  -7 787.410 341.925   4
 -10  -6  -8 3952.25 519.400   4
 -10   6  -8 3558.32 295.916   4
 -10   6  -9 926.866 168.776   4
 -10  -6  -9 1310.15 360.944   4
 -10   6 -10 6348.64 430.131   4
 -10  -6 -10 5795.36 619.801   4
 -10   6 -11 61.1154 114.181   4
 -10  -6 -11-109.884 153.631   4
 -10   6 -12 727.375 171.330   4
 -10  -6 -12 1100.20 309.345   4
 -10   6 -13 826.001 194.928   4
 -10  -6 -13 951.481 341.654   4
 -10  -6 -14 22264.4 1279.61   4
 -10  -6 -15 120.162 195.953   4
 -10  -6 -16 728.736 311.898   4
 -10  -6 -16 225.717 274.440   1
 -10  -6 -17-79.2060 262.494   1
 -10  -6 -17 399.484 241.282   4
 -10  -6 -18 5070.61 659.217   4
 -10  -6 -18 5179.77 800.142   1
 -10  -6 -19 584.104 251.371   4
 -10  -6 -19 136.645 223.301   1
 -10  -6 -20 554.466 287.644   4
 -10  -6 -20 669.961 360.479   1
 -10  -6 -21-237.647 197.880   1
 -10  -6 -21 61.1612 194.367   4
 -10  -6 -22 7532.46 1038.71   1
 -10  -6 -22 7797.95 863.992   4
 -10  -6 -23-278.375 373.897   1
 -10  -6 -23 688.938 280.035   4
 -10  -6 -24 983.737 413.902   1
 -10  -6 -24 402.551 250.777   4
 -10  -6 -25-14.7576 169.363   1
 -10  -6 -26 767.961 329.834   1
 -10  -8  23-182.330 211.873   5
 -10  -8  22 6019.71 1049.77   5
 -10  -8  21 2432.26 685.375   5
 -10  -8  20 7109.97 1131.04   5
 -10  -8  19 1468.96 576.609   5
 -10  -8  18 237.172 325.956   5
 -10  -8  17 1544.83 611.505   5
  10   8 -16 9507.27 1026.89   3
 -10  -8  16 9735.14 1358.16   5
 -10  -8  15 290.115 409.701   5
  10   8 -15 249.177 318.651   3
 -10  -8  14 1238.35 566.736   5
  10   8 -14 1297.70 380.524   3
  10   8 -13 940.785 384.891   3
 -10  -8  13 1010.02 539.674   5
 -10  -8  12 5915.75 1081.55   5
  10   8 -12 6790.28 791.238   3
 -10  -8  11 573.350 422.825   5
  10   8 -11 892.430 440.410   3
  10   8 -10 1644.80 443.342   3
 -10  -8  10 1192.98 499.643   5
 -10  -8   9 119.175 299.160   5
  10   8  -9 1168.07 468.131   3
 -10  -8   8 10322.8 1295.44   5
  10   8  -8 9689.33 873.696   3
 -10  -8   7 477.961 694.890   5
  10   8  -7 260.691 257.894   3
  10   8  -6-152.456 148.140   3
 -10  -8   6 39.6949 315.714   5
 -10  -8   5 1464.43 674.762   5
 -10  -8   4 6259.65 976.780   5
 -10  -8   3 1106.23 696.751   5
 -10  -8   2 10240.4 1198.46   5
 -10  -8   1 600.709 670.654   5
 -10  -8   0 8260.94 1080.66   5
 -10  -8  -1 671.259 503.286   5
 -10  -8  -2 361.078 224.460   5
 -10  -8  -3 23.5903 331.852   5
 -10  -8  -4 3162.69 646.817   5
 -10  -8  -5 4062.74 904.292   5
 -10  -8  -6 12225.4 1253.93   5
 -10  -8  -6 12290.7 970.149   4
 -10  -8  -7 1203.04 530.920   5
 -10  -8  -7 768.819 328.455   4
 -10  -8  -8 2137.68 574.403   5
 -10  -8  -8 1562.53 385.682   4
 -10  -8  -9 1344.23 379.759   4
 -10  -8 -10 3167.82 514.045   4
 -10  -8 -11-43.5925 143.795   4
 -10  -8 -12-34.8605 162.016   4
 -10  -8 -13 964.677 318.931   4
 -10  -8 -14 10237.8 970.028   4
 -10  -8 -15-70.2962 188.150   4
 -10  -8 -16 163.451 256.848   4
 -10  -8 -17-19.0724 164.235   4
 -10  -8 -18 2821.38 681.533   1
 -10  -8 -18 3226.23 589.816   4
 -10  -8 -19 364.829 272.186   1
 -10 -10  14 336.425 347.066   5
 -10 -10  13 2234.12 999.048   5
 -10 -10  12 10397.4 1558.96   5
 -10 -10  11 2596.18 1053.14   5
 -10 -10  10 1573.10 707.356   5
 -10 -10   9 1100.27 840.242   5
 -10 -10   8 7137.75 1263.68   5
 -10 -10   7-128.906 697.152   5
 -10 -10   6-327.866 468.181   5
 -10 -10   5 905.105 537.344   5
 -10 -10   4 1767.76 704.010   5
 -10 -10   3 431.723 606.958   5
 -10 -10   2 3446.88 876.752   5
 -10 -10   1 1405.29 808.343   5
 -10 -10   0 4565.74 997.655   5
 -10 -10  -1 1695.67 825.053   5
 -10 -10  -2 210.091 321.651   5
 -10 -10  -3 114.969 394.835   5
 -10 -10  -4 1555.91 597.528   5
 -10 -10  -5 914.611 556.810   5
 -10 -10  -6 5154.34 989.515   5
 -10 -10  -7 1145.19 530.764   5
  11  -1 -38 47.9214 142.052   4
  11   1 -38 97.2712 196.220   4
  11   1 -37 649.994 372.379   4
  11  -1 -37 369.362 249.052   4
  11  -1 -36 87.4635 161.385   4
  11   1 -36 595.304 361.936   4
  11   1 -35 10476.8 1080.28   4
  11  -1 -35 11355.0 1070.20   4
  11  -1 -34-277.238 262.044   4
  11   1 -34 210.276 264.516   4
  11  -1 -33 322.080 282.625   4
  11   1 -33 534.109 313.248   4
  11   1 -32 85.6422 154.103   4
  11  -1 -32 124.312 197.749   4
  11  -1 -31 4033.59 594.148   4
  11   1 -31 4969.36 674.616   4
  11  -1 -30-57.0523 143.813   4
  11   1 -30 81.4746 144.436   4
  11  -1 -29 1774.84 375.223   4
  11   1 -29 2222.62 465.089   4
  11  -1 -28 55.3884 134.841   4
  11   1 -28 327.819 289.251   4
  11   1 -27 25009.6 1376.85   4
  11  -1 -27 21030.5 1210.21   4
  11  -1 -26 961.025 266.062   4
  11   1 -26 460.285 285.589   4
  11  -1 -25 6007.75 619.360   4
  11   1 -25 6274.29 669.145   4
  11  -1 -24 373.035 212.117   4
  11  -1 -23 1435.86 323.730   4
  11  -1 -22-16.2359 132.930   4
  11  -1 -21 18551.4 956.957   4
  11  -1 -20 276.586 208.912   4
  11  -1 -19 12688.5 731.145   4
  11  -1 -18 274.765 156.710   4
  11  -1 -17 13563.0 711.302   4
  11  -1 -17 13377.2 826.138   5
  11  -1 -16-10.5885 83.1783   5
  11  -1 -16-112.643 122.451   4
 -11  -1  16 36.6064 39.1152   1
  11  -1 -15 699.994 209.798   5
  11  -1 -15 243.209 54.6055   1
  11  -1 -15 425.924 138.328   4
 -11  -1  15 514.880 265.029   5
 -11  -1  15 123.757 50.0439   1
  11  -1 -14 23.5668 38.9441   1
  11  -1 -14 177.748 118.205   5
 -11  -1  14 349.116 237.267   5
 -11  -1  14 160.365 80.0131   1
  11   1 -13 34777.7 1381.08   5
  11  -1 -13 30616.3 1053.35   5
 -11  -1  13 32582.9 727.056   1
  11  -1 -13 31491.9 688.018   1
 -11  -1  13 34008.3 1488.52   5
 -11  -1  12 245.465 202.094   5
  11  -1 -12 299.989 110.645   5
  11  -1 -12 289.119 87.0874   1
  11   1 -12 59.2820 98.1591   5
 -11  -1  12 414.468 113.275   1
  11   1 -11 7552.68 624.263   5
 -11  -1  11 6876.33 370.156   1
 -11   1  11 6712.78 374.872   2
  11  -1 -11 7234.03 371.324   1
 -11  -1  11 8017.31 691.648   5
  11  -1 -11 7574.93 474.804   5
 -11  -1  10-86.6282 146.167   5
  11  -1 -10-40.2425 78.7437   5
  11  -1 -10 175.102 90.3364   1
  11   1 -10 72.0091 108.147   5
 -11   1  10 54.4151 82.4389   2
 -11  -1  10 212.386 106.912   1
  11  -1  -9 19076.3 642.179   5
 -11  -1   9 19570.9 674.079   1
  11   1  -9 20775.4 943.749   5
 -11  -1   9 20296.8 994.396   5
 -11   1   9 18614.9 683.531   2
  11  -1  -9 20062.0 677.754   1
  11  -1  -8 107.009 111.172   1
 -11  -1   8 117.182 128.100   5
 -11   1   8 98.0628 111.196   2
 -11  -1   8 394.220 174.320   1
 -11   1   8 22.7564 60.2857   5
 -11  -1   7 12875.0 713.204   5
 -11  -1   7 13577.6 611.457   1
 -11   1   7 13071.4 620.260   2
  11  -1  -7 13819.5 624.031   3
  11  -1  -7 14192.9 620.286   1
 -11   1   7 13040.7 509.331   5
 -11   1   6 183.524 77.4372   5
 -11  -1   6 1317.70 289.453   1
 -11  -1   6 445.354 149.809   5
 -11   1   6 1058.91 261.192   2
  11   1  -6 753.616 158.322   4
  11  -1  -6 809.487 228.154   1
  11  -1  -6 756.017 172.873   3
 -11   1   5 35013.2 699.492   5
 -11   1   5 35258.6 1070.42   2
 -11  -1   5 34593.8 1050.65   5
 -11  -1   5 37045.5 1076.22   1
  11   1  -5 38546.8 943.499   4
  11  -1  -5 37871.8 1077.71   1
  11  -1  -5 37675.6 928.928   3
  11  -1  -4 85.5084 63.5846   3
  11  -1  -4 207.519 94.7312   1
 -11  -1   4 505.453 236.025   1
  11  -1  -4 244.865 55.3086   4
  11   1  -4 315.349 79.8688   4
  11   1  -3 300.702 81.6801   4
 -11   1   3 293.655 87.4912   3
  11  -1  -3 256.280 53.3082   4
  11  -1  -3 500.392 137.751   1
 -11  -1   2 133.920 99.8327   4
  11   1  -2 86.3311 90.7132   4
  11  -1  -2 201.940 139.691   1
  11  -1  -2 125.300 61.3662   4
 -11  -1   2 58.8957 78.2377   3
 -11   1   2 289.580 104.907   3
 -11  -1   1 27411.4 780.643   4
  11   1  -1 28779.5 802.881   4
  11  -1  -1 30259.1 1093.50   1
 -11  -1   1 29281.6 976.857   3
 -11   1   1 28710.0 832.748   3
  11  -1  -1 27213.8 529.549   4
 -11   1   0 41.6935 55.2338   3
  11  -1   0 35.5542 90.6154   1
 -11   1   0-0.38013 38.1076   4
 -11  -1   0 114.071 102.542   4
  11   1   0 123.376 93.7473   4
 -11  -1   0 69.0681 84.9594   3
  11  -1   0-6.20916 34.8951   4
 -11  -1  -1 10680.4 500.339   4
 -11   1  -1 10622.8 356.713   4
  11  -1   1 11564.9 731.012   1
  11   1   1 11178.2 526.230   4
 -11  -1  -1 10697.2 597.340   3
  11  -1   1 10099.3 359.078   4
  11  -1   2 157.503 60.5675   4
 -11  -1  -2 37.3851 77.5085   4
 -11   1  -2 198.483 67.5821   4
  11   1   2 214.572 84.3129   4
 -11   1  -3 15487.1 488.043   4
 -11  -1  -3 15029.8 626.453   4
  11   1   3 16537.6 666.181   4
  11  -1   3 15603.9 506.452   4
  11  -1   4 294.374 96.7001   4
 -11  -1  -4 526.741 171.408   4
 -11   1  -4 228.247 88.8652   4
  11   1   4 481.399 147.963   4
 -11  -1  -5 9686.93 524.967   4
  11  -1   5 10008.0 455.254   4
 -11   1  -5 9557.49 437.588   4
  11  -1   6-7.83107 65.2852   4
 -11  -1  -6 119.360 107.995   4
 -11   1  -6-29.6851 62.8300   4
  11  -1   7 9705.60 495.481   4
 -11  -1  -7 10332.3 820.185   1
 -11  -1  -7 9975.38 570.719   4
 -11   1  -7 9855.41 492.529   4
 -11  -1  -8 724.679 386.773   1
  11  -1   8 143.729 114.939   4
 -11  -1  -8 452.800 210.057   4
 -11   1  -8 576.513 199.679   4
 -11  -1  -9 42529.8 1705.98   1
 -11  -1  -9 43795.7 1253.61   4
 -11   1  -9 44678.9 1139.23   4
 -11  -1 -10 217.069 191.370   4
 -11   1 -10 81.6237 119.433   4
 -11  -1 -10 225.828 220.739   1
 -11  -1 -11 1664.08 376.178   1
 -11  -1 -11 1592.69 274.365   4
 -11   1 -11 1763.54 262.630   4
 -11  -1 -12 76.3108 159.516   1
 -11   1 -12 278.507 159.485   4
 -11  -1 -12-55.8335 111.476   4
 -11  -1 -13 4881.67 477.137   4
 -11   1 -13 5901.19 488.873   4
 -11  -1 -13 4993.28 655.821   1
 -11  -1 -14 176.916 185.558   1
 -11  -1 -14-118.538 162.573   4
 -11   1 -14 231.834 137.808   4
 -11   1 -15 105.243 150.885   2
 -11   1 -15 338.202 147.547   4
 -11  -1 -15 1.61705 115.529   4
 -11   1 -16 164.333 179.678   2
 -11  -1 -16 270.881 186.020   4
 -11   1 -16 368.151 212.146   4
 -11   1 -17 21177.4 1235.44   2
 -11  -1 -17 20927.3 1087.24   4
 -11   1 -17 20953.3 1027.78   4
 -11   1 -18 262.820 181.918   2
 -11  -1 -18 97.5912 149.745   4
 -11   1 -18 429.806 202.427   4
 -11   1 -19-20.3860 141.992   4
 -11   1 -19 305.509 173.670   2
 -11  -1 -19-57.9291 156.488   4
 -11   1 -20 188.517 202.475   2
 -11  -1 -20 231.310 198.327   4
 -11   1 -20 101.003 155.294   4
 -11   1 -21 9094.85 839.804   2
 -11  -1 -21 9247.17 799.141   4
 -11   1 -21 9624.91 769.524   4
 -11   1 -22 327.389 206.543   2
 -11  -1 -22 64.2520 141.190   4
 -11   1 -22 168.589 147.589   4
 -11   1 -23 448.547 255.830   2
 -11   1 -23 376.441 143.434   4
 -11  -1 -23 598.251 253.481   4
 -11   1 -24 222.673 211.483   4
 -11   1 -24 145.549 162.841   2
 -11  -1 -24-51.7744 153.018   4
 -11   1 -25 12190.6 1009.43   2
 -11  -1 -25 12511.3 1009.08   4
 -11   1 -25 11918.8 947.447   4
 -11   1 -26-64.4415 178.092   2
 -11   1 -26 115.669 167.122   4
 -11  -1 -26 291.601 281.280   4
 -11   1 -27 3771.08 639.357   2
 -11  -1 -27 2626.36 486.334   4
 -11   1 -27 2602.83 484.468   4
 -11  -1 -28-69.3734 208.213   2
 -11   1 -28 172.736 169.092   4
 -11   1 -28-132.222 143.039   2
 -11  -1 -28 396.668 218.829   4
 -11   1 -29 2771.97 515.588   4
 -11   1 -29 2672.08 514.250   2
 -11  -1 -29 2172.36 474.493   4
 -11   1 -30-414.566 183.626   4
 -11  -1 -30-366.193 263.664   4
 -11   1 -31 3321.35 598.515   4
  11  -3 -38 65.7248 189.045   4
  11  -3 -37 127.198 149.508   4
  11   3 -37 562.077 352.016   4
  11  -3 -36 313.033 243.317   4
  11   3 -36 769.876 381.686   4
  11   3 -35 12642.2 1240.65   4
  11  -3 -35 8283.84 926.290   4
  11  -3 -34 46.4703 148.648   4
  11   3 -34 229.051 204.960   4
  11  -3 -33-122.199 201.774   4
  11   3 -33 132.476 187.689   4
  11  -3 -32 16.7414 140.538   4
  11   3 -32 224.292 229.630   4
  11  -3 -31 3043.72 502.221   4
  11   3 -31 3565.37 605.097   4
  11  -3 -30 181.222 205.874   4
  11   3 -30 355.833 295.522   4
  11  -3 -29 1774.36 389.482   4
  11  -3 -28 202.151 211.520   4
  11  -3 -27 15591.0 1037.04   4
  11  -3 -26 751.049 252.174   4
  11  -3 -25 9093.31 750.317   4
  11  -3 -24 65.6015 118.613   4
  11  -3 -23 3658.52 462.147   4
  11  -3 -22 942.866 265.928   4
 -11  -3  22 320.138 110.403   2
 -11  -3  21 15930.1 700.965   2
  11  -3 -21 16570.5 632.927   2
  11  -3 -21 15651.1 878.461   4
  11  -3 -20 485.457 201.953   4
 -11  -3  20 495.013 280.073   5
  11  -3 -20 208.788 77.6187   2
 -11  -3  20 222.748 96.8909   2
  11  -3 -19 11189.1 696.839   4
  11  -3 -19 11866.0 560.072   2
 -11  -3  19 11881.9 1105.28   5
 -11  -3  18 1465.33 448.779   5
  11  -3 -18 1383.96 204.822   2
  11  -3 -18 1510.51 272.170   4
  11  -3 -17 10657.8 548.413   2
  11  -3 -17 10221.5 627.119   4
 -11  -3  17 10948.4 1064.41   5
  11  -3 -16 519.521 182.596   4
  11  -3 -16 398.129 118.041   2
 -11  -3  15 936.435 400.098   5
  11  -3 -15 848.038 196.642   4
  11  -3 -15 590.623 143.627   2
 -11  -3  14-206.472 202.002   5
  11  -3 -14 207.577 141.833   4
  11  -3 -14 261.261 119.219   2
  11  -3 -13 23118.2 839.749   2
 -11  -3  13 21096.2 1378.21   5
  11  -3 -13 23213.8 775.421   4
  11  -3 -12 608.035 144.216   4
 -11  -3  12 254.744 228.278   5
  11  -3 -12 693.485 171.236   2
  11  -3 -11 5501.20 423.782   2
 -11  -3  11 4770.36 647.998   5
  11  -3 -11 5508.72 341.762   4
  11  -3 -11 3969.51 238.911   5
  11  -3 -10 20.6530 49.6441   5
  11  -3 -10 99.8107 79.4844   4
  11  -3 -10 88.3499 101.579   2
 -11  -3   9 16408.7 1093.59   5
  11  -3  -9 17397.6 756.854   2
  11  -3  -9 17329.6 532.965   3
  11  -3  -9 17029.7 496.169   4
  11  -3  -8 1.06359 94.8662   2
  11  -3  -8 18.4679 43.4043   3
  11  -3  -8 58.2472 53.5665   4
 -11  -3   7 3169.45 465.833   5
  11  -3  -7 3114.04 165.437   4
 -11  -3   6-31.9635 166.334   5
  11  -3  -6 63.7899 28.9724   4
 -11  -3   5 27713.5 1251.84   5
 -11  -3   4 299.469 137.633   5
 -11  -3   3 141.262 129.002   5
 -11  -3   2 519.429 198.240   4
 -11   3   2 426.463 80.5723   5
 -11   3   2 733.389 119.656   3
 -11  -3   1 21632.8 866.154   4
 -11   3   1 22383.4 613.518   3
 -11   3   1 22499.7 711.843   5
 -11   3   0 442.326 145.047   5
 -11   3   0 669.875 130.302   3
 -11  -3   0 1055.90 283.460   4
 -11  -3  -1 21849.3 884.661   4
 -11   3  -1 21712.4 918.555   5
 -11   3  -2 255.115 147.912   5
 -11  -3  -2 89.2087 129.396   4
 -11  -3  -3 17443.0 819.171   4
 -11   3  -3 16214.5 363.296   4
 -11   3  -3 17578.0 926.742   5
 -11   3  -4 181.051 117.034   5
 -11  -3  -4 106.768 157.018   4
 -11   3  -4 613.686 340.018   2
 -11   3  -4 374.132 87.1986   4
 -11   3  -5 4694.01 533.469   2
 -11  -3  -5 4556.35 430.807   4
 -11   3  -5 4846.99 261.446   4
 -11   3  -5 3985.10 480.677   5
 -11   3  -6 110.595 127.497   5
 -11   3  -6 95.8569 64.4722   4
 -11  -3  -6 84.9985 141.346   1
 -11  -3  -6 120.032 128.895   4
 -11   3  -6 288.830 272.297   2
 -11   3  -7 5728.24 613.979   2
 -11  -3  -7 5486.70 498.802   4
 -11  -3  -7 5847.83 635.103   1
 -11   3  -7 5636.91 330.995   4
 -11   3  -8 154.519 99.5693   4
 -11  -3  -8 140.535 264.388   1
 -11  -3  -8 615.761 309.043   4
 -11   3  -8 575.444 370.150   2
 -11   3  -9 27974.1 1346.12   2
 -11  -3  -9 26802.1 1119.77   4
 -11  -3  -9 26818.5 1403.87   1
 -11   3  -9 28862.1 848.806   4
 -11   3 -10 167.246 106.708   4
 -11  -3 -10 105.413 170.159   4
 -11  -3 -10-91.9461 190.398   1
 -11  -3 -11 421.462 259.380   1
 -11   3 -11 671.274 164.483   4
 -11  -3 -11 403.604 199.442   4
 -11   3 -11 289.455 202.234   2
 -11   3 -12 367.419 136.484   4
 -11  -3 -12-162.186 173.879   1
 -11  -3 -12 209.581 159.738   4
 -11   3 -12 406.907 243.265   2
 -11   3 -13 6272.99 670.687   2
 -11  -3 -13 5162.69 690.674   1
 -11  -3 -13 5579.26 576.831   4
 -11   3 -13 5734.24 453.287   4
 -11   3 -14 156.384 106.615   4
 -11  -3 -14 51.9875 174.274   1
 -11  -3 -14 333.172 222.432   4
 -11   3 -14 262.122 198.204   2
 -11   3 -15 247.868 131.915   4
 -11   3 -15 105.771 164.252   2
 -11  -3 -15 544.436 283.875   1
 -11  -3 -15 417.272 252.944   4
 -11   3 -16 253.725 161.161   4
 -11  -3 -16 34.8348 229.703   1
 -11  -3 -16 743.784 319.698   4
 -11   3 -16 670.036 320.190   2
 -11   3 -17 25887.6 1408.96   2
 -11  -3 -17 25934.3 1640.87   1
 -11  -3 -17 27437.9 1340.34   4
 -11   3 -17 27260.7 1127.49   4
 -11  -3 -18 386.679 260.827   1
 -11   3 -18 701.339 207.171   4
 -11  -3 -18 742.503 285.678   4
 -11   3 -18 440.425 217.851   2
 -11  -3 -19 425.611 227.892   1
 -11  -3 -19 62.8241 184.269   4
 -11   3 -19 62.9747 158.590   2
 -11   3 -19 107.654 98.9614   4
 -11   3 -20 285.406 170.296   4
 -11  -3 -20 210.358 197.207   4
 -11  -3 -20 65.1156 213.608   1
 -11   3 -20 298.996 244.322   2
 -11   3 -21 8704.45 862.529   2
 -11  -3 -21 8830.46 980.553   1
 -11  -3 -21 9038.21 843.575   4
 -11   3 -21 8736.90 721.168   4
 -11   3 -22 541.634 232.789   4
 -11  -3 -22-122.713 165.581   4
 -11   3 -22 157.818 146.396   2
 -11  -3 -22 170.818 230.996   1
 -11  -3 -23 1028.39 346.983   1
 -11  -3 -23 934.412 271.949   4
 -11   3 -23 1038.49 257.477   4
 -11   3 -23 1325.51 359.123   2
 -11   3 -24 127.010 132.058   4
 -11  -3 -24 414.038 248.352   4
 -11   3 -24 579.427 307.512   2
 -11  -3 -25 13926.2 1122.97   4
 -11   3 -25 11575.3 920.946   4
 -11   3 -25 11398.8 1018.57   2
 -11   3 -26 195.056 143.247   4
 -11  -3 -26 417.090 245.654   4
 -11   3 -27 2673.17 474.731   4
 -11  -3 -27 2583.70 525.066   4
 -11   3 -28 240.284 250.286   4
 -11  -3 -28 176.834 229.917   4
 -11   3 -29 2402.87 455.987   4
 -11   3 -30 198.322 208.720   4
  11  -5 -36-144.006 202.996   4
  11  -5 -35 8742.60 966.174   4
  11   5 -34 238.127 314.673   4
  11  -5 -34 286.334 228.851   4
  11   5 -33 1213.27 419.067   4
  11  -5 -33 122.845 153.744   4
  11  -5 -32-340.648 270.859   4
  11  -5 -31 5073.78 684.070   4
  11  -5 -30-232.438 226.734   4
  11  -5 -29 75.6756 158.933   4
  11  -5 -28 127.705 189.980   4
  11  -5 -27 9608.68 860.640   4
  11  -5 -26 405.491 181.005   4
  11  -5 -25 5508.07 629.356   4
  11  -5 -24-94.0033 132.666   4
  11  -5 -23 1653.27 344.198   4
 -11  -5  23 970.897 410.124   5
  11  -5 -22 885.883 254.752   4
 -11  -5  22 1108.47 424.130   5
 -11  -5  21 9813.87 1140.71   5
  11  -5 -21 10048.6 754.578   4
 -11  -5  20 75.6127 291.074   5
  11  -5 -20 460.771 210.408   4
 -11  -5  19 4951.46 826.732   5
  11  -5 -19 5432.77 515.735   4
  11  -5 -18 1506.52 274.604   4
 -11  -5  18 809.666 406.055   5
  11  -5 -17 12525.5 727.144   4
 -11  -5  17 10621.6 1193.67   5
 -11  -5  16 1615.83 534.077   5
  11  -5 -16 1108.71 225.409   4
 -11  -5  15 688.008 479.293   5
  11  -5 -15 43.8791 97.5564   4
 -11  -5  14 425.418 311.122   5
  11  -5 -14 903.172 189.084   4
  11  -5 -13 23535.4 842.362   4
 -11  -5  13 21493.2 1585.06   5
 -11  -5  12 239.199 273.529   5
  11  -5 -12-6.36906 83.4495   5
 -11   5  12 35.7747 67.5937   4
  11  -5 -12 166.357 112.670   4
 -11  -5  11 1559.02 488.550   5
 -11   5  11 1969.70 221.372   4
  11  -5 -11 1972.12 247.159   5
  11  -5 -11 2236.37 242.456   4
  11  -5 -10 146.604 121.653   5
 -11   5  10 209.675 85.7878   4
  11  -5 -10 131.469 94.3890   4
 -11  -5   9 21949.2 1501.84   5
  11  -5  -9 21566.8 800.283   5
 -11   5   9 20660.3 634.160   4
  11   5  -9 21357.1 1224.88   3
  11  -5  -9 22308.2 660.496   4
  11  -5  -8 34.2377 88.0035   5
 -11  -5   8 227.261 242.656   5
 -11   5   8 369.806 101.438   4
  11  -5  -8 438.130 101.332   4
  11   5  -8 460.333 230.597   3
 -11   5   7 4743.42 263.522   4
  11   5  -7 3909.61 500.945   3
 -11  -5   7 4716.02 686.575   5
  11  -5  -7 4543.60 336.317   5
 -11  -5   6 377.181 306.544   5
  11  -5  -6 11.3706 98.5973   5
 -11   5   6 287.081 88.3135   4
  11   5  -6 117.546 183.702   3
 -11  -5   5 15921.3 1174.23   5
 -11   5   5 14835.0 385.214   4
  11   5  -5 15392.0 930.284   3
  11  -5  -5 15268.2 550.559   5
 -11  -5   4-136.941 219.467   5
 -11   5   4 172.053 55.4759   4
  11   5  -4-214.160 180.761   3
 -11  -5   3-239.525 274.477   5
 -11   5   3 10.9769 14.8717   4
  11   5  -3-65.1091 116.287   3
 -11  -5   2 138.625 163.477   5
 -11  -5   1 7978.28 792.688   5
 -11  -5   0 891.413 281.908   4
 -11   5   0 592.333 72.4885   3
 -11   5  -1 8312.86 555.282   5
 -11  -5  -1 8092.67 636.047   4
 -11   5  -1 5597.73 168.499   4
 -11   5  -1 7381.62 303.953   3
 -11   5  -2 185.134 87.7626   5
 -11   5  -2 44.6958 35.8931   4
 -11   5  -3 8802.86 676.707   5
 -11   5  -3 6977.63 255.710   4
 -11  -5  -3 9106.05 685.101   4
 -11   5  -3 7056.67 264.137   4
 -11   5  -4 481.704 88.6692   4
 -11  -5  -4 830.346 287.262   4
 -11   5  -4 436.103 80.3756   4
 -11   5  -5 6299.08 295.599   4
 -11   5  -5 6614.32 315.922   4
 -11  -5  -5 6618.74 600.916   4
 -11   5  -6 64.7371 53.9569   4
 -11   5  -6 11.2567 47.2829   4
 -11  -5  -6 53.7844 210.124   4
 -11   5  -7 5331.38 315.522   4
 -11  -5  -7 5410.72 559.388   4
 -11  -5  -8 780.087 483.639   4
 -11   5  -8 199.807 102.988   4
 -11   5  -9 34637.2 898.564   4
 -11  -5  -9 34790.1 1423.19   4
 -11   5 -10 268.043 151.468   4
 -11  -5 -10 170.696 218.566   4
 -11   5 -11 1569.94 219.644   4
 -11  -5 -11 1489.85 305.117   4
 -11   5 -12 813.811 173.330   4
 -11  -5 -12 964.667 304.574   4
 -11  -5 -13 4897.91 715.159   1
 -11  -5 -13 5810.08 625.699   4
 -11   5 -13 5618.59 445.552   4
 -11   5 -14 91.5286 97.9021   4
 -11  -5 -14 304.981 157.300   1
 -11  -5 -14-43.6329 185.057   4
 -11   5 -15 376.232 144.278   4
 -11  -5 -15 137.447 168.220   1
 -11  -5 -15 126.393 139.651   4
 -11   5 -16 581.941 186.244   4
 -11  -5 -16 34.2731 142.902   4
 -11  -5 -16 342.479 292.817   1
 -11  -5 -17 13355.7 1253.75   1
 -11  -5 -17 13132.3 1026.48   4
 -11   5 -17 12691.9 751.524   4
 -11  -5 -18 515.461 297.402   1
 -11   5 -18 454.429 186.018   4
 -11  -5 -18 517.205 261.925   4
 -11  -5 -19-268.566 246.053   1
 -11   5 -19 86.6032 105.658   4
 -11  -5 -19 318.218 287.207   4
 -11  -5 -20 190.700 314.387   1
 -11  -5 -20 314.185 216.929   4
 -11  -5 -21 6147.40 918.810   1
 -11  -5 -21 5626.80 714.103   4
 -11  -5 -22 83.1431 152.162   4
 -11  -5 -22 155.866 200.782   1
 -11  -5 -23 1055.94 347.302   4
 -11  -5 -23-20.7204 226.916   1
 -11  -5 -24 408.920 281.382   4
 -11  -5 -24 247.734 320.961   1
 -11  -5 -25 8568.32 1084.50   1
 -11  -5 -25 9427.51 995.437   4
 -11  -5 -26 386.432 258.446   1
 -11  -5 -27 1951.07 538.453   1
  11  -7 -32-65.4714 174.741   4
  11  -7 -31 2273.17 507.917   4
  11  -7 -30 109.386 217.904   4
  11  -7 -29 776.550 315.308   4
  11  -7 -28 994.097 306.764   4
  11  -7 -27 7571.23 810.369   4
  11  -7 -26 468.604 246.119   4
  11  -7 -25 7169.07 762.102   4
  11  -7 -24 183.618 188.269   4
 -11  -7  24 98.1435 344.092   5
  11  -7 -23 3808.72 525.992   4
 -11  -7  23 4156.50 855.609   5
  11  -7 -22 1093.87 292.095   4
 -11  -7  22 349.475 307.492   5
 -11  -7  21 5192.88 982.130   5
  11  -7 -21 7084.94 678.587   4
 -11  -7  20 369.933 370.367   5
  11  -7 -20 805.422 256.142   4
 -11  -7  19 4594.32 896.459   5
  11  -7 -19 4608.62 518.878   4
  11  -7 -18 1188.40 259.985   4
 -11  -7  18 968.134 434.069   5
  11  -7 -17 8243.96 642.011   4
 -11  -7  17 8173.04 1179.81   5
 -11  -7  16 2191.40 683.002   5
  11  -7 -16 1959.87 329.114   4
 -11  -7  15-57.2035 207.148   5
  11  -7 -15 118.599 119.877   4
 -11  -7  14-66.9913 228.493   5
  11  -7 -14 538.246 187.842   4
  11   7 -14 334.976 264.822   3
  11  -7 -13 12966.5 711.943   4
 -11  -7  13 10555.5 1285.89   5
  11   7 -13 12919.8 1115.59   3
 -11  -7  12-243.627 239.795   5
  11  -7 -12 81.4986 118.413   4
  11   7 -12 304.740 429.860   3
 -11  -7  11 730.070 388.710   5
  11  -7 -11 656.283 163.018   4
  11   7 -11 542.661 203.626   3
 -11  -7  10 840.691 529.224   5
  11   7 -10 709.458 333.981   3
  11   7  -9 12416.0 993.609   3
 -11  -7   9 11543.3 1296.19   5
  11  -7  -8 404.466 235.881   5
 -11  -7   8 230.333 384.279   5
  11   7  -8 669.184 453.253   3
  11   7  -7 710.964 248.163   3
  11  -7  -7 514.777 158.882   5
 -11  -7   6-192.964 280.327   5
  11  -7  -6 23.5347 303.458   5
  11   7  -6 522.233 364.871   3
  11   7  -5 9263.28 799.529   3
 -11  -7   5 8896.61 1051.76   5
  11  -7  -5 10018.1 686.547   5
 -11  -7   4-196.362 290.623   5
  11  -7  -4 247.338 238.453   5
 -11  -7   3-76.1628 257.682   5
  11  -7  -3 124.931 90.7113   5
 -11  -7   2 391.245 354.052   5
 -11  -7   1 11305.0 1161.86   5
 -11  -7   0 2584.24 692.051   5
 -11  -7  -1 10220.4 1076.28   5
 -11  -7  -2 362.494 421.436   5
 -11  -7  -3 6790.25 869.903   5
 -11  -7  -4 935.560 426.641   5
 -11  -7  -4 455.658 300.880   4
 -11  -7  -5 3249.01 615.957   5
 -11  -7  -5 3012.09 454.699   4
 -11  -7  -6 201.491 241.634   4
 -11  -7  -7 3925.85 538.122   4
 -11  -7  -8 528.652 308.350   4
 -11  -7  -9 10008.5 867.328   4
 -11  -7 -10 226.254 232.030   4
 -11  -7 -11 724.751 266.107   4
 -11  -7 -12 1023.10 347.252   4
 -11  -7 -13 4970.78 655.771   4
 -11  -7 -14 325.314 265.260   4
 -11  -7 -15 461.457 271.975   4
 -11  -7 -16 1087.03 357.055   4
 -11  -7 -16 808.214 368.242   1
 -11  -7 -17 15497.7 1517.26   1
 -11  -7 -17 13247.1 1116.44   4
 -11  -7 -18 219.034 242.478   4
 -11  -7 -18 357.632 266.398   1
 -11  -7 -19-49.2952 191.859   4
 -11  -7 -19 180.453 264.967   1
 -11  -7 -20 287.450 242.436   4
 -11  -7 -20 137.963 209.412   1
 -11  -7 -21 4307.27 823.615   1
 -11  -7 -22 523.930 257.012   1
 -11  -7 -23-197.149 268.027   1
  11   9 -21 4050.42 754.710   3
 -11  -9  20 202.251 339.544   5
  11   9 -20 275.989 242.345   3
 -11  -9  19 2946.72 820.637   5
  11   9 -19 3087.82 643.959   3
  11   9 -18 2007.78 535.462   3
 -11  -9  18 2304.63 817.461   5
 -11  -9  17 7067.93 1235.97   5
  11   9 -17 6870.97 954.698   3
 -11  -9  16 1425.08 589.107   5
  11   9 -16 1420.87 433.575   3
 -11  -9  15-197.396 384.239   5
  11   9 -15 68.6118 155.032   3
 -11  -9  14 199.223 343.389   5
  11   9 -14 394.702 278.594   3
 -11  -9  13 5899.10 1125.87   5
  11   9 -13 5075.68 750.689   3
 -11  -9  12 343.301 642.737   5
  11   9 -12 160.604 290.292   3
 -11  -9  11 1221.41 546.948   5
  11   9 -11 442.734 213.245   3
  11   9 -10 1398.81 473.417   3
 -11  -9  10 1828.03 825.030   5
  11   9  -9 7525.91 821.330   3
 -11  -9   9 8222.36 1268.45   5
 -11  -9   8 187.971 609.149   5
 -11  -9   7 997.192 451.160   5
 -11  -9   6 192.470 418.136   5
 -11  -9   5 8929.81 1262.68   5
 -11  -9   4 777.419 440.987   5
 -11  -9   3 179.788 212.042   5
 -11  -9   2 264.590 275.441   5
 -11  -9   1 4925.38 928.787   5
 -11  -9   0 2002.53 768.717   5
 -11  -9  -1 4489.14 882.716   5
 -11  -9  -2 424.907 553.589   5
 -11  -9  -3 5060.71 944.424   5
 -11  -9  -4 1128.70 622.326   5
 -11  -9  -5 3209.88 748.042   5
 -11  -9  -6 75.3685 326.047   5
 -11  -9  -7 3898.26 809.925   5
 -11  -9  -8 1412.11 599.511   5
 -11  -9  -9 8387.30 1154.39   5
 -11  -9 -10 560.210 434.364   5
 -11  -9 -10 260.489 295.458   4
 -11  -9 -11 495.311 394.858   5
 -11  -9 -11 1044.43 360.728   4
 -11  -9 -12 2697.17 705.207   5
 -11  -9 -12 493.834 294.251   4
 -11  -9 -13 1590.06 549.407   5
  12   0 -39-112.912 216.586   4
  12   0 -38 136.925 215.793   4
  12   0 -37 59.1618 207.080   4
  12   0 -36 7088.01 881.909   4
  12   0 -35-59.8968 220.017   4
  12   0 -34 398.431 245.543   4
  12   0 -33 445.266 361.217   4
  12   0 -32 15421.6 1193.34   4
  12   0 -31 73.9487 222.670   4
  12   0 -30 1410.49 358.111   4
  12   0 -29 145.679 183.620   4
  12   0 -28 5955.48 677.700   4
  12   0 -27-148.449 171.012   4
  12   0 -26 3166.74 477.063   4
  12   0 -25 288.231 235.110   4
  12   0 -24 15568.3 979.204   4
  12   0 -23 219.998 206.564   4
  12   0 -22 4338.85 495.369   4
  12   0 -21 71.8089 156.614   4
  12   0 -16 16267.0 947.315   5
  12   0 -15-10.3407 86.8191   5
 -12   0  15 3.60286 27.3561   2
  12   0 -14 41910.0 1429.25   5
 -12   0  14 39275.1 729.569   2
  12   0 -13 148.674 88.8099   5
 -12   0  13 69.5613 166.624   5
  12   0 -12 819.916 193.311   5
 -12   0  12 1122.74 263.898   5
 -12   0  11 102.913 151.578   5
  12   0 -11 1323.18 247.069   5
  12   0 -10 49508.3 1308.93   5
 -12   0  10 50535.3 1491.71   5
 -12   0   9-29.8066 131.793   5
  12   0  -9-39.8867 87.9963   5
 -12   0   8 1232.53 219.282   5
  12   0  -8 1352.16 191.190   1
  12   0  -7 235.203 147.837   1
 -12   0   7 60.9056 75.6826   5
  12   0  -7 16.7991 104.113   3
 -12   0   6 18948.3 719.430   5
  12   0  -6 19409.6 764.128   1
  12   0  -6 20037.2 626.302   4
  12   0  -6 19762.8 813.951   3
 -12   0   5-81.4742 89.1987   5
  12   0  -5 40.1750 53.2997   4
  12   0  -5 3.86955 93.8077   1
  12   0  -5-50.1903 98.8590   3
  12   0  -4 4937.56 418.749   1
  12   0  -4 4594.01 284.319   4
  12   0  -4 4759.75 382.232   3
  12   0  -3 243.311 158.506   3
 -12   0   3 136.995 107.419   3
  12   0  -3 74.9639 76.8635   4
  12   0  -3 233.124 157.626   1
  12   0  -2 29259.8 1066.68   1
  12   0  -2 28318.3 701.663   4
 -12   0   2 30167.6 964.813   3
 -12   0   1 162.133 96.1300   4
  12   0  -1 0.22801 51.8234   4
 -12   0   1 269.702 135.282   3
  12   0  -1 182.179 176.032   1
  12   0   0 2118.50 306.866   1
  12   0   0 2197.56 205.424   4
 -12   0   0 2246.80 269.143   3
 -12   0   0 2111.67 202.362   4
 -12   0  -1 26.6793 81.9670   3
 -12   0  -1 40.5188 69.2621   4
  12   0   1-69.0108 63.4610   4
 -12   0  -2 19893.6 633.801   4
  12   0   2 20723.3 665.709   4
 -12   0  -3 537.789 164.573   4
  12   0   3 234.323 127.425   4
 -12   0  -4 27288.9 801.293   4
  12   0   4 28553.5 836.773   4
  12   0   5-54.2382 75.3028   4
 -12   0  -5 51.6241 84.3254   4
  12   0   6 12364.0 590.932   4
 -12   0  -6 12151.5 576.148   4
 -12   0  -7 90.3744 115.923   4
 -12   0  -8 591.686 167.474   4
 -12   0  -9-70.5056 117.572   4
 -12   0 -10 5762.27 462.623   4
 -12   0 -11 481.584 222.565   4
 -12   0 -12 33306.1 1175.56   4
 -12   0 -13 33.1137 130.496   4
 -12   0 -14 3895.64 449.150   4
 -12   0 -15 180.982 140.764   4
 -12   0 -16 8482.22 671.715   4
 -12   0 -17-42.4647 142.966   4
 -12   0 -18-13.5001 114.652   4
 -12   0 -19 201.180 178.491   4
 -12   0 -20 14255.7 951.672   4
 -12   0 -21 12.0525 151.866   4
 -12   0 -22 548.987 238.190   4
 -12   0 -23 40.5002 151.709   2
 -12   0 -23 248.082 168.719   4
 -12   0 -24 3193.39 550.586   2
 -12   0 -24 2467.22 443.535   4
 -12   0 -25-176.015 177.027   2
 -12   0 -25-34.6473 205.088   4
 -12   0 -26 1349.49 381.452   2
 -12   0 -26 1373.57 356.344   4
 -12   0 -27 24.5836 151.158   2
 -12   0 -27-21.7207 174.104   4
 -12   0 -28 16050.9 1240.72   2
 -12   0 -28 15978.5 1217.94   4
 -12   0 -29 276.781 200.355   4
 -12   0 -30 362.403 176.094   4
  12  -2 -38 157.750 183.692   4
  12   2 -38 397.496 275.511   4
  12  -2 -37 19.4223 149.725   4
  12   2 -37-22.7769 239.335   4
  12  -2 -36 3901.42 646.078   4
  12   2 -36 4611.42 751.906   4
  12   2 -35 68.8924 265.656   4
  12  -2 -35-226.497 248.631   4
  12  -2 -34 401.771 286.727   4
  12   2 -34 319.747 249.918   4
  12  -2 -33 273.202 231.769   4
  12   2 -33 155.186 231.340   4
  12   2 -32 16974.9 1301.59   4
  12  -2 -32 13564.8 1085.75   4
  12  -2 -31-16.6125 151.200   4
  12   2 -31 35.7921 187.442   4
  12  -2 -30 950.835 294.288   4
  12   2 -30 979.565 359.577   4
  12  -2 -29-3.99359 164.002   4
  12   2 -29-58.1689 196.254   4
  12  -2 -28 3538.95 501.334   4
  12   2 -28 4174.44 613.724   4
  12  -2 -27-75.6872 160.261   4
  12  -2 -26 991.881 278.132   4
  12  -2 -25 580.439 262.032   4
  12  -2 -24 18331.3 1033.75   4
  12  -2 -23 183.658 166.872   4
  12  -2 -22 7436.23 622.966   4
  12  -2 -21 354.595 188.915   4
 -12  -2  21 123.460 57.3641   2
 -12  -2  20 2502.35 207.064   2
  12  -2 -20 2770.33 374.394   4
  12  -2 -19 873.859 221.484   4
 -12  -2  19 1020.94 378.423   5
  12  -2 -18 14229.8 747.575   4
 -12  -2  18 17065.8 1239.70   5
  12  -2 -18 14505.2 838.963   5
  12  -2 -17 186.099 100.869   5
  12  -2 -17 527.924 193.622   4
 -12  -2  17 166.014 236.020   5
  12  -2 -16 9443.01 571.972   4
  12  -2 -16 8987.81 605.598   5
 -12  -2  16 9591.11 928.036   5
  12  -2 -15 389.317 142.016   5
 -12  -2  15 14.9774 209.334   5
  12  -2 -15 89.6884 139.924   4
  12  -2 -14 8697.87 498.837   4
  12  -2 -14 7305.96 479.652   5
 -12  -2  14 9358.09 900.636   5
  12  -2 -13-11.7519 57.5013   5
 -12  -2  13 147.738 185.164   5
  12  -2 -13 27.2436 94.8438   4
  12  -2 -12 132.110 75.6403   5
  12  -2 -12 160.992 94.4006   4
 -12  -2  11 424.671 228.771   5
  12  -2 -11 350.746 93.4590   5
  12  -2 -11 709.108 151.298   4
  12  -2 -10 21428.0 618.780   4
 -12  -2  10 24416.7 1251.53   5
 -12  -2   9-42.8688 172.378   5
  12  -2  -9 338.570 102.304   4
 -12  -2   8 2539.65 379.584   5
  12  -2  -8 2861.37 192.227   4
  12  -2  -8 2855.58 258.327   3
 -12   2   8 2257.73 296.535   2
  12  -2  -7 1774.19 182.985   4
 -12  -2   7 903.305 294.873   5
 -12   2   7 1138.87 304.838   2
  12  -2  -7 763.747 171.191   3
  12  -2  -6 51249.3 621.768   4
 -12   2   6 54339.0 1475.91   2
  12  -2  -6 58103.6 1047.99   3
 -12  -2   6 57753.7 1648.15   5
 -12  -2   5 595.726 206.738   5
  12  -2  -5 759.869 69.0331   4
  12  -2  -5 534.110 53.7839   4
 -12  -2   4 12658.1 737.524   5
 -12   2   3 693.503 163.354   3
 -12  -2   2 39998.1 1064.99   4
 -12   2   2 40767.6 960.337   3
 -12  -2   1 355.465 140.162   4
 -12   2   1 217.832 87.5052   3
 -12  -2   0 1207.79 197.190   4
 -12   2   0 1335.74 183.639   3
 -12   2  -1 18.4401 27.0762   4
 -12  -2  -1-10.8214 97.6122   4
 -12  -2  -2 5499.05 427.753   4
 -12   2  -2 5428.05 226.419   4
 -12  -2  -3 584.391 205.273   4
 -12   2  -3 465.365 86.8459   4
 -12  -2  -4 13623.9 693.529   4
 -12   2  -4 13997.9 447.962   4
 -12  -2  -5 246.716 229.376   1
 -12   2  -5 704.695 320.197   2
 -12  -2  -5 535.387 183.072   4
 -12   2  -5 396.073 97.8268   4
 -12  -2  -6 11626.1 877.443   1
 -12   2  -6 10461.2 789.150   2
 -12  -2  -6 10874.2 647.216   4
 -12   2  -6 11467.6 477.488   4
 -12  -2  -7 524.965 250.356   1
 -12   2  -7 765.945 277.112   2
 -12  -2  -7 762.420 212.582   4
 -12   2  -7 563.792 133.345   4
 -12  -2  -8 1754.74 399.913   1
 -12   2  -8 2200.14 406.589   2
 -12  -2  -8 1828.72 288.101   4
 -12   2  -8 1874.90 224.432   4
 -12   2  -9 448.123 153.212   4
 -12   2  -9 551.336 268.254   2
 -12  -2  -9 342.360 231.985   1
 -12  -2  -9 131.014 149.844   4
 -12   2 -10 5925.46 646.580   2
 -12  -2 -10 5865.46 690.449   1
 -12  -2 -10 6122.38 530.331   4
 -12   2 -10 5837.65 428.358   4
 -12   2 -11 919.813 356.699   2
 -12  -2 -11 396.003 260.975   4
 -12  -2 -11 311.795 311.652   1
 -12   2 -11 341.502 155.699   4
 -12   2 -12 24560.3 1309.60   2
 -12  -2 -12 23618.0 1434.18   1
 -12  -2 -12 25214.3 1123.19   4
 -12   2 -12 25381.2 944.587   4
 -12  -2 -13 24.5469 172.094   1
 -12   2 -13 413.121 227.268   2
 -12  -2 -13 376.305 228.855   4
 -12   2 -13 468.356 171.755   4
 -12  -2 -14 1067.39 331.273   1
 -12   2 -14 705.020 270.123   2
 -12  -2 -14 979.122 250.701   4
 -12   2 -14 938.060 218.708   4
 -12   2 -15 382.337 182.818   4
 -12   2 -15 479.024 292.248   2
 -12  -2 -15 187.450 205.268   4
 -12  -2 -15 421.547 256.605   1
 -12   2 -16 6012.47 695.486   2
 -12  -2 -16 5785.04 755.600   1
 -12  -2 -16 5617.79 588.188   4
 -12   2 -16 6134.34 534.890   4
 -12   2 -17-86.7401 121.965   4
 -12   2 -17-219.201 218.076   2
 -12  -2 -17-5.35162 149.204   4
 -12  -2 -17-228.560 213.763   1
 -12  -2 -18 126.321 182.240   1
 -12   2 -18-109.051 112.004   4
 -12   2 -18-137.092 242.588   2
 -12  -2 -18-138.696 217.285   4
 -12   2 -19 812.978 310.137   2
 -12  -2 -19 757.804 307.873   4
 -12   2 -19 249.864 186.705   4
 -12   2 -20 24147.2 1413.14   2
 -12  -2 -20 23390.7 1288.41   4
 -12   2 -20 22690.2 1145.58   4
 -12   2 -21 983.467 325.109   2
 -12  -2 -21 265.540 182.895   4
 -12   2 -21 588.231 243.945   4
 -12   2 -22 222.290 210.119   2
 -12  -2 -22 258.450 183.055   4
 -12   2 -22 412.086 225.530   4
 -12   2 -23 64.9796 219.979   2
 -12  -2 -23 189.680 187.776   4
 -12   2 -23 486.740 235.326   4
 -12   2 -24 5867.51 754.363   2
 -12  -2 -24 6071.65 708.959   4
 -12   2 -24 6260.62 672.495   4
 -12   2 -25 398.203 280.243   2
 -12  -2 -25-264.087 205.492   4
 -12   2 -25 140.354 149.244   4
 -12   2 -26 1116.37 370.585   2
 -12  -2 -26 931.746 301.300   4
 -12   2 -26 972.463 284.292   4
 -12   2 -27-304.346 236.335   2
 -12  -2 -27 20.9328 179.800   4
 -12   2 -27 445.081 300.287   4
 -12   2 -28 6612.21 816.534   2
 -12  -2 -28 7059.71 842.046   4
 -12   2 -28 6473.37 766.837   4
 -12  -2 -29 145.719 168.669   4
 -12   2 -29 109.197 138.267   4
 -12   2 -30 239.752 179.523   4
 -12   2 -31-287.790 207.935   4
  12  -4 -37 580.857 269.193   4
  12   4 -36 3506.93 668.559   4
  12  -4 -36 1954.30 443.453   4
  12   4 -35 326.187 200.247   4
  12  -4 -35 163.610 184.114   4
  12   4 -34 112.020 200.414   4
  12  -4 -34 151.992 220.727   4
  12   4 -33 856.566 376.838   4
  12  -4 -33 188.696 179.166   4
  12   4 -32 15406.7 1292.03   4
  12  -4 -32 11257.8 1006.18   4
  12  -4 -31 332.883 210.043   4
  12  -4 -30 1140.42 320.000   4
  12  -4 -29 273.652 205.797   4
  12  -4 -28 4684.21 593.935   4
  12  -4 -27 539.510 244.013   4
  12  -4 -26 1951.20 383.552   4
  12  -4 -25 373.811 208.757   4
  12  -4 -24 17636.8 1025.86   4
  12  -4 -23 301.290 209.064   4
  12  -4 -22 2387.94 391.993   4
 -12  -4  22 2773.07 622.741   5
  12  -4 -21 85.5619 131.069   4
 -12  -4  21 516.819 332.726   5
 -12  -4  20 1443.98 452.456   5
  12  -4 -20 1356.45 276.247   4
 -12  -4  19 244.409 297.376   5
  12  -4 -19 976.503 234.886   4
  12  -4 -18 10712.6 665.831   4
 -12  -4  18 8578.65 1025.32   5
 -12  -4  17-12.6033 251.431   5
  12  -4 -17 164.365 151.716   4
  12  -4 -16 8133.19 543.207   4
 -12  -4  16 6336.58 864.701   5
 -12  -4  15-31.4705 211.422   5
  12  -4 -15 274.576 151.323   4
  12  -4 -14 16934.6 705.347   4
 -12  -4  14 14560.9 1238.44   5
 -12  -4  13-28.3432 293.985   5
  12  -4 -13 254.220 106.148   4
 -12  -4  12-166.326 253.419   5
  12  -4 -12 128.309 88.2616   4
 -12  -4  11 540.884 360.210   5
  12  -4 -11 165.178 63.1854   5
  12  -4 -11 442.831 119.184   4
  12  -4 -11 297.917 59.7258   3
 -12  -4  10 22445.0 1427.87   5
  12  -4 -10 23403.4 628.229   4
 -12  -4   9-110.855 237.727   5
  12   4  -9-391.552 202.687   3
  12  -4  -9 65.7725 60.1232   4
  12  -4  -8 1884.91 146.053   4
  12   4  -8 1493.89 306.961   3
 -12  -4   8 1504.44 369.926   5
 -12  -4   7 145.318 188.292   5
  12  -4  -7 482.685 69.9726   4
  12   4  -7 486.730 265.415   3
 -12  -4   6 20686.7 1254.43   5
  12   4  -6 20050.9 1052.60   3
 -12  -4   5 1197.08 358.275   5
  12   4  -5 918.363 264.570   3
 -12  -4   4 7788.70 737.749   5
  12   4  -4 7338.27 622.972   3
  12   4  -3 321.684 211.316   3
 -12  -4   3 259.531 228.616   5
 -12  -4   2 25309.4 1293.97   5
  12   4  -2 23395.2 1065.52   3
 -12   4   1 1371.33 172.536   5
 -12  -4   1 1543.28 285.094   4
 -12   4   1 1276.84 142.567   3
 -12   4   0 440.335 125.819   5
 -12  -4   0 276.194 147.684   4
 -12   4   0 371.180 87.4675   3
 -12   4  -1 756.894 184.710   5
 -12  -4  -1 504.884 199.478   4
 -12  -4  -2 7964.65 610.804   4
 -12   4  -2 8908.15 658.216   5
 -12   4  -3 281.618 152.985   5
 -12  -4  -3 458.261 251.530   4
 -12   4  -4 12096.2 885.291   5
 -12  -4  -4 12551.6 780.000   4
 -12   4  -4 10274.1 300.786   4
 -12   4  -5 49.8337 52.3605   4
 -12   4  -5 122.448 94.6104   5
 -12  -4  -5-39.9296 174.079   4
 -12  -4  -6 5310.65 515.249   4
 -12   4  -6 5196.61 281.326   4
 -12   4  -7 113.613 53.7702   4
 -12  -4  -7 63.3063 133.701   4
 -12  -4  -8 2144.28 346.832   4
 -12   4  -8 2520.98 226.897   4
 -12  -4  -9 23.2737 188.909   1
 -12   4  -9 417.325 113.485   4
 -12  -4  -9 605.749 233.827   4
 -12  -4 -10 4235.26 496.992   4
 -12  -4 -10 3400.28 540.335   1
 -12   4 -10 4415.63 339.629   4
 -12   4 -11 410.645 142.206   4
 -12  -4 -11 305.389 294.017   4
 -12  -4 -11 16.3422 258.486   1
 -12  -4 -12 21843.8 1446.34   1
 -12  -4 -12 22502.1 1153.92   4
 -12   4 -12 22286.8 831.543   4
 -12   4 -13 620.281 174.239   4
 -12  -4 -13 603.927 272.802   4
 -12  -4 -13 359.417 240.160   1
 -12   4 -14 1037.41 187.534   4
 -12  -4 -14 973.993 298.385   4
 -12  -4 -14 559.815 241.111   1
 -12  -4 -15 645.475 283.011   1
 -12  -4 -15 1013.13 317.324   4
 -12   4 -15 1136.72 239.036   4
 -12  -4 -16 7770.17 754.999   4
 -12  -4 -16 6755.15 876.103   1
 -12   4 -16 7651.85 569.651   4
 -12   4 -17 87.6493 134.618   4
 -12  -4 -17 194.174 208.569   1
 -12  -4 -17-316.271 242.507   4
 -12   4 -18 212.575 145.461   4
 -12  -4 -18 137.372 200.869   1
 -12  -4 -18 68.3717 162.489   4
 -12   4 -19-144.071 121.230   4
 -12  -4 -19 360.925 246.168   4
 -12  -4 -19 305.812 333.386   1
 -12  -4 -20 13954.2 1315.72   1
 -12  -4 -20 14735.8 1103.68   4
 -12   4 -20 13478.5 861.281   4
 -12  -4 -21 204.672 265.172   1
 -12   4 -21 341.679 173.027   4
 -12  -4 -21 299.918 196.257   4
 -12   4 -22 944.323 262.075   4
 -12  -4 -22 725.497 337.757   1
 -12  -4 -22 1192.19 335.007   4
 -12   4 -23 48.2614 157.541   4
 -12  -4 -23 229.700 219.011   4
 -12  -4 -23 420.812 335.599   1
 -12  -4 -24 6091.07 780.703   4
 -12  -4 -24 5769.93 889.383   1
 -12  -4 -25 209.933 159.887   1
 -12  -4 -25 32.1719 145.832   4
 -12  -4 -26 920.372 327.855   4
  12  -6 -35 342.205 238.737   4
  12  -6 -34 226.132 260.501   4
  12  -6 -33 724.156 272.379   4
  12  -6 -32 7967.74 901.124   4
  12  -6 -31 187.494 191.803   4
  12  -6 -30 775.767 290.134   4
  12  -6 -29 149.246 153.345   4
  12  -6 -28 2626.65 464.431   4
  12  -6 -27 1130.98 330.918   4
  12  -6 -26 1325.10 350.708   4
  12  -6 -25 385.039 218.989   4
  12  -6 -24 11966.0 903.865   4
 -12  -6  24 10434.9 1246.71   5
  12  -6 -23 315.626 186.579   4
 -12  -6  23 615.455 362.885   5
 -12  -6  22 3071.48 707.122   5
  12  -6 -22 2880.37 434.364   4
  12  -6 -21 82.5736 111.264   4
 -12  -6  21-132.883 261.751   5
 -12  -6  20 1023.83 444.864   5
  12  -6 -20 640.260 223.190   4
 -12  -6  19 497.538 380.499   5
  12  -6 -19 72.6970 142.053   4
 -12  -6  18 6366.00 1005.77   5
  12  -6 -18 7834.69 614.860   4
 -12  -6  17 90.2668 298.062   5
  12  -6 -17 136.812 145.919   4
 -12  -6  16 5097.48 874.517   5
  12  -6 -16 6472.57 508.685   4
 -12  -6  15 151.507 216.202   5
  12  -6 -15 79.3545 84.3788   5
  12  -6 -15 478.071 146.655   4
  12  -6 -14 11831.6 673.919   5
  12  -6 -14 12737.8 658.616   4
 -12  -6  14 10535.6 1229.74   5
 -12  -6  13 157.937 301.810   5
  12  -6 -13 235.600 111.466   5
  12  -6 -13 313.908 115.060   4
 -12  -6  12 415.593 304.962   5
  12  -6 -12 70.1502 101.341   5
  12  -6 -12 324.682 131.107   4
  12   6 -12-60.8852 206.299   3
  12  -6 -11 429.405 162.125   5
 -12  -6  11 722.950 374.455   5
  12  -6 -11 574.925 150.223   4
  12   6 -11 988.906 395.092   3
  12  -6 -10 17537.4 644.159   4
  12   6 -10 16875.8 1170.26   3
  12  -6 -10 15977.5 737.960   5
 -12  -6  10 17351.6 1477.49   5
  12  -6  -9 303.737 146.651   5
 -12  -6   9-173.043 275.489   5
  12   6  -9 233.011 342.656   3
  12  -6  -8 377.925 112.340   5
 -12  -6   8 239.706 225.327   5
  12   6  -8 30.1913 167.093   3
  12   6  -7 851.149 334.358   3
 -12  -6   7 750.949 407.433   5
  12  -6  -7 568.768 169.827   5
  12  -6  -6 12340.4 540.906   5
  12   6  -6 12565.3 918.166   3
 -12  -6   6 12022.7 1150.24   5
  12   6  -5 1592.17 361.146   3
 -12  -6   5 1411.45 495.567   5
 -12  -6   4 3592.96 632.276   5
  12   6  -4 3752.07 486.873   3
 -12  -6   3 219.183 197.249   5
 -12  -6   2 14068.9 1175.99   5
 -12  -6   1 497.512 283.391   5
 -12  -6   0 352.151 300.405   5
 -12  -6  -1 1237.61 435.762   5
 -12  -6  -2 6211.08 605.596   4
 -12  -6  -2 6722.53 825.667   5
 -12  -6  -3 767.638 328.546   4
 -12  -6  -4 9824.40 773.572   4
 -12  -6  -5 102.100 240.029   4
 -12  -6  -6 3852.57 501.765   4
 -12  -6  -7 366.824 246.098   4
 -12  -6  -8 2968.09 459.476   4
 -12  -6  -9 288.348 269.392   4
 -12  -6 -10 4680.05 594.917   4
 -12  -6 -11 319.893 302.984   4
 -12  -6 -12 17272.5 1138.70   4
 -12  -6 -13 773.175 274.865   4
 -12  -6 -14 708.222 297.973   1
 -12  -6 -14 684.179 262.822   4
 -12  -6 -15 278.846 235.195   1
 -12  -6 -15 422.869 224.226   4
 -12  -6 -16 6943.97 749.063   4
 -12  -6 -16 6291.08 928.261   1
 -12  -6 -17 158.237 252.363   4
 -12  -6 -17-115.910 249.487   1
 -12  -6 -18 154.039 226.459   4
 -12  -6 -18-84.0648 260.329   1
 -12  -6 -19 28.1163 163.773   4
 -12  -6 -19 99.3566 267.290   1
 -12  -6 -20 9501.34 1209.01   1
 -12  -6 -20 8769.36 916.928   4
 -12  -6 -21 512.814 346.514   1
 -12  -6 -21 873.248 329.876   4
 -12  -6 -22 236.018 208.470   1
 -12  -6 -22 1182.81 353.608   4
 -12  -6 -23 269.704 198.655   1
 -12  -6 -24 3397.45 748.923   1
 -12  -6 -25 197.701 255.090   1
 -12  -8  24 6514.99 1089.10   5
 -12  -8  23 840.551 517.152   5
 -12  -8  22 4715.96 960.977   5
 -12  -8  21-333.912 239.666   5
 -12  -8  20 1634.21 677.404   5
 -12  -8  19 485.816 524.735   5
 -12  -8  18 7078.13 1188.97   5
  12   8 -18 5666.10 817.896   3
 -12  -8  17 987.908 580.191   5
  12   8 -17 258.960 307.163   3
 -12  -8  16 3145.93 813.318   5
  12   8 -16 3922.64 679.984   3
 -12  -8  15 119.633 348.290   5
  12   8 -15 221.911 310.331   3
 -12  -8  14 3342.10 772.395   5
  12   8 -14 2577.99 514.854   3
 -12  -8  13 248.362 431.051   5
  12   8 -13 288.018 291.832   3
 -12  -8  12-298.759 375.642   5
  12   8 -12-32.7645 181.930   3
 -12  -8  11 465.207 397.595   5
  12   8 -11 537.849 384.165   3
 -12  -8  10 7044.78 1105.07   5
  12   8 -10 7946.49 840.814   3
 -12  -8   9 290.175 580.249   5
  12   8  -9 150.415 420.772   3
  12   8  -8 1215.45 358.350   3
 -12  -8   8 644.875 398.096   5
 -12  -8   7 2110.33 655.279   5
  12   8  -7 2509.17 684.073   3
 -12  -8   6 16431.1 1630.54   5
 -12  -8   5 2529.97 945.354   5
 -12  -8   4 3695.13 777.105   5
 -12  -8   3 34.3216 436.465   5
 -12  -8   2 11651.2 1290.39   5
 -12  -8   1 780.756 360.273   5
 -12  -8   0-116.940 316.199   5
 -12  -8  -1 499.961 339.945   5
 -12  -8  -2 3201.33 686.466   5
 -12  -8  -3-57.2844 206.891   5
 -12  -8  -4 5491.49 865.113   5
 -12  -8  -5 731.455 414.550   5
 -12  -8  -6 5411.03 866.129   5
 -12  -8  -6 5034.54 637.722   4
 -12  -8  -7 25.6831 237.990   5
 -12  -8  -7 587.292 325.898   4
 -12  -8  -8 1593.23 495.225   5
 -12  -8  -8 1529.02 371.292   4
 -12  -8  -9-54.1510 159.723   4
 -12  -8 -10 3473.71 573.194   4
 -12  -8 -11 694.716 384.985   4
 -12  -8 -12 8645.35 900.469   4
 -12  -8 -13 355.687 227.695   4
 -12  -8 -14 228.541 213.297   4
 -12  -8 -15-185.250 146.781   4
 -12  -8 -16 5186.82 924.896   1
 -12  -8 -17 192.722 260.847   1
 -12 -10  11 593.608 373.672   5
 -12 -10  10 5454.89 1109.46   5
 -12 -10   9 257.923 277.412   5
 -12 -10   8-35.6759 394.381   5
 -12 -10   7 1050.75 656.806   5
 -12 -10   6 3359.53 871.027   5
 -12 -10   5 901.001 676.620   5
 -12 -10   4 1163.25 519.420   5
 -12 -10   3 316.800 408.118   5
 -12 -10   2 4746.81 1010.79   5
 -12 -10   1 664.788 494.430   5
 -12 -10   0 12.9669 286.617   5
 -12 -10  -1 27.5827 214.844   5
 -12 -10  -2 3944.41 930.320   5
 -12 -10  -3 3192.03 982.728   5
  13  -1 -39-88.8923 229.998   4
  13  -1 -38 419.360 274.373   4
  13   1 -38 22.7486 209.435   4
  13   1 -37 18342.7 1470.41   4
  13  -1 -37 15380.5 1299.58   4
  13  -1 -36-77.3114 212.351   4
  13   1 -36 314.202 236.765   4
  13  -1 -35-267.825 224.102   4
  13   1 -35 90.4847 199.260   4
  13  -1 -34 56.4803 220.235   4
  13   1 -34 171.104 227.983   4
  13   1 -33 5981.05 778.976   4
  13  -1 -33 7154.61 820.944   4
  13  -1 -32 221.447 187.423   4
  13   1 -32-198.502 206.675   4
  13  -1 -31 218.814 189.427   4
  13   1 -31 567.658 287.488   4
  13  -1 -30 171.319 173.561   4
  13   1 -30 196.743 185.482   4
  13  -1 -29 13457.9 1020.73   4
  13   1 -29 14801.9 1111.10   4
  13  -1 -28 428.602 241.975   4
  13   1 -28 92.3840 166.147   4
  13  -1 -27 1596.70 350.448   4
  13   1 -27 1417.43 336.072   4
  13   1 -26 176.181 168.454   4
  13  -1 -26 278.107 205.915   4
  13  -1 -25 4550.36 533.019   4
  13  -1 -24 86.0219 122.261   4
  13  -1 -23 2984.32 415.610   4
  13  -1 -22 137.167 203.224   4
  13  -1 -21 14532.4 837.472   4
  13  -1 -20 1.14386 120.733   4
  13  -1 -19 13843.3 785.749   4
  13  -1 -18 210.441 132.592   5
  13  -1 -18 21.1367 101.272   4
  13  -1 -17 461.224 181.307   5
  13  -1 -17 698.575 231.126   4
 -13  -1  17 873.119 314.294   5
  13  -1 -16 65.0317 44.3100   1
  13  -1 -16 52.5533 86.0796   5
 -13  -1  16 278.177 90.9033   1
 -13  -1  16 185.031 215.575   5
  13  -1 -15 19398.1 904.027   5
  13  -1 -15 18727.3 539.650   1
 -13  -1  15 19828.0 616.633   1
 -13  -1  15 21452.4 1263.09   5
  13  -1 -14-16.9941 45.9466   1
  13  -1 -14 135.454 117.318   5
 -13  -1  14 167.144 94.8809   1
 -13  -1  14-34.4704 158.995   5
  13  -1 -13 6134.86 472.344   5
  13   1 -13 6252.79 587.089   5
  13  -1 -13 5506.05 342.098   1
 -13   1  13 5777.92 371.957   2
 -13  -1  13 5677.02 370.730   1
 -13  -1  13 5375.80 614.655   5
 -13  -1  12-131.213 183.182   5
  13   1 -12-83.3211 118.329   5
  13  -1 -12 136.428 101.866   5
 -13  -1  12 255.438 126.170   1
  13  -1 -12 138.752 82.2319   1
 -13   1  12 205.058 111.700   2
  13  -1 -11 26031.9 845.229   5
  13   1 -11 24805.9 1090.84   5
 -13   1  11 26962.4 896.753   2
 -13  -1  11 24780.3 824.716   1
  13  -1 -11 27155.2 835.660   1
 -13  -1  11 24797.7 1208.97   5
  13  -1 -10 71.3834 76.7728   1
 -13  -1  10 64.0049 116.810   5
 -13  -1  10 181.252 136.905   1
 -13   1  10 152.038 126.209   2
 -13   1  10 47.0935 71.4031   5
 -13   1   9 352.919 120.775   5
  13  -1  -9 268.689 115.277   1
 -13  -1   9 414.191 156.419   1
 -13   1   9 359.577 137.525   2
 -13  -1   9 264.620 165.296   5
 -13   1   8 49.3154 83.1847   5
 -13  -1   8-6.42748 122.498   5
 -13   1   8 366.877 183.336   2
  13  -1  -8 527.121 177.169   1
  13  -1  -8 302.382 143.822   3
 -13  -1   7 20293.6 925.256   5
 -13   1   7 18795.1 820.736   2
 -13  -1   7 20417.9 846.890   1
  13   1  -7 20837.4 762.045   4
  13  -1  -7 21130.7 845.577   1
  13  -1  -7 20521.9 803.946   3
 -13   1   7 19949.9 673.538   5
 -13   1   6 405.980 153.131   2
 -13   1   6-143.586 79.6150   5
 -13  -1   6-58.9841 119.332   5
 -13  -1   6 345.119 228.877   1
  13  -1  -6-47.0088 53.6910   4
  13   1  -6-30.3597 60.3916   4
  13  -1  -6-12.0642 66.4338   1
  13  -1  -6-30.9446 99.4815   3
 -13   1   5 3359.59 238.340   5
 -13  -1   5 3075.76 338.297   5
 -13  -1   5 3703.98 387.990   1
  13  -1  -5 3373.90 208.140   4
  13   1  -5 3662.02 312.323   4
  13  -1  -5 3484.68 369.351   1
  13  -1  -5 3451.05 312.787   3
  13  -1  -4 210.179 150.668   1
  13   1  -4 58.7430 66.8800   4
  13  -1  -4 70.1368 44.6931   4
  13  -1  -3 9877.55 656.414   1
  13   1  -3 8713.38 470.062   4
  13  -1  -3 8249.89 317.997   4
 -13   1   3 9574.50 541.544   3
 -13  -1   2 728.212 170.173   4
  13   1  -2 484.575 140.452   4
  13  -1  -2 235.695 68.3269   4
 -13   1   2 429.293 137.385   3
 -13  -1   1 10697.8 523.527   4
  13   1  -1 11002.9 537.043   4
 -13   1   1 11416.2 586.813   3
  13  -1  -1 10464.6 376.269   4
  13  -1   0 18.3753 47.5337   4
 -13   1   0 70.0489 65.2713   4
  13   1   0-67.2965 79.8904   4
 -13   1   0 169.016 91.7026   3
 -13  -1  -1 27596.9 860.598   4
 -13   1  -1 28376.7 650.946   4
  13   1   1 28868.2 897.170   4
 -13   1  -1 29611.7 952.986   3
  13  -1   1 28159.2 667.216   4
  13  -1   2 32.4575 42.6268   4
 -13   1  -2 80.2148 65.1866   4
  13   1   2 7.29684 66.8785   4
  13  -1   3 1842.16 194.633   4
 -13   1  -3 2093.39 204.660   4
 -13  -1  -3 1757.95 238.930   4
  13  -1   4 265.377 94.8777   4
 -13  -1  -4 152.949 117.544   4
 -13   1  -4 281.150 105.251   4
  13  -1   5 13883.5 577.039   4
 -13  -1  -5 14117.2 988.593   1
 -13  -1  -5 12919.3 638.344   4
 -13   1  -5 13918.7 560.504   4
  13  -1   6 315.251 122.665   4
 -13  -1  -6 435.372 365.718   1
 -13  -1  -6 497.037 206.310   4
 -13   1  -6 483.781 143.232   4
  13  -1   7 22126.3 790.694   4
 -13  -1  -7 22183.3 1268.68   1
 -13  -1  -7 23188.9 914.269   4
 -13   1  -7 22781.8 789.627   4
 -13  -1  -8-70.7418 109.107   4
 -13   1  -8-61.8568 85.0756   4
 -13  -1  -9 10705.7 671.425   4
 -13  -1  -9 10688.3 915.468   1
 -13   1  -9 11193.6 601.563   4
 -13  -1 -10 452.634 258.140   1
 -13  -1 -10 386.871 185.701   4
 -13   1 -10 499.276 165.242   4
 -13  -1 -11 3699.12 412.909   4
 -13   1 -11 3157.67 345.493   4
 -13  -1 -11 3493.82 555.678   1
 -13  -1 -12-42.4467 131.158   4
 -13  -1 -12-259.874 290.565   1
 -13   1 -12 64.1381 100.059   4
 -13  -1 -13 3567.59 437.926   4
 -13   1 -13 3923.82 405.038   4
 -13  -1 -14 505.404 250.399   4
 -13   1 -14 617.621 267.780   4
 -13   1 -15 25373.6 1396.23   2
 -13  -1 -15 27452.2 1214.59   4
 -13   1 -15 27588.3 1139.66   4
 -13   1 -16-168.300 179.710   2
 -13  -1 -16 176.062 180.438   4
 -13   1 -16 209.497 133.926   4
 -13   1 -17 1599.43 362.747   2
 -13  -1 -17 1252.93 293.877   4
 -13   1 -17 1032.81 245.046   4
 -13   1 -18 162.005 221.614   2
 -13  -1 -18 187.598 208.873   4
 -13   1 -18-5.47977 114.157   4
 -13   1 -19 3321.98 546.063   2
 -13  -1 -19 3203.79 513.883   4
 -13   1 -19 3813.40 489.365   4
 -13   1 -20-82.8370 222.415   2
 -13  -1 -20-440.534 255.894   4
 -13   1 -20 14.6641 139.488   4
 -13   1 -21-307.522 254.002   2
 -13  -1 -21 63.0742 132.566   4
 -13   1 -21-11.9079 200.445   4
 -13   1 -22 186.682 228.566   2
 -13  -1 -22 38.4393 151.808   4
 -13   1 -22 7.97162 131.905   4
 -13   1 -23 12354.7 1079.83   2
 -13  -1 -23 12297.2 987.187   4
 -13   1 -23 10747.6 879.755   4
 -13   1 -24-110.498 168.793   2
 -13  -1 -24 425.787 222.323   4
 -13   1 -24 328.610 212.709   4
 -13   1 -25 295.532 238.086   2
 -13  -1 -25 340.826 226.453   4
 -13   1 -25 235.620 188.129   4
 -13   1 -26 41.8397 195.072   2
 -13  -1 -26 200.835 210.321   4
 -13   1 -26 106.773 164.121   4
 -13   1 -27 4420.58 666.919   2
 -13   1 -27 4274.99 611.906   4
 -13  -1 -27 4060.88 623.475   4
 -13  -1 -28 228.619 182.658   2
 -13   1 -28 420.190 241.684   2
 -13  -1 -28 35.3957 150.227   4
 -13   1 -28-299.337 205.386   4
 -13  -1 -29 847.247 345.094   4
 -13   1 -29 466.418 256.161   4
 -13   1 -30-150.300 202.267   4
  13  -3 -38-251.966 206.325   4
  13   3 -37 8703.67 1045.02   4
  13  -3 -37 7635.28 901.833   4
  13  -3 -36 1.64349 181.293   4
  13   3 -36 126.793 288.677   4
  13  -3 -35-140.823 222.630   4
  13   3 -35-20.7700 218.426   4
  13  -3 -34-72.5993 199.131   4
  13   3 -34 77.6083 214.990   4
  13  -3 -33 3973.16 610.209   4
  13   3 -33 5926.89 819.843   4
  13   3 -32 454.765 276.102   4
  13  -3 -32 236.087 195.179   4
  13  -3 -31 590.163 243.258   4
  13   3 -31 513.101 331.630   4
  13  -3 -30 537.755 260.346   4
  13  -3 -29 15532.3 1079.01   4
  13  -3 -28 273.440 185.217   4
  13  -3 -27 4353.14 554.201   4
  13  -3 -26 794.494 256.318   4
  13  -3 -25 4793.02 555.297   4
  13  -3 -24 254.210 163.056   4
  13  -3 -23 664.502 219.855   4
  13  -3 -22 486.818 177.588   4
 -13  -3  22 511.542 298.506   5
  13  -3 -21 14332.0 833.337   4
 -13  -3  21 15789.4 1289.51   5
  13  -3 -20 469.636 170.764   4
 -13  -3  20-29.0606 189.616   5
  13  -3 -19 7967.93 585.521   4
  13  -3 -19 7331.18 592.161   5
 -13  -3  19 9235.83 993.906   5
 -13  -3  18-276.659 240.948   5
  13  -3 -18-229.838 119.620   2
  13  -3 -18-18.7795 113.464   4
  13  -3 -18 91.6131 107.212   5
  13  -3 -17 851.952 197.246   5
 -13  -3  17 1311.57 420.207   5
  13  -3 -17 1204.68 192.052   2
  13  -3 -17 959.984 206.400   4
  13  -3 -16 389.462 139.438   5
  13  -3 -16 269.034 101.807   2
 -13  -3  16 464.842 255.432   5
  13  -3 -16 540.040 175.685   4
  13  -3 -15 17644.3 738.408   2
  13  -3 -15 17598.0 731.661   4
  13  -3 -15 14714.0 648.182   5
 -13  -3  15 16273.8 1266.21   5
  13  -3 -14 17.0165 50.8007   5
 -13  -3  14-270.762 269.068   5
  13  -3 -14-111.387 71.7395   2
  13  -3 -14 216.658 114.595   4
 -13  -3  13 1632.26 404.841   5
  13  -3 -13 1837.27 214.223   4
  13  -3 -13 1496.23 225.044   2
  13  -3 -13 1235.73 157.151   5
  13  -3 -12 272.108 102.006   4
 -13  -3  12 243.479 229.408   5
  13  -3 -12 73.4681 38.1217   5
  13  -3 -12 165.177 113.440   2
  13  -3 -11 11804.7 466.569   4
 -13  -3  11 10173.7 933.620   5
  13  -3 -10 982.814 128.944   4
 -13  -3  10 864.405 314.583   5
  13  -3 -10 917.544 136.601   3
 -13  -3   9-59.5168 179.348   5
  13  -3  -9 375.345 94.6197   3
  13  -3  -9 536.883 93.7638   4
 -13  -3   8 118.241 176.237   5
  13  -3  -8 601.598 80.6235   4
 -13  -3   7 11755.9 880.882   5
 -13  -3   6-97.0167 199.952   5
 -13  -3   5 3649.12 470.206   5
 -13  -3   4 397.142 251.255   5
 -13   3   4 712.821 375.579   2
 -13   3   3 27531.3 1237.74   2
 -13   3   2 722.493 119.939   5
 -13   3   2 1588.49 537.656   2
 -13   3   2 1232.11 179.961   3
 -13   3   1 12413.7 866.489   2
 -13  -3   1 13148.5 717.328   4
 -13   3   1 13293.2 550.653   3
 -13   3   1 11833.2 559.746   5
 -13  -3   0 392.474 230.625   4
 -13   3   0 164.741 113.505   5
 -13   3   0 84.7878 74.6946   3
 -13   3  -1 24903.9 1243.23   2
 -13  -3  -1 24559.4 990.078   4
 -13   3  -1 24440.5 777.478   3
 -13   3  -1 23407.1 969.282   5
 -13   3  -2 807.543 202.942   5
 -13  -3  -2 505.532 212.997   4
 -13   3  -3 1144.52 238.805   5
 -13  -3  -3 1428.30 304.854   1
 -13   3  -3 1142.53 94.1258   4
 -13  -3  -3 1519.68 278.320   4
 -13   3  -3 1649.51 361.777   2
 -13   3  -4 228.758 124.409   5
 -13  -3  -4-28.1262 157.087   1
 -13  -3  -4-15.4026 126.035   4
 -13   3  -4 259.140 305.039   2
 -13   3  -4 103.091 45.1591   4
 -13  -3  -5 5375.50 615.505   1
 -13   3  -5 5330.25 610.581   2
 -13  -3  -5 5118.66 488.493   4
 -13   3  -5 5401.64 273.864   4
 -13   3  -5 3757.53 465.181   5
 -13  -3  -6 610.872 241.527   4
 -13  -3  -6 543.791 281.292   1
 -13   3  -6 945.746 384.020   2
 -13   3  -6 667.427 126.130   4
 -13   3  -7 6002.90 651.233   2
 -13  -3  -7 6598.43 617.944   4
 -13  -3  -7 6648.18 725.512   1
 -13   3  -7 6870.37 372.693   4
 -13  -3  -8 167.465 167.036   4
 -13   3  -8-134.402 171.353   2
 -13  -3  -8-14.2304 173.590   1
 -13   3  -8 126.171 87.0789   4
 -13  -3  -9 5176.75 665.148   1
 -13   3  -9 6334.08 693.853   2
 -13  -3  -9 5933.58 552.763   4
 -13   3  -9 6559.37 407.311   4
 -13  -3 -10 653.955 285.406   1
 -13  -3 -10 553.739 251.633   4
 -13   3 -10 328.536 239.329   2
 -13   3 -10 461.794 143.035   4
 -13  -3 -11 3755.84 611.337   1
 -13  -3 -11 3734.33 464.029   4
 -13   3 -11 3320.03 518.170   2
 -13   3 -11 4132.16 369.642   4
 -13  -3 -12-224.601 237.601   1
 -13  -3 -12 123.082 172.609   4
 -13   3 -12-31.8537 194.331   2
 -13   3 -12 121.073 101.689   4
 -13  -3 -13 3430.08 462.957   4
 -13  -3 -13 3598.99 609.435   1
 -13   3 -13 3733.68 566.009   2
 -13   3 -13 3600.25 361.513   4
 -13   3 -14 1169.91 244.062   4
 -13  -3 -14 1282.41 382.458   4
 -13  -3 -14 957.527 392.425   1
 -13   3 -14 1935.36 481.975   2
 -13   3 -15 30807.7 1602.91   2
 -13  -3 -15 29309.0 1778.94   1
 -13  -3 -15 28973.2 1374.11   4
 -13   3 -15 32691.0 1163.04   4
 -13  -3 -16 86.6585 174.546   1
 -13  -3 -16 262.676 211.118   4
 -13   3 -16 193.981 208.554   2
 -13   3 -16 254.796 167.650   4
 -13   3 -17 530.312 197.233   4
 -13  -3 -17 374.305 322.928   1
 -13  -3 -17 423.160 210.832   4
 -13   3 -17 333.058 243.927   2
 -13   3 -18 113.349 118.740   4
 -13  -3 -18 244.541 261.540   1
 -13  -3 -18 259.611 212.063   4
 -13   3 -18 254.554 236.918   2
 -13  -3 -19 3642.48 690.009   1
 -13   3 -19 4920.02 686.452   2
 -13  -3 -19 4751.20 612.539   4
 -13   3 -19 5340.45 535.924   4
 -13  -3 -20 163.338 275.439   1
 -13  -3 -20-22.7321 225.975   4
 -13   3 -20-216.899 240.105   2
 -13   3 -20 153.436 140.082   4
 -13   3 -21-104.920 137.258   4
 -13  -3 -21-63.4246 200.306   1
 -13  -3 -21 123.140 160.030   4
 -13   3 -21-240.973 235.357   2
 -13   3 -22 473.838 200.524   4
 -13  -3 -22 221.060 325.661   1
 -13  -3 -22 172.001 235.176   4
 -13   3 -22 160.347 167.735   2
 -13   3 -23 10161.2 1013.71   2
 -13  -3 -23 12328.9 1055.33   4
 -13   3 -23 10355.5 829.255   4
 -13   3 -24 149.547 140.363   4
 -13  -3 -24 570.575 298.636   4
 -13  -3 -25 163.930 183.674   4
 -13   3 -25 134.606 185.772   2
 -13   3 -25 157.216 142.136   4
 -13  -3 -26 236.943 275.986   4
 -13   3 -26 341.839 198.424   4
 -13   3 -26 9.62963 220.755   2
 -13  -3 -27 4021.52 656.104   4
  13  -5 -36-397.012 306.683   4
  13  -5 -35 35.3422 133.419   4
  13   5 -34 465.099 275.003   4
  13  -5 -34 23.3528 178.039   4
  13  -5 -33 3457.65 584.029   4
  13  -5 -32-159.417 219.849   4
  13  -5 -31 307.746 224.441   4
  13  -5 -30-102.508 142.072   4
  13  -5 -29 8821.79 857.992   4
  13  -5 -28 548.671 222.698   4
  13  -5 -27-159.566 195.118   4
  13  -5 -26 127.571 141.467   4
  13  -5 -25 4395.23 544.691   4
  13  -5 -24 472.509 211.916   4
 -13  -5  24 895.204 424.002   5
 -13  -5  23 2479.37 620.548   5
  13  -5 -23 2240.29 380.734   4
  13  -5 -22 418.545 168.926   4
 -13  -5  22 118.457 317.977   5
  13  -5 -21 11820.5 790.874   4
 -13  -5  21 10628.1 1212.84   5
 -13  -5  20 454.446 262.601   5
  13  -5 -20 209.510 158.937   4
  13  -5 -19 11639.1 736.602   4
 -13  -5  19 9861.33 1170.13   5
  13  -5 -18 86.7137 128.698   4
 -13  -5  18-63.2046 213.941   5
 -13  -5  17 580.909 315.341   5
  13  -5 -17 1153.43 219.100   4
 -13  -5  16-26.1530 247.229   5
  13  -5 -16 268.651 129.014   4
  13  -5 -15 8847.75 536.038   4
 -13  -5  15 7475.51 969.014   5
 -13  -5  14 554.368 407.067   5
  13  -5 -14 207.288 95.1434   5
  13  -5 -14 224.958 103.360   4
  13  -5 -13 4350.11 306.921   5
 -13  -5  13 5040.64 811.137   5
  13  -5 -13 5903.21 396.411   4
 -13  -5  12 186.907 287.783   5
  13  -5 -12 325.274 84.3047   5
  13  -5 -12 762.637 158.416   4
  13  -5 -11 13209.3 510.209   4
  13   5 -11 12715.8 1015.99   3
 -13  -5  11 13096.8 1232.48   5
 -13  -5  10 1794.39 473.411   5
  13  -5 -10 2274.59 195.202   4
  13   5 -10 1774.25 450.106   3
 -13  -5   9 1557.71 411.331   5
  13  -5  -9 1080.42 128.695   4
  13   5  -9 1930.47 404.481   3
 -13  -5   8 555.128 290.346   5
  13   5  -8 978.140 323.695   3
 -13  -5   7 16441.3 1272.71   5
  13   5  -7 17023.5 1069.10   3
 -13  -5   6-66.9951 291.174   5
  13   5  -6 363.070 311.592   3
 -13  -5   5 793.470 254.909   5
  13   5  -5 682.369 224.951   3
  13   5  -4 173.804 194.963   3
 -13  -5   4-134.724 203.832   5
 -13  -5   3 6193.46 725.115   5
  13   5  -3 5970.46 591.613   3
 -13  -5   2 331.092 314.102   5
 -13  -5   1 1307.10 362.156   5
 -13  -5   0 492.854 233.524   4
 -13   5   0 313.015 70.8229   3
 -13   5  -1 10981.9 615.465   5
 -13  -5  -1 10744.1 756.897   4
 -13   5  -1 10323.1 425.297   3
 -13   5  -2 142.627 82.3759   5
 -13  -5  -2 168.411 216.044   4
 -13   5  -3 1296.94 269.781   5
 -13  -5  -3 1309.79 299.500   4
 -13  -5  -4 875.046 394.878   4
 -13  -5  -5 13972.3 903.205   4
 -13   5  -5 9603.86 275.329   4
 -13  -5  -6 2400.32 489.045   4
 -13   5  -6 1504.34 141.939   4
 -13  -5  -7 15748.1 981.596   4
 -13   5  -7 14528.9 475.241   4
 -13   5  -8 64.0748 63.5712   4
 -13  -5  -8 290.856 259.409   4
 -13  -5  -9 4584.37 553.314   4
 -13   5  -9 4904.59 320.777   4
 -13  -5 -10 64.2689 198.910   1
 -13   5 -10 297.108 104.810   4
 -13  -5 -10 416.804 227.383   4
 -13  -5 -11 2524.06 517.978   1
 -13  -5 -11 3308.68 479.774   4
 -13   5 -11 2669.07 266.547   4
 -13   5 -12 442.389 123.460   4
 -13  -5 -12 126.365 188.073   4
 -13  -5 -12 453.726 267.673   1
 -13  -5 -13 1842.64 378.107   4
 -13  -5 -13 1689.93 448.332   1
 -13  -5 -14 473.412 255.744   4
 -13  -5 -14 528.164 294.708   1
 -13  -5 -15 12574.9 1243.20   1
 -13  -5 -15 12179.1 959.391   4
 -13  -5 -16-116.296 279.877   1
 -13  -5 -16 438.763 220.341   4
 -13  -5 -17-379.172 308.327   1
 -13  -5 -17 327.261 242.484   4
 -13  -5 -18 175.362 231.327   1
 -13  -5 -18 724.628 299.788   4
 -13  -5 -19 4856.70 812.076   1
 -13  -5 -19 5065.62 673.621   4
 -13  -5 -20 201.749 166.921   4
 -13  -5 -20-126.122 204.467   1
 -13  -5 -21 18.0469 210.097   4
 -13  -5 -21 371.637 257.189   1
 -13  -5 -22 246.833 240.173   1
 -13  -5 -22 384.035 265.794   4
 -13  -5 -23 9164.88 1179.79   1
 -13  -5 -23 9543.50 991.614   4
 -13  -5 -24 286.404 344.429   1
 -13  -5 -24-165.169 196.857   4
 -13  -5 -25 159.264 241.076   1
 -13  -5 -26 559.493 360.085   1
 -13  -7  25 2823.50 684.244   5
 -13  -7  24-163.855 295.959   5
 -13  -7  23 1103.95 432.110   5
 -13  -7  22 477.841 379.069   5
 -13  -7  21 9140.02 1245.16   5
 -13  -7  20-303.544 263.987   5
 -13  -7  19 4178.88 855.758   5
 -13  -7  18 612.478 464.694   5
 -13  -7  17 755.000 469.778   5
 -13  -7  16 265.083 432.606   5
  13   7 -16 338.726 270.739   3
  13   7 -15 11326.3 1088.46   3
 -13  -7  15 10273.5 1316.68   5
 -13  -7  14-117.961 263.151   5
  13   7 -14 247.043 399.694   3
 -13  -7  13 3230.79 766.978   5
  13   7 -13 2642.87 505.975   3
 -13  -7  12-136.343 268.050   5
  13   7 -12 436.509 366.796   3
 -13  -7  11 4878.25 869.206   5
  13   7 -11 5800.32 748.823   3
 -13  -7  10 799.103 476.072   5
  13   7 -10 670.036 311.123   3
 -13  -7   9 469.718 339.621   5
  13   7  -9 340.044 223.820   3
 -13  -7   8 336.648 393.093   5
  13   7  -8 474.699 324.887   3
 -13  -7   7 8069.11 1053.05   5
  13   7  -7 9155.59 848.163   3
  13   7  -6 483.498 397.980   3
 -13  -7   6 105.219 272.054   5
 -13  -7   5 1152.55 373.884   5
 -13  -7   4 1690.00 532.261   5
 -13  -7   3 11741.2 1226.14   5
 -13  -7   2 1034.87 634.439   5
 -13  -7   1 4389.22 754.279   5
 -13  -7   0 576.067 496.292   5
 -13  -7  -1 13729.3 1282.72   5
 -13  -7  -2 276.386 373.301   5
 -13  -7  -3 1375.70 432.758   5
 -13  -7  -4 638.111 367.302   5
 -13  -7  -4 267.738 291.362   4
 -13  -7  -5 3874.93 529.119   4
 -13  -7  -6 1221.48 379.268   4
 -13  -7  -7 4756.21 609.335   4
 -13  -7  -8-195.221 137.550   4
 -13  -7  -9 2692.62 479.309   4
 -13  -7 -10 855.002 349.360   4
 -13  -7 -11 3393.05 547.383   4
 -13  -7 -12 305.326 199.075   4
 -13  -7 -13 1950.67 419.203   4
 -13  -7 -14 515.219 319.807   1
 -13  -7 -14 374.647 306.586   4
 -13  -7 -15 14932.6 1485.33   1
 -13  -7 -15 16647.2 1250.66   4
 -13  -7 -16 1226.32 390.932   4
 -13  -7 -16 138.270 201.138   1
 -13  -7 -17 887.326 301.956   4
 -13  -7 -17 58.6127 272.747   1
 -13  -7 -18 480.011 286.612   4
 -13  -7 -18 266.131 190.999   1
 -13  -7 -19 2652.75 695.111   1
 -13  -7 -20-214.539 221.176   1
  13   9 -24 691.844 341.298   3
  13   9 -23 1276.16 443.431   3
  13   9 -22 382.945 301.528   3
  13   9 -21 4265.69 755.528   3
  13   9 -20 213.287 200.818   3
 -13  -9  19 3120.62 852.702   5
  13   9 -19 3795.81 716.044   3
 -13  -9  18 719.202 492.531   5
  13   9 -18 367.582 194.477   3
 -13  -9  17 1378.16 611.493   5
  13   9 -17-238.557 287.408   3
 -13  -9  16 495.079 537.513   5
  13   9 -16-111.926 182.603   3
 -13  -9  15 6384.42 1177.48   5
  13   9 -15 6546.67 885.929   3
 -13  -9  14 114.804 451.458   5
  13   9 -14 710.938 480.880   3
 -13  -9  13 1993.66 620.354   5
  13   9 -13 2392.35 541.133   3
 -13  -9  12 707.416 485.752   5
  13   9 -12 1116.61 415.185   3
 -13  -9  11 5036.14 1064.64   5
  13   9 -11 4736.79 716.485   3
  13   9 -10 1249.09 426.130   3
 -13  -9  10 1181.75 537.659   5
 -13  -9   9 531.645 465.367   5
 -13  -9   8-18.4901 260.486   5
 -13  -9   7 7808.43 1233.75   5
 -13  -9   6 1011.55 529.229   5
 -13  -9   5 392.790 409.308   5
 -13  -9   4 1408.40 634.878   5
 -13  -9   3 5651.09 1028.65   5
 -13  -9   2 870.505 542.490   5
 -13  -9   1 2831.96 724.198   5
 -13  -9   0 1567.36 851.502   5
 -13  -9  -1 8449.61 1180.34   5
 -13  -9  -2 643.868 521.620   5
 -13  -9  -3 602.230 410.716   5
 -13  -9  -4 926.584 463.585   5
 -13  -9  -5 3446.66 800.554   5
 -13  -9  -6 1331.08 572.855   5
 -13  -9  -7 6582.58 1041.54   5
 -13  -9  -8 842.713 485.534   5
 -13  -9  -9 1815.64 580.524   5
 -13  -9 -10 910.154 448.326   5
  14   0 -39-62.4231 226.995   4
  14   0 -38 7978.95 970.036   4
  14   0 -37 168.012 251.354   4
  14   0 -36 596.163 312.439   4
  14   0 -35 260.018 267.464   4
  14   0 -34 15505.1 1243.54   4
  14   0 -33 642.835 291.133   4
  14   0 -32 335.332 240.801   4
  14   0 -31 94.0721 174.350   4
  14   0 -30 6084.54 720.852   4
  14   0 -29-146.648 140.053   4
  14   0 -28 683.828 257.170   4
  14   0 -27 205.211 205.373   4
  14   0 -26 13307.0 951.615   4
  14   0 -25 147.547 174.366   4
  14   0 -24 3791.04 490.332   4
  14   0 -23 407.005 238.412   4
  14   0 -16 28546.1 1245.51   5
 -14   0  16 28185.7 656.719   2
  14   0 -15 156.335 124.923   5
 -14   0  15-3.86049 61.9848   2
 -14   0  15 234.062 201.269   5
  14   0 -14 2320.04 343.947   5
 -14   0  14 2625.28 395.432   5
 -14   0  13 0.17084 128.327   5
  14   0 -13 56.8436 96.9409   5
  14   0 -12 15877.3 802.955   5
 -14   0  12 15998.3 920.336   5
 -14   0  11-79.1625 145.656   5
  14   0 -11-6.61897 69.6145   5
 -14   0  10 10210.9 687.799   5
 -14   0   9-97.2100 142.356   5
  14   0  -9 99.5700 138.594   3
  14   0  -8 19685.6 792.977   1
 -14   0   8 19214.3 851.563   5
  14   0  -8 19614.9 912.129   3
 -14   0   7-154.797 117.636   5
  14   0  -7 28.2092 61.1070   4
  14   0  -7 160.618 111.546   1
  14   0  -7-203.472 178.251   3
 -14   0   6 4776.68 386.229   5
  14   0  -6 4935.50 332.828   4
  14   0  -6 5063.02 446.901   1
  14   0  -6 4705.83 430.390   3
  14   0  -5-69.6974 97.6406   3
 -14   0   5 28.3991 96.9524   5
  14   0  -5 42.4219 74.9269   4
  14   0  -5 222.783 136.190   1
  14   0  -4 15684.0 807.219   1
  14   0  -4 15150.8 557.288   4
  14   0  -4 15060.4 715.283   3
  14   0  -3 76.2917 71.8259   4
  14   0  -2 13.9393 44.5467   4
 -14   0   1-73.9380 71.7590   4
  14   0  -1 10.0926 51.6676   4
 -14   0   0 8074.25 418.734   4
  14   0   0 8348.60 436.148   4
 -14   0  -1 132.525 103.714   4
  14   0   1-6.00467 45.2871   4
 -14   0  -2 11089.9 516.661   4
  14   0   2 11546.6 542.228   4
  14   0   3-41.1369 54.8106   4
 -14   0  -3 55.2430 101.497   4
 -14   0  -4 25058.9 809.554   4
  14   0   4 25519.0 849.743   4
 -14   0  -5 79.1262 114.797   4
 -14   0  -6 3700.60 340.991   4
 -14   0  -7 118.156 130.764   4
 -14   0  -8 11100.8 623.705   4
 -14   0  -9 367.334 199.718   4
 -14   0 -10 30608.4 1106.00   4
 -14   0 -11 37.8485 158.117   4
 -14   0 -12 9045.39 640.784   4
 -14   0 -13 183.682 162.417   4
 -14   0 -14 3088.34 400.479   4
 -14   0 -15-47.4248 129.850   4
 -14   0 -16 1630.97 319.195   4
 -14   0 -17 348.537 206.751   4
 -14   0 -18 16472.9 998.220   4
 -14   0 -19 68.0810 154.373   4
 -14   0 -20-65.1523 155.325   4
 -14   0 -21-27.0018 153.844   4
 -14   0 -22 6148.46 668.511   4
 -14   0 -23 154.980 202.377   2
 -14   0 -23 67.8969 162.735   4
 -14   0 -24 111.221 195.343   2
 -14   0 -24 106.710 152.327   4
 -14   0 -25 29.3578 221.234   2
 -14   0 -25 146.238 146.508   4
 -14   0 -26 13987.3 1105.17   4
 -14   0 -26 15911.9 1318.46   2
 -14   0 -27-318.530 266.782   2
 -14   0 -27 90.1619 159.568   4
 -14   0 -28 1905.45 458.855   2
 -14   0 -28 2043.06 475.428   4
 -14   0 -29 572.205 240.293   4
  14  -2 -39 260.380 221.186   4
  14  -2 -38 4506.40 723.476   4
  14   2 -38 6023.42 887.887   4
  14  -2 -37 245.137 179.430   4
  14   2 -37 102.537 247.712   4
  14  -2 -36 187.744 185.370   4
  14   2 -36 391.945 256.194   4
  14  -2 -35 36.7967 194.243   4
  14   2 -35 35.5666 174.786   4
  14   2 -34 13990.1 1216.59   4
  14  -2 -34 12356.7 1079.18   4
  14  -2 -33 345.674 231.405   4
  14   2 -33 83.2875 205.160   4
  14  -2 -32 89.6399 167.988   4
  14   2 -32 86.5772 166.034   4
  14  -2 -31 54.8804 139.945   4
  14   2 -31 388.923 210.715   4
  14   2 -30 8278.45 861.113   4
  14  -2 -30 6710.93 742.821   4
  14  -2 -29 241.657 172.346   4
  14  -2 -28 1102.38 310.719   4
  14  -2 -27 187.769 164.299   4
  14  -2 -26 15899.5 1010.66   4
  14  -2 -25 348.577 231.848   4
  14  -2 -24 10690.8 783.638   4
  14  -2 -23 90.0772 117.077   4
 -14  -2  22 2253.68 163.316   2
  14  -2 -22 3140.57 412.941   4
 -14  -2  22 2006.74 153.153   1
  14  -2 -21 295.574 185.005   4
 -14  -2  21 45.5539 39.8376   2
 -14  -2  21 86.6428 52.4653   1
 -14  -2  20 6662.52 798.697   5
  14  -2 -20 5512.64 499.536   4
  14  -2 -20 4343.06 234.534   1
 -14  -2  20 5408.10 308.053   1
  14  -2 -19 645.221 199.836   5
  14  -2 -19 142.921 62.9587   1
  14  -2 -19 356.301 163.784   4
 -14  -2  19 200.896 76.4036   1
 -14  -2  19 396.943 249.494   5
 -14  -2  18 15402.7 572.832   1
  14  -2 -18 14713.8 755.191   4
  14  -2 -18 13708.6 513.427   1
 -14  -2  18 17344.8 1267.05   5
  14  -2 -18 13275.1 796.272   5
 -14  -2  17 665.171 319.718   5
  14  -2 -17 421.021 155.404   5
  14  -2 -17 492.716 185.329   4
 -14  -2  17 616.583 136.444   1
  14  -2 -16 6690.11 473.443   4
 -14  -2  16 7008.19 808.408   5
  14  -2 -16 5544.63 459.518   5
 -14  -2  15 46.0959 214.744   5
  14  -2 -15 16.2661 64.9693   5
  14  -2 -15 37.1790 104.509   4
 -14  -2  14 1643.12 438.220   5
  14  -2 -14 941.261 186.015   5
  14  -2 -14 1177.29 195.680   4
 -14  -2  13 184.552 200.000   5
  14  -2 -13 100.016 64.5406   5
  14  -2 -13 267.435 132.176   4
  14  -2 -12 12931.9 477.579   5
  14  -2 -12 14092.7 560.801   4
 -14  -2  12 15834.1 1106.67   5
 -14  -2  11 424.314 221.719   5
  14  -2 -11 437.334 121.474   4
 -14  -2  10 4338.57 568.744   5
 -14   2  10 3551.18 395.995   2
  14  -2 -10 3460.83 245.895   4
  14  -2 -10 3598.43 346.893   3
 -14  -2   9 665.747 302.735   5
  14  -2  -9 1093.20 188.053   4
  14  -2  -9 543.790 168.660   3
  14  -2  -8 30742.8 619.475   4
 -14  -2   8 32856.8 1368.10   5
  14  -2  -8 33506.9 950.820   3
  14  -2  -7 9.66528 97.0137   3
  14  -2  -7 26.7240 34.2015   4
  14  -2  -7 99.9831 66.3344   4
 -14  -2   6 1956.53 324.172   5
  14  -2  -6 1635.27 114.385   4
 -14  -2   5 119.310 146.402   5
  14  -2  -5 4.05826 20.7192   4
 -14   2   4 11506.5 311.249   5
 -14   2   3 729.373 302.449   2
 -14   2   3 225.904 98.9117   3
 -14  -2   3 388.170 235.433   1
 -14  -2   2 328.263 117.495   4
 -14   2   2 79.5828 146.195   2
 -14  -2   2 367.346 142.264   1
 -14   2   2 382.055 117.776   3
  14  -2  -1 68.6460 34.3535   4
 -14   2   1 50.0854 50.9523   3
 -14  -2   1 47.3905 117.771   4
  14  -2   0 8021.99 259.219   4
 -14  -2   0 9139.03 560.444   4
 -14   2   0 9823.65 541.111   3
 -14   2  -1 91.5690 93.9695   3
 -14   2  -1 31.7252 36.0259   4
 -14  -2  -2 14566.2 726.009   4
 -14   2  -2 14749.6 411.856   4
 -14  -2  -3 444.461 326.831   1
 -14  -2  -3 349.206 188.027   4
 -14   2  -3 472.972 89.0988   4
 -14   2  -4 19529.9 1126.89   2
 -14  -2  -4 20172.4 1185.07   1
 -14  -2  -4 20566.0 886.148   4
 -14   2  -4 21333.4 582.433   4
 -14  -2  -5-74.2883 168.956   1
 -14  -2  -5 97.6881 167.584   4
 -14   2  -5-30.9913 57.4204   4
 -14   2  -6 1576.45 358.023   2
 -14  -2  -6 2570.96 460.457   1
 -14   2  -6 2365.92 232.233   4
 -14  -2  -6 2256.31 329.984   4
 -14   2  -7-36.0378 175.708   2
 -14  -2  -7 211.294 167.923   4
 -14  -2  -7 175.536 204.243   1
 -14   2  -7 100.686 81.2185   4
 -14   2  -8 6529.17 706.777   2
 -14  -2  -8 6957.74 787.807   1
 -14  -2  -8 6649.35 557.096   4
 -14   2  -8 7497.04 452.086   4
 -14   2  -9 1496.46 396.396   2
 -14  -2  -9 1596.21 329.685   4
 -14   2  -9 1291.65 212.768   4
 -14  -2  -9 1008.40 340.004   1
 -14   2 -10 13843.5 1015.71   2
 -14  -2 -10 14329.1 1150.61   1
 -14  -2 -10 14830.7 857.827   4
 -14   2 -10 15124.3 699.213   4
 -14  -2 -11-30.0545 184.357   1
 -14   2 -11 146.575 171.400   2
 -14  -2 -11 62.3213 157.571   4
 -14   2 -11 133.068 172.130   4
 -14   2 -12 6431.72 704.507   2
 -14  -2 -12 6314.48 787.050   1
 -14  -2 -12 6729.27 600.445   4
 -14   2 -12 7695.15 535.124   4
 -14   2 -13-145.331 194.690   2
 -14  -2 -13-43.4850 120.846   4
 -14  -2 -13-184.264 175.000   1
 -14   2 -13-122.813 112.820   4
 -14  -2 -14 2954.28 556.517   1
 -14   2 -14 3502.26 550.684   2
 -14   2 -14 2921.43 362.848   4
 -14  -2 -14 3147.63 445.111   4
 -14   2 -15-42.7736 194.795   2
 -14  -2 -15 133.791 191.018   1
 -14  -2 -15 154.836 161.611   4
 -14   2 -15-5.91812 119.931   4
 -14   2 -16 1715.91 480.252   2
 -14  -2 -16 1494.62 403.921   1
 -14  -2 -16 1749.89 355.849   4
 -14   2 -16 1640.92 291.270   4
 -14  -2 -17 380.804 312.527   1
 -14   2 -17 572.894 355.176   2
 -14  -2 -17 904.701 310.735   4
 -14   2 -17 595.517 231.721   4
 -14   2 -18 29933.4 1638.20   2
 -14  -2 -18 28004.8 1391.80   4
 -14   2 -18 28857.2 1243.59   4
 -14   2 -19 628.762 317.520   2
 -14  -2 -19 398.521 220.556   4
 -14   2 -19 284.835 136.539   4
 -14   2 -20 334.503 237.758   2
 -14  -2 -20 364.415 222.807   4
 -14   2 -20-54.9338 149.129   4
 -14   2 -21 274.109 235.203   2
 -14  -2 -21 375.737 233.282   4
 -14   2 -21 71.4256 123.860   4
 -14   2 -22 6879.24 823.703   2
 -14  -2 -22 6470.02 724.373   4
 -14   2 -22 6384.20 655.829   4
 -14   2 -23 185.578 247.868   2
 -14  -2 -23 27.9058 142.870   4
 -14   2 -23 22.5850 128.425   4
 -14   2 -24 368.817 259.902   2
 -14  -2 -24-100.035 150.376   4
 -14   2 -24-52.3997 159.330   4
 -14   2 -25-130.076 250.474   2
 -14  -2 -25 436.240 276.649   4
 -14   2 -25-83.0081 141.371   4
 -14   2 -26 6900.11 860.619   2
 -14  -2 -26 7801.44 886.716   4
 -14   2 -26 6993.71 749.557   4
 -14  -2 -27-60.4299 195.672   4
 -14   2 -27-15.5456 133.317   4
 -14   2 -28 744.670 283.607   2
 -14   2 -28 1346.46 372.164   4
  14  -4 -37-213.405 229.821   4
  14  -4 -36 411.337 179.161   4
  14  -4 -35 133.109 182.427   4
  14   4 -35 916.129 394.932   4
  14   4 -34 14483.2 1294.61   4
  14  -4 -34 9981.96 975.062   4
  14  -4 -33 292.666 244.575   4
  14  -4 -32-192.279 187.249   4
  14  -4 -31 89.4778 159.616   4
  14  -4 -30 5656.59 682.563   4
  14  -4 -29 121.808 140.757   4
  14  -4 -28 894.746 285.201   4
  14  -4 -27 594.865 256.635   4
  14  -4 -26 13631.4 947.066   4
  14  -4 -25 498.076 226.990   4
  14  -4 -24 5593.65 577.663   4
 -14  -4  24 5599.00 848.967   5
  14  -4 -23-72.6547 129.591   4
 -14  -4  23-190.720 235.600   5
  14  -4 -22 4128.18 467.846   4
 -14  -4  22 3796.08 711.311   5
 -14  -4  21 240.071 293.938   5
  14  -4 -21 457.223 193.716   4
  14  -4 -20 6264.77 546.887   4
 -14  -4  20 6401.43 911.976   5
  14  -4 -19 142.184 137.348   4
 -14  -4  19 208.437 235.710   5
  14  -4 -18 14325.4 720.227   5
  14  -4 -18 16948.6 818.273   4
 -14  -4  18 17538.9 1465.77   5
 -14  -4  17 403.867 332.130   5
  14  -4 -17 952.808 223.380   4
  14  -4 -17 705.148 159.051   5
  14  -4 -16 7104.78 433.685   5
 -14  -4  16 7999.97 988.910   5
  14  -4 -15 68.3556 50.3919   5
  14  -4 -15 79.0091 92.2881   4
  14  -4 -14 308.514 68.3660   5
 -14  -4  14 777.924 383.571   5
  14  -4 -14 941.379 175.669   4
 -14  -4  13 479.992 253.482   5
  14  -4 -13 233.900 85.9084   3
  14  -4 -13 550.314 134.435   4
  14  -4 -12 14578.6 536.121   4
  14  -4 -12 12455.0 437.977   3
 -14  -4  12 11812.1 1110.60   5
 -14  -4  11 702.893 309.395   5
  14   4 -11 280.857 221.520   3
  14  -4 -11 568.059 106.141   4
 -14  -4  10 5340.07 742.746   5
  14  -4 -10 5596.51 267.558   4
  14   4 -10 5558.74 654.919   3
 -14  -4   9 664.139 343.039   5
  14  -4  -9 270.882 57.8647   4
  14   4  -9 421.213 294.981   3
 -14  -4   8 14179.8 1090.49   5
  14   4  -8 15100.6 990.029   3
 -14  -4   7 12.3940 260.078   5
  14   4  -7 87.8186 203.101   3
 -14  -4   6 936.449 272.247   5
  14   4  -6 1055.91 279.425   3
 -14  -4   5 373.521 316.418   5
  14   4  -5 363.304 244.410   3
  14   4  -4 14032.1 883.206   3
 -14  -4   4 13866.1 1002.57   5
  14   4  -3-271.697 198.676   3
 -14  -4   3-305.145 233.695   5
 -14  -4   2 123.981 148.476   5
 -14   4   1 421.214 101.070   5
 -14  -4   1 782.380 249.307   4
 -14   4   1 386.995 102.244   3
 -14  -4   0 11826.5 758.361   4
 -14   4   0 11931.2 597.294   5
 -14   4   0 12427.0 537.669   3
 -14   4  -1 391.507 156.549   5
 -14  -4  -1 734.204 296.295   4
 -14   4  -1 336.244 109.186   3
 -14  -4  -2 9134.58 678.048   4
 -14   4  -2 9644.62 688.186   5
 -14   4  -3 334.424 186.458   5
 -14  -4  -3 757.598 355.730   4
 -14  -4  -4 17633.5 954.727   4
 -14   4  -4 16249.5 1027.76   5
 -14  -4  -5 270.510 202.693   4
 -14   4  -5 343.884 57.5746   4
 -14  -4  -6 631.919 229.884   4
 -14  -4  -6 592.438 284.729   1
 -14   4  -6 578.742 90.6485   4
 -14   4  -6 791.029 292.574   2
 -14  -4  -7 429.565 237.626   1
 -14  -4  -7 432.438 206.311   4
 -14   4  -7 491.454 100.801   4
 -14   4  -7 386.548 260.446   2
 -14  -4  -8 6150.39 760.235   1
 -14  -4  -8 6327.88 613.927   4
 -14   4  -8 7040.51 369.723   4
 -14   4  -8 6767.15 767.842   2
 -14  -4  -9 1897.24 443.706   4
 -14   4  -9 1882.41 214.535   4
 -14  -4  -9 1075.51 378.514   1
 -14   4  -9 1841.78 486.947   2
 -14  -4 -10 13133.8 1153.29   1
 -14   4 -10 13568.1 1085.54   2
 -14  -4 -10 13366.3 903.785   4
 -14   4 -10 14384.0 603.426   4
 -14  -4 -11 321.277 208.908   4
 -14  -4 -11-56.9676 195.529   1
 -14   4 -11 430.603 259.518   2
 -14   4 -11 83.8198 92.0714   4
 -14  -4 -12 5125.18 748.232   1
 -14  -4 -12 4405.58 534.466   4
 -14   4 -12 4749.95 386.433   4
 -14   4 -12 5052.00 664.043   2
 -14  -4 -13-32.7235 183.444   1
 -14  -4 -13 52.3387 154.136   4
 -14   4 -13 222.341 177.760   2
 -14   4 -13 236.308 120.752   4
 -14   4 -14 2779.09 522.483   2
 -14  -4 -14 2714.89 574.040   1
 -14  -4 -14 3047.80 474.661   4
 -14   4 -14 3155.97 342.686   4
 -14  -4 -15 163.754 210.508   1
 -14  -4 -15 159.907 194.703   4
 -14   4 -15-394.789 260.625   2
 -14   4 -15-24.3994 75.2248   4
 -14  -4 -16 643.180 288.746   1
 -14  -4 -16 1494.28 340.575   4
 -14   4 -16 1241.36 228.208   4
 -14   4 -16 720.695 231.124   2
 -14  -4 -17 687.471 309.543   4
 -14  -4 -17 471.264 323.464   1
 -14   4 -17 667.974 296.460   2
 -14   4 -17 713.017 203.690   4
 -14  -4 -18 15344.6 1436.36   1
 -14  -4 -18 16867.7 1158.89   4
 -14   4 -18 14797.9 838.663   4
 -14  -4 -19 669.792 340.835   1
 -14  -4 -19 137.609 222.804   4
 -14  -4 -20 644.839 366.672   1
 -14  -4 -20 604.688 305.229   4
 -14  -4 -21-148.694 197.115   4
 -14  -4 -21-122.363 191.259   1
 -14  -4 -22 4542.75 800.070   1
 -14  -4 -22 5156.43 705.652   4
 -14  -4 -23 57.8351 232.344   4
 -14  -4 -23 214.570 296.424   1
 -14  -4 -24-311.954 280.252   1
 -14  -4 -24 366.554 220.059   4
 -14  -4 -25 491.018 319.734   4
  14  -6 -34 8467.09 933.904   4
  14  -6 -33 462.291 272.197   4
  14  -6 -32 538.485 276.326   4
  14  -6 -31 55.9967 170.243   4
  14  -6 -30 3889.21 596.232   4
  14  -6 -29 462.365 244.237   4
  14  -6 -28 380.305 167.564   4
  14  -6 -27 381.661 207.363   4
  14  -6 -26 9608.58 833.551   4
  14  -6 -25 545.077 233.562   4
 -14  -6  25 558.389 438.359   5
  14  -6 -24 2713.46 430.105   4
 -14  -6  24 3560.08 752.742   5
  14  -6 -23 276.089 166.396   4
 -14  -6  23-59.7583 240.124   5
 -14  -6  22 3598.89 753.569   5
  14  -6 -22 3844.50 465.515   4
 -14  -6  21 1018.70 467.036   5
  14  -6 -21 1274.40 274.810   4
 -14  -6  20 6688.07 1031.34   5
  14  -6 -20 6817.86 585.720   4
 -14  -6  19 377.746 357.747   5
  14  -6 -19 258.837 151.821   4
 -14  -6  18 12639.4 1414.02   5
  14  -6 -18 13607.9 760.584   4
 -14  -6  17 1038.31 511.037   5
  14  -6 -17 924.464 207.890   4
 -14  -6  16 5367.08 899.673   5
  14  -6 -16 6827.03 491.229   4
 -14  -6  15-47.3703 293.710   5
  14  -6 -15 33.3106 83.0446   4
 -14  -6  14 802.596 439.127   5
  14  -6 -14 823.406 175.862   4
  14   6 -14 296.941 176.602   3
 -14  -6  13 664.919 407.342   5
  14  -6 -13 613.364 134.941   4
  14   6 -13 575.750 325.859   3
  14  -6 -12 11158.7 506.630   4
  14   6 -12 10404.6 988.998   3
 -14  -6  12 11217.5 1251.70   5
 -14  -6  11 74.2957 272.288   5
  14  -6 -11 70.0255 62.6832   4
  14   6 -11 75.1829 369.857   3
 -14  -6  10 4465.49 753.658   5
  14   6 -10 4614.60 624.916   3
 -14  -6   9 614.118 450.701   5
  14   6  -9 714.886 339.071   3
 -14  -6   8 13130.7 1259.49   5
  14   6  -8 13098.9 1015.12   3
 -14  -6   7 413.611 496.326   5
  14   6  -7 511.154 360.259   3
  14   6  -6 551.798 196.135   3
 -14  -6   6 78.4843 228.391   5
  14   6  -5 362.307 218.767   3
 -14  -6   5 81.6355 239.342   5
 -14  -6   4 7582.18 914.111   5
 -14  -6   3-178.244 207.997   5
 -14  -6   2-74.6552 182.517   5
 -14  -6   1 758.089 490.906   5
 -14  -6   0 9706.29 997.587   5
 -14  -6  -1 1106.83 474.004   5
 -14  -6  -2 5686.96 593.217   4
 -14  -6  -3 1336.91 478.862   4
 -14  -6  -4 13886.3 950.085   4
 -14  -6  -5 622.282 326.929   4
 -14  -6  -6 1851.01 370.898   4
 -14  -6  -7 12.9411 198.532   4
 -14  -6  -8 5974.46 664.355   4
 -14  -6  -9 1804.18 444.120   4
 -14  -6 -10 9141.69 838.111   4
 -14  -6 -11 272.313 230.467   1
 -14  -6 -11 63.5697 143.516   4
 -14  -6 -12 2629.51 584.154   1
 -14  -6 -12 1870.84 414.478   4
 -14  -6 -13 328.698 242.773   4
 -14  -6 -13 341.219 266.371   1
 -14  -6 -14 2333.38 458.188   4
 -14  -6 -14 1966.73 555.538   1
 -14  -6 -15 204.873 191.195   4
 -14  -6 -15 61.1985 243.510   1
 -14  -6 -16 1470.72 353.510   4
 -14  -6 -16 1715.49 500.398   1
 -14  -6 -17 602.072 351.531   1
 -14  -6 -17 440.519 286.667   4
 -14  -6 -18 10042.0 1262.89   1
 -14  -6 -18 10392.5 1006.70   4
 -14  -6 -19-282.931 339.036   1
 -14  -6 -19 441.037 307.845   4
 -14  -6 -20-161.542 361.234   1
 -14  -6 -20 126.494 211.201   4
 -14  -6 -21-254.354 270.436   1
 -14  -6 -22 3795.65 801.899   1
 -14  -6 -23 11.3504 233.779   1
 -14  -8  24 1999.10 644.521   5
 -14  -8  23 711.845 477.075   5
 -14  -8  22 2407.51 718.072   5
 -14  -8  21 1222.14 565.588   5
  14   8 -20 1994.33 490.899   3
 -14  -8  20 2566.83 768.054   5
 -14  -8  19 488.669 445.125   5
  14   8 -19 270.795 268.202   3
 -14  -8  18 6915.43 1162.58   5
  14   8 -18 6399.54 876.814   3
 -14  -8  17 2065.74 688.031   5
  14   8 -17 1434.92 509.472   3
 -14  -8  16 2191.28 700.809   5
  14   8 -16 2186.66 500.862   3
 -14  -8  15 178.434 363.512   5
  14   8 -15-264.075 204.219   3
 -14  -8  14 352.778 359.627   5
  14   8 -14-144.464 240.889   3
 -14  -8  13 1302.87 571.225   5
  14   8 -13 1559.01 436.791   3
  14   8 -12 8702.15 976.283   3
 -14  -8  12 8702.99 1326.17   5
 -14  -8  11-113.745 456.476   5
  14   8 -11 1069.65 457.926   3
 -14  -8  10 1861.18 543.156   5
  14   8 -10 1821.77 460.897   3
  14   8  -9 2408.34 615.449   3
 -14  -8   9 1084.74 579.819   5
 -14  -8   8 13399.1 1516.73   5
  14   8  -8 13940.2 1113.20   3
 -14  -8   7 1768.26 690.763   5
 -14  -8   6 68.9907 332.248   5
 -14  -8   5 582.638 683.481   5
 -14  -8   4 9174.39 1184.80   5
 -14  -8   3 782.559 729.023   5
 -14  -8   2-251.271 285.871   5
 -14  -8   1 426.110 627.486   5
 -14  -8   0 7643.93 1058.18   5
 -14  -8  -1 1906.35 749.903   5
 -14  -8  -2 4700.88 833.944   5
 -14  -8  -3 276.479 484.439   5
 -14  -8  -4 4236.08 778.061   5
 -14  -8  -5 405.334 433.927   5
 -14  -8  -6 1829.00 542.187   5
 -14  -8  -7 423.774 361.381   5
 -14  -8  -7 276.912 226.547   4
 -14  -8  -8 2466.29 617.848   5
 -14  -8  -8 2589.38 505.197   4
 -14  -8  -9 855.066 352.183   4
 -14  -8 -10 3879.62 606.574   4
 -14  -8 -11 18.2502 208.511   4
 -14  -8 -12 1972.09 448.858   4
 -14  -8 -13 336.962 178.213   4
 -14  -8 -14 2889.80 717.161   1
  15  -1 -39 5616.18 797.561   4
  15  -1 -38 229.667 231.727   4
  15   1 -38 188.851 297.383   4
  15  -1 -37 912.228 336.599   4
  15   1 -37 988.494 353.549   4
  15  -1 -36-139.236 177.610   4
  15   1 -36 262.532 239.718   4
  15   1 -35 4800.69 743.238   4
  15  -1 -35 4240.30 661.982   4
  15  -1 -34 114.364 141.943   4
  15   1 -34 308.430 239.444   4
  15  -1 -33 13.0693 160.806   4
  15   1 -33 302.816 235.700   4
  15  -1 -32-85.7429 145.973   4
  15   1 -32-188.446 202.960   4
  15  -1 -31 10438.1 940.935   4
  15   1 -31 11620.3 1013.32   4
  15  -1 -30-84.3103 155.156   4
  15   1 -30 136.741 184.825   4
  15  -1 -29 35.3458 145.521   4
  15   1 -29-69.6178 167.390   4
  15  -1 -28 295.209 188.708   4
  15   1 -28 133.943 177.067   4
  15  -1 -27 5639.66 625.660   4
  15  -1 -26 250.896 189.510   4
  15  -1 -25 130.142 137.334   4
  15  -1 -24-36.5402 121.207   4
  15  -1 -23 17055.8 970.790   4
  15  -1 -22 161.492 174.705   4
  15  -1 -21 9396.63 677.097   4
  15  -1 -20-133.930 141.026   4
  15  -1 -19 13143.1 758.262   4
  15  -1 -18 56.5471 102.103   5
 -15  -1  18 427.122 249.225   5
  15  -1 -17 4770.36 486.511   5
 -15  -1  17 5137.03 650.674   5
  15  -1 -16-0.96555 48.9540   1
  15  -1 -16 137.203 136.504   5
 -15  -1  16 88.9810 82.9129   1
 -15  -1  16-21.1997 182.230   5
  15  -1 -15 17577.8 842.759   5
  15  -1 -15 17593.2 616.868   1
 -15  -1  15 18719.5 697.781   1
 -15  -1  15 18712.9 1215.33   5
 -15  -1  14 445.093 237.140   5
 -15  -1  14 284.801 135.746   1
 -15   1  14 161.998 132.838   2
  15  -1 -14 20.0619 90.7706   5
  15  -1 -14 128.111 83.3615   1
  15  -1 -13 20518.6 744.133   1
 -15   1  13 21533.8 833.611   2
 -15  -1  13 19047.1 767.944   1
  15  -1 -13 20523.1 818.182   5
 -15  -1  13 19906.2 1175.37   5
 -15  -1  12-158.549 185.503   5
  15  -1 -12 78.3642 86.0434   1
 -15  -1  12 105.485 122.749   1
 -15   1  12 362.525 149.816   2
 -15  -1  11 581.983 209.389   5
  15  -1 -11 1062.52 189.865   1
 -15   1  11 1308.58 237.178   2
 -15  -1  11 802.676 191.684   1
 -15   1  11 802.724 169.470   5
 -15   1  10 259.996 121.802   5
 -15  -1  10 624.575 277.534   5
 -15   1  10 550.385 205.661   2
  15   1 -10 201.939 192.826   3
  15  -1 -10 549.875 182.789   1
  15  -1 -10 188.583 167.118   3
 -15  -1  10 655.283 224.173   1
 -15   1   9 22435.7 940.250   2
 -15  -1   9 19313.4 1029.53   5
  15  -1  -9 22083.7 900.380   1
 -15  -1   9 18725.7 855.374   1
  15   1  -9 18449.9 1009.78   3
  15  -1  -9 20336.2 900.935   3
 -15   1   9 19493.8 774.996   5
 -15   1   8-160.730 122.700   5
 -15  -1   8-195.078 188.960   5
  15  -1  -8 216.078 127.095   1
  15   1  -8-500.271 265.212   3
  15  -1  -8-247.137 180.198   3
 -15   1   7 2389.04 253.363   5
 -15  -1   7 2011.49 319.415   5
  15  -1  -7 3001.07 364.170   1
  15  -1  -7 2268.64 207.304   4
  15   1  -7 2219.65 336.216   3
  15  -1  -7 2227.92 299.955   3
  15  -1  -6 896.078 219.253   3
 -15   1   6 229.462 82.2944   5
 -15  -1   6 663.519 213.502   5
  15  -1  -6 346.781 90.1072   4
  15   1  -6 864.130 197.298   4
  15   1  -6 775.034 269.236   3
 -15   1   5 25293.2 721.123   5
 -15  -1   5 25481.1 1020.88   5
  15   1  -5 28249.8 908.113   4
  15  -1  -5 25906.4 625.869   4
  15   1  -5 26026.5 1068.59   3
  15   1  -4-221.303 165.069   3
  15   1  -4-7.05968 91.0476   4
  15  -1  -4 1.61792 58.3632   4
  15   1  -3 2224.03 271.316   4
  15  -1  -3 1856.65 171.428   4
 -15   1   3 2269.08 305.277   3
 -15  -1   3 2053.18 380.280   1
  15  -1  -2 141.229 53.8696   4
 -15  -1   2 482.384 338.880   1
 -15  -1   1 17085.4 699.133   4
  15  -1  -1 17008.5 528.726   4
 -15   1   0 0.94892 48.2575   4
 -15  -1   0-60.2056 104.142   4
  15  -1   0-43.2569 59.8700   4
  15  -1   1 1066.42 152.414   4
 -15   1  -1 1240.66 157.520   4
 -15  -1  -1 1204.76 213.014   4
  15  -1   2 248.569 80.1664   4
 -15  -1  -2 543.789 321.938   1
 -15  -1  -2 480.458 175.371   4
 -15   1  -2 290.233 89.7640   4
  15  -1   3 19827.3 674.354   4
 -15  -1  -3 19849.9 806.029   4
 -15   1  -3 19959.6 643.041   4
 -15  -1  -3 19864.4 1192.38   1
  15  -1   4-79.8806 54.0589   4
 -15  -1  -4 206.321 126.286   4
 -15   1  -4 65.9666 70.6848   4
 -15  -1  -4 35.9913 285.518   1
  15  -1   5 11881.3 573.636   4
 -15  -1  -5 11537.1 642.053   4
 -15   1  -5 11537.1 536.447   4
 -15  -1  -5 11357.6 942.176   1
 -15  -1  -6 222.598 278.088   1
  15  -1   6 134.051 103.395   4
 -15  -1  -6-37.9293 136.798   4
 -15   1  -6 169.111 121.761   4
 -15  -1  -7 20304.2 897.980   4
 -15   1  -7 21073.4 787.159   4
 -15  -1  -7 19597.3 1282.87   1
 -15  -1  -8 64.5472 220.902   1
 -15  -1  -8-222.257 110.419   4
 -15   1  -8 119.001 121.702   4
 -15  -1  -9 9457.92 639.966   4
 -15   1  -9 9207.84 567.282   4
 -15  -1  -9 7832.08 844.422   1
 -15  -1 -10 74.7520 418.575   1
 -15  -1 -10-23.4799 115.410   4
 -15   1 -10-15.1149 108.427   4
 -15  -1 -11 4312.67 476.491   4
 -15   1 -11 4738.56 444.158   4
 -15  -1 -12 171.723 187.244   4
 -15   1 -12 315.375 176.660   4
 -15  -1 -13 17757.9 976.530   4
 -15   1 -13 18043.5 897.940   4
 -15  -1 -14 60.8675 152.944   4
 -15   1 -14 288.132 154.298   4
 -15   1 -15 483.223 216.006   2
 -15  -1 -15 578.109 220.551   4
 -15   1 -15 391.192 159.147   4
 -15   1 -16-29.1997 219.396   2
 -15  -1 -16-8.57660 128.799   4
 -15   1 -16-71.9202 133.314   4
 -15   1 -17 5013.30 682.270   2
 -15  -1 -17 4215.50 519.474   4
 -15   1 -17 4352.13 487.271   4
 -15   1 -18-56.2671 260.008   2
 -15  -1 -18 10.1985 127.092   4
 -15   1 -18 41.0394 169.994   4
 -15   1 -19 963.288 295.066   2
 -15  -1 -19 1177.85 294.543   4
 -15   1 -19 1032.29 236.930   4
 -15   1 -20-138.774 226.697   2
 -15  -1 -20 179.633 200.634   4
 -15   1 -20 444.247 242.869   4
 -15   1 -21 16648.4 1289.37   2
 -15  -1 -21 15538.5 1084.18   4
 -15   1 -21 15771.8 1036.88   4
 -15   1 -22 125.372 205.026   2
 -15  -1 -22 87.1037 178.780   4
 -15   1 -22 38.4189 121.479   4
 -15   1 -23 121.383 178.630   2
 -15   1 -23-39.4498 151.328   4
 -15   1 -24 252.842 197.495   2
 -15  -1 -24-77.5208 162.827   4
 -15   1 -24-52.6990 159.394   4
 -15   1 -25 4926.95 731.755   2
 -15  -1 -25 5359.37 706.589   4
 -15   1 -25 4404.68 611.112   4
 -15   1 -26-79.1538 189.475   2
 -15  -1 -26-326.295 227.758   4
 -15   1 -26 210.736 153.708   4
 -15  -1 -27-196.671 257.410   2
 -15   1 -27-99.2852 218.675   2
 -15  -1 -27-60.4581 151.848   4
 -15   1 -27-345.135 245.976   4
 -15  -1 -28 35.3088 197.483   2
 -15   1 -28 479.609 290.752   2
 -15  -1 -28 2.21988 155.377   4
 -15   1 -28 146.457 186.962   4
 -15   1 -29 8262.49 868.594   4
  15  -3 -38 268.237 184.365   4
  15  -3 -37 1393.46 385.908   4
  15   3 -37 2081.93 538.946   4
  15  -3 -36 305.289 213.014   4
  15   3 -36 217.071 214.091   4
  15  -3 -35 2201.99 453.271   4
  15   3 -35 1813.22 474.319   4
  15  -3 -34-132.563 203.169   4
  15   3 -34-108.617 199.968   4
  15  -3 -33 385.625 213.379   4
  15   3 -33 148.065 171.470   4
  15  -3 -32-52.8320 155.144   4
  15  -3 -31 14291.3 1078.61   4
  15  -3 -30 155.392 243.930   4
  15  -3 -29 88.9681 136.388   4
  15  -3 -28 413.834 206.491   4
  15  -3 -27 7773.99 725.892   4
  15  -3 -26-26.0215 117.753   4
  15  -3 -25 705.529 233.390   4
  15  -3 -24 131.913 143.694   4
 -15  -3  23 16426.1 1362.71   5
  15  -3 -23 13764.0 860.982   4
  15  -3 -22 444.412 183.758   4
 -15  -3  22 359.000 296.753   5
  15  -3 -21 3440.25 413.189   4
 -15  -3  21 3699.24 668.723   5
 -15  -3  20 102.122 213.034   5
  15  -3 -20 110.560 102.715   5
  15  -3 -20-36.5294 99.5687   4
 -15  -3  19 7143.78 900.694   5
  15  -3 -19 7222.09 544.163   4
  15  -3 -19 5745.71 509.629   5
 -15  -3  18 553.820 332.391   5
  15  -3 -18 64.5773 82.9365   5
  15  -3 -18 313.855 155.552   4
  15  -3 -17 4973.08 406.072   5
  15  -3 -17 6671.38 485.199   4
 -15  -3  17 5885.84 809.764   5
 -15  -3  16 127.296 254.705   5
  15  -3 -16 67.4935 76.6782   5
  15  -3 -16 403.310 153.684   4
  15  -3 -15 22190.3 801.145   4
 -15  -3  15 19738.1 1424.31   5
 -15  -3  14 382.213 310.348   5
  15  -3 -14 597.699 151.907   4
  15  -3 -14 201.530 55.9727   5
  15  -3 -13 16864.9 620.558   4
 -15  -3  13 15037.9 1194.07   5
  15  -3 -12 184.581 98.0279   4
  15  -3 -12 22.8342 89.8283   3
  15  -3 -11 382.139 96.2632   4
 -15  -3  11 491.662 248.495   5
  15   3 -11 198.942 160.011   3
  15  -3 -11 429.448 128.090   3
 -15  -3  10-164.425 259.760   5
  15  -3 -10 106.360 63.1851   4
  15  -3 -10 127.307 102.943   3
 -15  -3   9 12881.1 990.936   5
  15   3  -9 12954.6 919.776   3
  15  -3  -9 12382.2 343.153   4
 -15  -3   8-78.2795 233.096   5
  15   3  -8-178.088 243.819   3
 -15  -3   7 2658.44 448.622   5
  15   3  -7 2902.53 426.253   3
 -15  -3   6 896.356 336.874   5
  15   3  -6 1001.71 376.841   3
 -15   3   6 1142.47 377.685   2
 -15  -3   5 25034.8 1264.47   5
 -15   3   5 26206.0 1247.89   2
  15   3  -5 25720.5 1185.00   3
  15   3  -4 59.3791 142.960   3
 -15  -3   4 75.1573 148.831   5
 -15   3   4 216.928 324.019   2
  15   3  -3 2343.25 389.831   3
 -15   3   3 2298.16 425.404   2
 -15   3   2 130.894 75.3294   5
 -15   3   2 430.465 141.661   3
 -15  -3   2 432.861 327.161   1
 -15   3   1 29343.1 1372.51   2
 -15  -3   1 30354.0 1110.22   4
 -15   3   1 31485.4 950.459   3
 -15  -3   1 28483.3 1300.09   1
 -15   3   1 28058.7 917.338   5
 -15  -3   0-82.9621 192.180   4
 -15  -3   0-24.4218 215.559   1
 -15   3   0 107.788 70.0017   5
 -15   3   0-9.19543 62.2887   3
 -15   3  -1 791.911 191.425   5
 -15   3  -1 790.442 168.624   3
 -15  -3  -1 1319.75 372.694   4
 -15  -3  -1 759.178 253.596   1
 -15   3  -1 796.322 277.462   2
 -15  -3  -2 28.6688 188.883   4
 -15  -3  -2 51.0438 242.564   1
 -15   3  -2 353.130 326.021   2
 -15   3  -2 65.4140 110.484   5
 -15  -3  -3 10708.6 876.252   1
 -15   3  -3 9409.03 687.413   5
 -15   3  -3 9707.87 836.670   2
 -15   3  -3 6739.50 216.483   4
 -15  -3  -3 9196.74 653.301   4
 -15  -3  -4 490.693 220.137   4
 -15   3  -4 531.645 83.4105   4
 -15   3  -4 522.329 332.605   2
 -15  -3  -4 447.733 246.492   1
 -15   3  -4 415.415 149.886   5
 -15  -3  -5 6226.90 706.837   1
 -15   3  -5 6556.18 733.385   2
 -15  -3  -5 6479.34 566.829   4
 -15   3  -5 6355.80 296.312   4
 -15  -3  -6-40.3109 164.075   4
 -15   3  -6 228.804 311.480   2
 -15   3  -6 59.5109 64.8747   4
 -15  -3  -6-105.523 199.283   1
 -15  -3  -7 12190.6 1030.90   1
 -15   3  -7 11519.5 960.975   2
 -15  -3  -7 11557.8 774.135   4
 -15   3  -7 12556.9 502.125   4
 -15  -3  -8-128.195 216.634   1
 -15  -3  -8 59.5341 167.579   4
 -15   3  -8 287.652 284.618   2
 -15   3  -8 112.948 82.2107   4
 -15   3  -9 5013.36 668.479   2
 -15  -3  -9 5363.95 735.973   1
 -15  -3  -9 5926.97 577.689   4
 -15   3  -9 5676.35 392.907   4
 -15  -3 -10 118.339 199.675   1
 -15  -3 -10 296.338 213.332   4
 -15   3 -10 138.497 228.297   2
 -15   3 -10 240.312 113.102   4
 -15   3 -11 8103.19 836.196   2
 -15  -3 -11 7352.30 898.722   1
 -15  -3 -11 7192.23 659.605   4
 -15   3 -11 8332.59 523.549   4
 -15  -3 -12 459.239 288.182   4
 -15   3 -12 1006.22 378.486   2
 -15  -3 -12 649.039 332.271   1
 -15   3 -12 638.402 180.067   4
 -15   3 -13 19591.1 1343.54   2
 -15  -3 -13 18379.8 1443.24   1
 -15  -3 -13 20169.9 1147.19   4
 -15   3 -13 21350.4 909.236   4
 -15  -3 -14 71.2700 247.299   1
 -15  -3 -14 410.997 235.229   4
 -15   3 -14 213.179 261.805   2
 -15   3 -14 58.7448 102.015   4
 -15  -3 -15 2041.61 522.527   1
 -15  -3 -15 1940.86 387.406   4
 -15   3 -15 2308.87 325.036   4
 -15   3 -15 1680.65 419.649   2
 -15  -3 -16 111.342 273.043   1
 -15  -3 -16 276.763 194.023   4
 -15   3 -16-138.502 272.568   2
 -15   3 -16 183.967 161.286   4
 -15  -3 -17 3837.54 554.248   4
 -15   3 -17 4301.27 467.687   4
 -15   3 -17 3961.51 620.441   2
 -15  -3 -17 3198.28 646.472   1
 -15  -3 -18 277.442 266.189   1
 -15  -3 -18-6.59416 133.567   4
 -15   3 -18 260.527 248.692   2
 -15   3 -18 36.0656 114.367   4
 -15  -3 -19 298.135 193.877   1
 -15  -3 -19 802.810 304.271   4
 -15   3 -19 246.744 178.298   2
 -15   3 -19 258.741 159.880   4
 -15  -3 -20 236.905 202.951   1
 -15  -3 -20 244.022 240.472   4
 -15   3 -20 383.332 253.847   2
 -15   3 -20 291.549 154.102   4
 -15   3 -21 16546.3 1311.91   2
 -15  -3 -21 16049.2 1184.12   4
 -15   3 -21 15190.8 953.562   4
 -15  -3 -22 343.634 228.369   4
 -15   3 -22 35.5810 192.356   2
 -15   3 -22 162.281 185.164   4
 -15  -3 -23 802.273 279.017   4
 -15   3 -23-92.9177 241.567   2
 -15  -3 -24 146.737 167.184   4
 -15   3 -24 334.157 182.301   2
 -15  -3 -25 5383.81 733.366   4
 -15   3 -25 4297.01 722.250   2
 -15   3 -26 534.635 221.309   2
  15  -5 -36-181.757 147.747   4
  15  -5 -35 3291.20 604.202   4
  15  -5 -34 81.5491 173.038   4
  15  -5 -33-2.40346 148.023   4
  15  -5 -32-26.5255 163.150   4
  15  -5 -31 7575.12 824.130   4
  15  -5 -30 441.216 206.661   4
  15  -5 -29 94.8171 141.386   4
  15  -5 -28 288.002 174.390   4
  15  -5 -27 2541.83 428.982   4
  15  -5 -26 58.6499 137.285   4
  15  -5 -25 1510.44 311.303   4
 -15  -5  25 1512.29 535.542   5
  15  -5 -24 633.599 231.139   4
 -15  -5  24 253.671 244.790   5
  15  -5 -23 21947.2 1123.17   4
 -15  -5  23 20781.9 1704.13   5
 -15  -5  22 1324.47 535.649   5
  15  -5 -22 1764.67 322.416   4
 -15  -5  21 5777.61 943.789   5
  15  -5 -21 5525.01 531.181   4
 -15  -5  20 7.51833 281.493   5
  15  -5 -20 279.099 174.819   4
  15  -5 -19 7161.91 554.774   4
 -15  -5  19 6316.59 956.672   5
 -15  -5  18 1625.17 543.354   5
  15  -5 -18 1755.49 276.722   4
 -15  -5  17 5906.90 905.235   5
  15  -5 -17 8590.29 559.078   4
 -15  -5  16 493.887 380.825   5
  15  -5 -16 371.427 114.760   4
 -15  -5  15 14912.2 1396.49   5
  15  -5 -15 16314.6 679.236   4
 -15  -5  14 1262.94 494.532   5
  15  -5 -14 1434.98 200.724   4
  15  -5 -13 11695.9 491.965   4
  15   5 -13 10428.2 964.053   3
 -15  -5  13 10449.5 1119.39   5
 -15  -5  12-157.043 238.560   5
  15  -5 -12 79.5797 58.0303   4
  15   5 -12 323.412 393.552   3
 -15  -5  11 808.093 361.104   5
  15  -5 -11 801.249 108.774   4
  15   5 -11 855.328 311.555   3
 -15  -5  10 79.9941 242.569   5
  15   5 -10 666.290 325.039   3
 -15  -5   9 13747.2 1215.52   5
  15   5  -9 13849.9 1028.00   3
 -15  -5   8-463.401 352.504   5
  15   5  -8-117.005 206.825   3
 -15  -5   7 2755.13 531.041   5
  15   5  -7 3561.96 514.147   3
 -15  -5   6 658.408 311.316   5
  15   5  -6 892.873 283.517   3
 -15  -5   5 10522.4 1002.35   5
  15   5  -5 10650.9 848.249   3
  15   5  -4 435.042 322.742   3
 -15  -5   4 79.0277 225.078   5
 -15  -5   3 2742.76 509.922   5
 -15  -5   2 340.428 376.316   5
 -15  -5   1 13201.7 1083.31   5
 -15  -5  -1 353.117 171.075   4
 -15  -5  -2 533.267 373.084   4
 -15  -5  -3 16730.1 986.234   4
 -15  -5  -4 1211.52 382.456   4
 -15  -5  -5 9575.53 783.114   4
 -15  -5  -6 466.053 367.967   4
 -15  -5  -7 18199.1 1340.96   1
 -15  -5  -7 19311.3 1114.53   4
 -15  -5  -8-221.128 231.191   1
 -15  -5  -8 555.270 282.354   4
 -15  -5  -9 4204.42 547.168   4
 -15  -5  -9 3664.41 646.142   1
 -15  -5 -10 170.034 186.292   4
 -15  -5 -10 133.131 266.925   1
 -15  -5 -11 3494.11 503.202   4
 -15  -5 -11 3449.25 668.292   1
 -15  -5 -12 616.316 294.053   4
 -15  -5 -12 424.294 243.099   1
 -15  -5 -13 9136.41 1083.05   1
 -15  -5 -13 9791.33 879.470   4
 -15  -5 -14 721.219 377.327   1
 -15  -5 -14-57.3863 176.703   4
 -15  -5 -15 1248.26 457.715   1
 -15  -5 -15 1731.95 377.366   4
 -15  -5 -16 122.087 247.897   1
 -15  -5 -16 156.189 212.428   4
 -15  -5 -17 1411.80 491.951   1
 -15  -5 -17 2168.50 451.169   4
 -15  -5 -18-4.85479 156.903   4
 -15  -5 -18-73.5255 215.727   1
 -15  -5 -19 235.237 198.589   4
 -15  -5 -19 188.276 192.054   1
 -15  -5 -20-28.8096 259.079   1
 -15  -5 -20 387.624 261.296   4
 -15  -5 -21 12778.7 1441.14   1
 -15  -5 -21 14540.5 1201.31   4
 -15  -5 -22 398.806 372.812   1
 -15  -5 -22 163.086 216.639   4
 -15  -5 -23-75.5414 195.271   1
 -15  -5 -24 245.096 248.515   1
 -15  -7  26 579.874 427.893   5
 -15  -7  25 305.363 359.663   5
 -15  -7  24 747.373 471.299   5
 -15  -7  23 11183.9 1389.10   5
 -15  -7  22 1848.32 627.258   5
 -15  -7  21 1901.15 642.100   5
 -15  -7  20 120.411 281.583   5
 -15  -7  19 4194.48 879.580   5
 -15  -7  18 2725.56 733.007   5
  15   7 -18 2930.89 609.348   3
 -15  -7  17 5212.93 992.118   5
  15   7 -17 5696.61 816.218   3
 -15  -7  16 61.1727 353.490   5
  15   7 -16 238.206 417.241   3
  15   7 -15 8901.72 965.625   3
 -15  -7  15 9957.78 1301.56   5
 -15  -7  14 2245.07 683.578   5
  15   7 -14 2701.13 627.077   3
  15   7 -13 7244.90 878.778   3
 -15  -7  13 6502.20 1043.75   5
 -15  -7  12-65.4182 249.667   5
  15   7 -12 226.561 303.268   3
 -15  -7  11 552.078 347.122   5
  15   7 -11 216.775 170.591   3
 -15  -7  10 462.973 397.536   5
  15   7 -10 776.974 338.724   3
 -15  -7   9 8897.70 1157.22   5
  15   7  -9 8678.54 884.412   3
  15   7  -8 813.693 499.999   3
 -15  -7   8 72.4948 536.090   5
  15   7  -7 1896.99 426.044   3
 -15  -7   7 1750.90 528.619   5
 -15  -7   6 1393.21 544.885   5
 -15  -7   5 10528.6 1203.73   5
 -15  -7   4 1033.19 625.771   5
 -15  -7   3 572.041 270.295   5
 -15  -7   2 641.133 441.921   5
 -15  -7   1 12119.6 1240.06   5
 -15  -7   0 1002.35 443.642   5
 -15  -7  -1 185.879 217.786   5
 -15  -7  -2 492.322 438.037   5
 -15  -7  -3 5166.64 825.083   5
 -15  -7  -4 848.223 453.771   5
 -15  -7  -4 906.783 399.574   4
 -15  -7  -5 3836.23 539.697   4
 -15  -7  -6 91.5535 280.117   4
 -15  -7  -7 8333.99 815.487   4
 -15  -7  -8 96.7947 234.038   4
 -15  -7  -9 1798.62 396.280   4
 -15  -7 -10 75.5337 175.128   4
 -15  -7 -11 4210.21 748.490   1
 -15  -7 -11 4097.84 635.950   4
 -15  -7 -12 1546.19 476.116   1
 -15  -7 -12 1290.07 397.684   4
 -15  -7 -13 10687.9 1290.25   1
 -15  -7 -13 10571.1 1000.93   4
 -15  -7 -14-101.576 196.282   4
 -15  -7 -14 165.755 335.631   1
 -15  -7 -15 2614.56 524.510   4
 -15  -7 -15 1751.53 576.944   1
 -15  -7 -16 537.194 326.809   4
 -15  -7 -16-92.3301 297.704   1
 -15  -7 -17 1577.82 527.735   1
 -15  -7 -18-251.382 484.403   1
  15   9 -23 5483.99 902.911   3
  15   9 -22 905.388 406.823   3
  15   9 -21 1651.63 489.794   3
  15   9 -20 80.8469 233.466   3
  15   9 -19 1236.66 452.394   3
 -15  -9  18 2383.63 824.587   5
  15   9 -18 1766.07 513.820   3
 -15  -9  17 1361.51 593.608   5
  15   9 -17 1563.78 455.704   3
 -15  -9  16 257.960 525.605   5
  15   9 -16 434.959 329.025   3
 -15  -9  15 4042.48 911.985   5
  15   9 -15 3550.43 693.134   3
 -15  -9  14 1934.37 694.388   5
  15   9 -14 2100.88 613.447   3
 -15  -9  13 3557.93 875.318   5
  15   9 -13 4729.41 771.742   3
  15   9 -12 702.157 453.519   3
 -15  -9  12 780.865 484.507   5
  15   9 -11 1765.93 439.856   3
 -15  -9  11 65.4058 379.379   5
 -15  -9  10 1843.34 685.018   5
 -15  -9   9 6777.18 1152.36   5
 -15  -9   8 553.275 500.613   5
 -15  -9   7 1146.41 541.508   5
 -15  -9   6 1036.40 797.594   5
 -15  -9   5 7687.19 1277.77   5
 -15  -9   4 1648.57 883.862   5
 -15  -9   3 165.694 355.284   5
 -15  -9   2-201.043 301.912   5
 -15  -9   1 5608.07 995.502   5
 -15  -9   0 693.431 515.469   5
 -15  -9  -1 152.778 216.986   5
 -15  -9  -2 405.847 371.058   5
 -15  -9  -3 4153.32 881.623   5
 -15  -9  -4 2308.76 790.969   5
 -15  -9  -5 3783.00 829.049   5
 -15  -9  -6 836.725 450.264   5
  16   0 -39 197.311 233.112   4
  16   0 -38 1142.85 375.104   4
  16   0 -37-183.082 190.258   4
  16   0 -36 8619.52 970.708   4
  16   0 -35 587.060 308.510   4
  16   0 -34 998.569 335.382   4
  16   0 -33-43.8537 150.711   4
  16   0 -32 5679.27 716.716   4
  16   0 -31-106.329 184.395   4
  16   0 -30-10.6081 146.282   4
  16   0 -29-166.987 190.691   4
  16   0 -28 13404.2 991.586   4
  16   0 -27 111.759 202.780   4
  16   0 -26 43.4073 124.352   4
  16   0 -25 258.596 184.408   4
 -16   0  18 9696.13 395.026   2
 -16   0  17 20.2031 66.9519   2
 -16   0  16 1166.49 174.277   2
 -16   0  16 1152.73 285.682   5
  16   0 -15 124.178 141.224   5
 -16   0  15-310.307 178.487   5
  16   0 -14 13019.0 781.193   5
 -16   0  14 12826.4 872.044   5
 -16   0  13 91.1529 128.563   5
 -16   0  12 14921.9 907.917   5
 -16   0  11-21.3182 151.142   5
  16   0 -11 142.899 207.340   3
  16   0 -10 3252.28 416.786   3
 -16   0  10 2881.35 376.337   5
 -16   0   9 51.6425 120.162   5
  16   0  -9-33.4495 88.4451   4
  16   0  -9-192.222 190.943   3
  16   0  -8 639.776 171.385   1
 -16   0   8 363.802 116.098   5
  16   0  -8 579.873 147.237   4
  16   0  -8 604.638 178.537   3
 -16   0   7 451.609 171.814   5
  16   0  -7 349.249 125.764   4
  16   0  -7 817.185 249.342   3
 -16   0   6 21364.7 855.959   5
  16   0  -6 22457.5 747.806   4
  16   0  -6 22453.4 968.762   3
 -16   0   5 56.6904 80.5394   5
  16   0  -5-67.9865 81.1200   4
  16   0  -5 113.504 147.608   3
  16   0  -4 6063.51 381.638   4
  16   0  -3 374.838 136.276   4
  16   0  -2 41210.2 1009.50   4
 -16   0   1-34.2301 71.7580   4
  16   0  -1-82.7936 80.5020   4
 -16   0   0 3448.69 302.426   4
  16   0   0 3602.42 314.185   4
 -16   0  -1 184.844 129.779   4
  16   0   1 144.304 97.8428   4
 -16   0  -2 18089.3 696.736   4
  16   0   2 18689.9 736.230   4
 -16   0  -3-31.3722 81.8537   4
 -16   0  -4 538.344 148.166   4
 -16   0  -5 104.364 125.901   4
 -16   0  -6 9446.24 563.977   4
 -16   0  -7 46.4113 127.486   4
 -16   0  -8 10972.1 654.453   4
 -16   0  -9 241.415 165.095   4
 -16   0 -10 8707.03 613.276   4
 -16   0 -11 89.0838 101.936   4
 -16   0 -12 6027.38 545.500   4
 -16   0 -13 205.146 176.108   4
 -16   0 -14 3377.92 426.116   4
 -16   0 -15 521.701 250.965   4
 -16   0 -16 9595.99 757.260   4
 -16   0 -17 55.4188 136.418   4
 -16   0 -18 2305.12 402.324   4
 -16   0 -19 243.249 188.332   4
 -16   0 -20 4014.13 536.835   4
 -16   0 -21-10.9080 159.846   4
 -16   0 -22 633.943 283.738   2
 -16   0 -22 613.862 216.023   4
 -16   0 -23 791.844 322.625   2
 -16   0 -23 253.981 220.194   4
 -16   0 -24 21163.6 1545.65   2
 -16   0 -24 20122.6 1277.94   4
 -16   0 -25 124.829 196.566   2
 -16   0 -25 268.586 222.159   4
 -16   0 -26-402.277 220.319   2
 -16   0 -26 182.350 177.845   4
 -16   0 -27-42.1472 163.967   2
 -16   0 -27 48.8133 161.402   4
 -16   0 -28 5576.96 831.788   2
 -16   0 -28 4731.66 679.140   4
  16  -2 -39 404.784 258.453   4
  16  -2 -38 1222.88 380.114   4
  16   2 -38 881.446 373.532   4
  16  -2 -37-155.621 186.225   4
  16   2 -37-132.068 184.228   4
  16   2 -36 6536.64 860.155   4
  16  -2 -36 7144.89 853.352   4
  16  -2 -35 162.628 143.501   4
  16   2 -35 461.868 351.047   4
  16  -2 -34 850.614 316.372   4
  16   2 -34 1365.10 400.487   4
  16  -2 -33-36.5709 139.553   4
  16   2 -33-45.3630 191.412   4
  16  -2 -32 3532.23 545.509   4
  16   2 -32 4129.50 627.933   4
  16  -2 -31 3.33385 149.811   4
  16   2 -31 478.218 261.875   4
  16  -2 -30-0.97941 157.668   4
  16  -2 -29 342.126 210.961   4
  16  -2 -28 21985.3 1238.36   4
  16  -2 -27 585.737 258.347   4
  16  -2 -26 990.151 296.648   4
  16  -2 -25-90.5158 121.439   4
  16  -2 -24 8322.74 686.656   4
  16  -2 -23 212.434 181.128   4
  16  -2 -22 1139.33 255.293   4
 -16  -2  22 775.942 117.139   1
  16  -2 -21 108.910 124.501   4
  16  -2 -21 82.5202 36.7546   1
 -16  -2  21 144.570 73.7380   1
 -16  -2  21 47.9320 198.599   5
  16  -2 -20 10452.2 678.706   4
  16  -2 -20 8535.26 387.880   1
 -16  -2  20 10775.9 499.783   1
 -16  -2  20 10648.1 1029.06   5
  16  -2 -20 11192.3 771.027   5
 -16  -2  19 82.9502 247.405   5
 -16  -2  19 144.326 98.8426   1
  16  -2 -19 315.872 145.121   5
  16  -2 -19 428.820 186.403   4
  16  -2 -19 24.5145 60.5449   1
 -16  -2  18 633.764 301.174   5
  16  -2 -18 819.354 201.285   5
  16  -2 -18 1170.02 255.752   4
 -16  -2  18 701.503 146.638   1
  16  -2 -18 638.213 133.086   1
  16  -2 -17 47.3018 86.0089   5
  16  -2 -17 121.649 87.9888   1
  16  -2 -17 47.2319 103.521   4
 -16  -2  17 121.368 218.271   5
 -16  -2  17 71.5472 94.9950   1
 -16  -2  16 994.430 334.074   5
  16  -2 -16 1148.44 199.094   5
  16  -2 -16 1485.78 238.904   4
  16  -2 -16 1305.43 196.787   1
 -16  -2  16 1153.72 197.976   1
  16  -2 -15 91.8737 95.0277   1
 -16  -2  15-14.9660 185.725   5
  16  -2 -15 32.2109 64.0030   5
  16  -2 -15 261.996 134.243   4
 -16  -2  15 256.739 133.036   1
 -16  -2  14 9766.36 581.526   1
  16  -2 -14 9534.36 458.170   5
  16  -2 -14 9714.34 511.784   4
  16  -2 -14 9878.38 574.631   1
 -16  -2  14 10791.7 953.579   5
  16  -2 -13 150.326 121.259   1
 -16  -2  13 156.788 189.092   5
  16  -2 -13 375.577 152.862   4
  16  -2 -12 17330.1 624.252   4
  16  -2 -12 18203.0 884.737   3
  16  -2 -12 17800.5 813.447   1
 -16  -2  12 17342.7 1180.47   5
 -16  -2  11 664.587 326.496   5
  16  -2 -11 1006.31 205.951   4
  16   2 -11 1001.12 366.954   3
  16  -2 -11 574.458 221.157   3
  16   2 -10 24184.1 1261.65   3
  16  -2 -10 25497.0 959.761   3
 -16  -2  10 23401.3 1267.09   5
 -16  -2   9-158.288 193.815   5
  16   2  -9-149.704 184.638   3
  16  -2  -9-242.421 143.055   3
  16  -2  -8 286.801 116.362   3
 -16  -2   8 330.476 170.301   5
  16  -2  -8 194.960 69.5659   4
  16   2  -8 682.372 236.096   3
 -16  -2   7 290.890 209.426   5
  16  -2  -7 254.965 66.5610   4
 -16   2   7 812.605 421.241   2
 -16  -2   7 795.645 293.185   1
  16   2  -7 376.463 182.059   3
 -16  -2   6 14717.9 914.331   5
 -16  -2   6 16099.1 895.802   1
 -16   2   6 15227.0 927.677   2
  16  -2  -6 13708.0 345.166   4
  16   2  -6 16535.0 935.517   3
  16   2  -5 212.613 169.564   3
 -16   2   5 47.6041 35.1966   5
 -16  -2   5 224.771 148.288   5
 -16   2   5 362.875 323.996   2
  16  -2  -5 8.95665 25.9122   4
 -16  -2   5 474.520 311.624   1
 -16  -2   4 8220.51 672.060   1
 -16   2   4 8341.80 706.668   2
  16   2  -4 7491.74 625.189   3
  16  -2  -4 6276.47 208.569   4
  16  -2  -3 158.338 52.3381   4
 -16   2   3 224.596 144.844   3
  16  -2  -2 24377.2 434.793   4
 -16   2   2 25568.5 1254.89   2
 -16  -2   2 27380.0 1284.88   1
 -16   2   2 28088.8 987.710   3
 -16  -2   1 695.758 317.810   1
  16  -2  -1 528.753 72.1803   4
 -16  -2   1 531.314 160.114   4
 -16   2   1 1292.06 422.728   2
  16  -2   0 1139.72 111.241   4
 -16  -2   0 1298.83 308.697   1
 -16   2   0 2080.59 415.394   2
 -16  -2   0 1283.22 246.219   4
 -16  -2  -1 1180.16 440.731   1
 -16   2  -1 1618.14 501.221   2
  16  -2   1 724.617 110.117   4
 -16  -2  -1 1088.34 269.436   4
 -16   2  -2 21439.1 1213.42   2
  16  -2   2 22092.8 591.064   4
 -16  -2  -2 23418.1 1305.16   1
 -16   2  -2 24123.5 578.404   4
 -16  -2  -2 22513.7 943.797   4
 -16   2  -3 503.966 302.151   2
 -16   2  -3 27.6492 53.8809   4
 -16  -2  -3 75.2512 145.236   4
 -16  -2  -3 125.174 220.535   1
 -16   2  -4 98.3264 221.202   2
 -16  -2  -4 258.919 160.089   4
 -16   2  -4 328.581 96.4202   4
 -16  -2  -4 346.109 198.100   1
 -16   2  -5 207.149 253.609   2
 -16  -2  -5 77.0260 150.008   4
 -16   2  -5 82.8957 65.1779   4
 -16  -2  -5-27.5462 180.751   1
 -16   2  -6 5477.03 641.826   2
 -16  -2  -6 5989.23 721.526   1
 -16  -2  -6 5541.22 509.040   4
 -16   2  -6 6278.72 381.028   4
 -16  -2  -7 112.811 260.944   1
 -16   2  -7 304.014 251.143   2
 -16  -2  -7 129.877 172.750   4
 -16   2  -7 300.088 115.786   4
 -16   2  -8 6255.59 736.465   2
 -16  -2  -8 6551.15 804.801   1
 -16  -2  -8 6206.60 561.612   4
 -16   2  -8 6879.19 443.081   4
 -16  -2  -9 203.210 252.925   1
 -16   2  -9 228.155 225.879   2
 -16  -2  -9 83.5918 166.628   4
 -16   2  -9 59.1752 86.1762   4
 -16  -2 -10 4615.08 707.275   1
 -16   2 -10 3822.53 563.529   2
 -16  -2 -10 4351.40 482.816   4
 -16   2 -10 4814.61 409.789   4
 -16   2 -11-475.662 304.782   2
 -16  -2 -11 52.4984 138.453   4
 -16   2 -11 20.7837 110.752   4
 -16  -2 -11-21.7576 243.049   1
 -16  -2 -12 2458.57 528.443   1
 -16   2 -12 2604.01 502.641   2
 -16   2 -12 3374.74 362.981   4
 -16  -2 -12 2830.33 413.536   4
 -16   2 -13-102.224 230.469   2
 -16  -2 -13 145.701 152.507   4
 -16  -2 -13 74.1032 236.939   1
 -16   2 -13 204.870 103.893   4
 -16   2 -14 6983.65 802.898   2
 -16  -2 -14 7463.99 690.793   4
 -16  -2 -14 6609.46 865.620   1
 -16   2 -14 7883.26 590.912   4
 -16   2 -15 755.927 366.814   2
 -16  -2 -15 948.992 304.281   4
 -16  -2 -15 883.171 413.378   1
 -16   2 -15 491.473 194.639   4
 -16   2 -16 20035.7 1392.10   2
 -16  -2 -16 19594.6 1151.06   4
 -16   2 -16 20757.6 1018.22   4
 -16   2 -17 407.845 300.693   2
 -16  -2 -17 479.453 221.342   4
 -16   2 -17 294.644 152.623   4
 -16  -2 -18 4130.71 560.785   4
 -16   2 -18 3794.71 619.854   2
 -16   2 -18 3924.62 458.614   4
 -16   2 -19 112.801 189.903   2
 -16  -2 -19 99.0845 135.542   4
 -16   2 -19-60.2856 148.148   4
 -16   2 -20 5437.41 767.563   2
 -16  -2 -20 5556.14 673.574   4
 -16   2 -20 5384.42 574.210   4
 -16   2 -21-172.763 199.584   2
 -16  -2 -21 339.012 238.858   4
 -16   2 -21 21.1200 114.021   4
 -16   2 -22 307.592 300.983   2
 -16  -2 -22 570.048 240.432   4
 -16   2 -22 42.9097 111.579   4
 -16   2 -23-45.1597 218.597   2
 -16  -2 -23 487.877 288.634   4
 -16   2 -23-17.4935 140.816   4
 -16   2 -24 8449.65 994.713   2
 -16  -2 -24 9907.74 989.390   4
 -16   2 -24 8762.54 807.307   4
 -16   2 -25 96.5226 216.898   2
 -16  -2 -25 284.328 256.066   4
 -16  -2 -26 99.4841 167.997   4
 -16   2 -26 279.146 297.266   2
 -16   2 -27 470.308 233.377   2
  16  -4 -38 1136.10 355.136   4
  16  -4 -37 78.3795 133.328   4
  16  -4 -36 4664.37 694.787   4
  16  -4 -35-236.188 228.675   4
  16   4 -35 191.918 214.347   4
  16  -4 -34 333.857 210.044   4
  16  -4 -33-249.899 192.260   4
  16  -4 -32 4571.55 630.901   4
  16  -4 -31 190.982 173.549   4
  16  -4 -30-101.248 140.107   4
  16  -4 -29 115.682 142.142   4
  16  -4 -28 13362.4 979.581   4
  16  -4 -27 257.289 177.940   4
  16  -4 -26 358.667 204.990   4
  16  -4 -25 43.9393 109.998   4
 -16  -4  25 334.755 320.129   5
  16  -4 -24 5287.78 563.726   4
 -16  -4  24 5775.66 874.005   5
  16  -4 -23 108.720 136.812   4
 -16  -4  23 30.5618 262.015   5
 -16  -4  22 631.731 348.325   5
  16  -4 -22 668.324 214.942   4
 -16  -4  21 122.527 201.733   5
  16  -4 -21 435.616 205.435   4
  16  -4 -20 11544.8 718.415   4
 -16  -4  20 11397.1 1224.45   5
 -16  -4  19 761.209 391.956   5
  16  -4 -19 567.046 171.614   4
  16  -4 -18 8294.35 561.943   4
 -16  -4  18 6249.77 924.552   5
 -16  -4  17-11.3499 274.257   5
  16  -4 -17 159.344 112.382   4
 -16  -4  16 2383.89 560.107   5
  16  -4 -16 3536.00 331.377   4
 -16  -4  15-169.237 223.503   5
  16  -4 -15-45.7722 72.0631   3
  16  -4 -15 252.156 117.625   4
 -16  -4  14 6606.96 874.276   5
  16  -4 -14 9121.90 461.761   3
  16  -4 -14 9684.29 475.772   4
 -16  -4  13 206.310 242.256   5
  16   4 -13 483.207 349.769   3
  16  -4 -13 181.371 76.8653   4
  16  -4 -13 195.366 89.1923   3
  16  -4 -12 11228.5 414.556   4
  16   4 -12 11350.9 971.399   3
 -16  -4  12 10826.0 1087.35   5
 -16  -4  11 120.437 249.465   5
  16  -4 -11 323.550 71.0794   4
 -16  -4  10 9602.21 970.373   5
  16   4 -10 10305.6 896.026   3
 -16  -4   9-379.419 258.292   5
  16   4  -9-378.656 175.007   3
 -16  -4   8 412.971 201.430   5
  16   4  -8 94.3172 164.545   3
 -16  -4   7 332.547 255.096   5
  16   4  -7 1055.77 374.746   3
 -16  -4   6 12960.0 1059.85   5
  16   4  -6 13844.4 957.112   3
  16   4  -5 92.6296 241.780   3
 -16  -4   5 277.136 490.927   5
 -16  -4   4 3127.71 525.282   5
  16   4  -4 3764.57 507.713   3
 -16  -4   3 1327.29 505.376   5
 -16   4   1 230.669 80.5040   5
 -16   4   1 359.296 109.304   3
 -16   4   0 1138.01 201.051   5
 -16  -4   0 1238.95 277.180   4
 -16   4   0 1091.44 185.211   3
 -16   4  -1 819.463 197.264   5
 -16  -4  -1 1176.58 365.031   4
 -16   4  -1 953.277 184.151   3
 -16   4  -1 1320.31 435.648   2
 -16  -4  -2 12000.4 967.742   1
 -16  -4  -2 11562.2 791.053   4
 -16   4  -2 11225.3 749.919   5
 -16   4  -2 10941.1 958.941   2
 -16   4  -3-84.5876 120.316   5
 -16  -4  -3-4.25686 153.940   4
 -16  -4  -3 125.571 208.451   1
 -16   4  -3 80.6354 270.818   2
 -16  -4  -4 91.9118 130.221   4
 -16  -4  -4 133.639 150.672   1
 -16   4  -4 323.328 219.082   2
 -16  -4  -5 228.787 246.842   4
 -16  -4  -5 75.1771 225.549   1
 -16   4  -5 263.494 302.326   2
 -16   4  -6 6606.62 750.208   2
 -16  -4  -6 7967.45 688.000   4
 -16   4  -6 5324.64 222.512   4
 -16  -4  -6 8199.43 880.338   1
 -16  -4  -7 665.111 318.571   4
 -16   4  -7 404.497 79.7870   4
 -16  -4  -7 776.265 325.223   1
 -16   4  -7 594.968 328.582   2
 -16  -4  -8 7725.25 881.135   1
 -16   4  -8 7253.88 824.195   2
 -16  -4  -8 8020.73 709.299   4
 -16   4  -8 7118.13 356.737   4
 -16  -4  -9-6.39167 187.380   1
 -16  -4  -9 302.810 256.280   4
 -16   4  -9 130.879 97.2988   4
 -16   4  -9 96.7027 230.802   2
 -16  -4 -10 8999.71 994.192   1
 -16   4 -10 8553.82 903.938   2
 -16  -4 -10 9411.05 795.359   4
 -16   4 -10 9766.29 484.941   4
 -16  -4 -11-272.386 260.102   1
 -16  -4 -11 32.8110 177.288   4
 -16   4 -11 35.2574 240.082   2
 -16  -4 -12 2727.72 615.722   1
 -16  -4 -12 2589.64 432.628   4
 -16   4 -12 2230.59 497.273   2
 -16  -4 -13 212.429 255.202   1
 -16  -4 -13 10.5596 155.371   4
 -16   4 -13-169.438 188.243   2
 -16  -4 -14 4333.19 580.586   4
 -16  -4 -14 4300.70 754.862   1
 -16   4 -14 3675.81 626.431   2
 -16  -4 -15 646.966 255.608   4
 -16  -4 -15 596.279 291.387   1
 -16   4 -15 87.2877 193.232   2
 -16   4 -16 12044.9 1135.70   2
 -16  -4 -16 13389.4 1369.84   1
 -16  -4 -16 12204.1 988.000   4
 -16  -4 -17 48.1922 204.612   1
 -16  -4 -17-23.3478 176.467   4
 -16   4 -17 5.16268 214.374   2
 -16   4 -18 2841.56 553.203   2
 -16  -4 -18 2599.07 619.500   1
 -16  -4 -18 2317.82 444.305   4
 -16  -4 -19 353.861 236.383   4
 -16  -4 -19-15.4131 194.428   1
 -16  -4 -20 3156.37 742.227   1
 -16  -4 -20 4410.28 642.163   4
 -16  -4 -21 431.543 224.994   4
 -16  -4 -21 27.7915 268.211   1
 -16  -4 -22 873.246 325.836   4
 -16  -4 -22 273.953 269.314   1
 -16  -4 -23 413.519 426.681   1
 -16  -4 -23 1670.90 580.898   4
 -16  -6  26 122.576 275.629   5
 -16  -6  25 64.1451 209.086   5
 -16  -6  24 4968.11 896.007   5
 -16  -6  23 198.045 310.630   5
 -16  -6  22 2331.27 628.100   5
 -16  -6  21-365.763 282.695   5
 -16  -6  20 11174.4 1354.87   5
 -16  -6  19 1495.15 583.810   5
 -16  -6  18 6949.07 1071.55   5
 -16  -6  17 252.137 362.539   5
  16   6 -16 1635.24 410.430   3
 -16  -6  16 2591.86 681.563   5
 -16  -6  15 278.719 270.259   5
  16   6 -15 510.206 283.886   3
 -16  -6  14 5193.69 890.390   5
  16   6 -14 4625.19 690.463   3
 -16  -6  13-95.4737 232.557   5
  16   6 -13-2.76293 427.012   3
  16   6 -12 7769.56 865.878   3
 -16  -6  12 7913.36 1087.84   5
 -16  -6  11 419.771 352.597   5
  16   6 -11 973.285 485.419   3
 -16  -6  10 6733.26 954.379   5
  16   6 -10 5937.03 740.568   3
  16   6  -9 66.6807 298.674   3
 -16  -6   9-413.511 391.396   5
 -16  -6   8 424.051 231.966   5
  16   6  -8 854.605 292.135   3
  16   6  -7 1102.31 368.565   3
 -16  -6   7 653.146 485.189   5
 -16  -6   6 9058.76 1061.07   5
  16   6  -6 9484.30 845.871   3
 -16  -6   5-94.9851 252.750   5
 -16  -6   4 1651.19 432.815   5
 -16  -6   3 1315.32 496.592   5
 -16  -6   2 16399.0 1349.33   5
 -16  -6   1 1296.84 571.674   5
 -16  -6   0 750.355 328.759   5
 -16  -6  -1 1361.49 644.575   5
 -16  -6  -3 445.963 352.765   4
 -16  -6  -4 125.498 210.787   4
 -16  -6  -5 616.377 327.145   4
 -16  -6  -6 7839.96 772.638   4
 -16  -6  -7 895.282 341.337   4
 -16  -6  -8 6743.92 908.369   1
 -16  -6  -8 7054.79 753.583   4
 -16  -6  -9 289.120 217.957   1
 -16  -6  -9-31.3603 237.132   4
 -16  -6 -10 7527.55 986.177   1
 -16  -6 -10 9550.15 884.322   4
 -16  -6 -11 285.798 224.500   4
 -16  -6 -11 91.3092 198.840   1
 -16  -6 -12 1066.50 328.758   4
 -16  -6 -12 1114.27 414.074   1
 -16  -6 -13 44.7989 162.592   4
 -16  -6 -13 2.28684 263.180   1
 -16  -6 -14 2683.16 524.391   4
 -16  -6 -14 2368.99 636.002   1
 -16  -6 -15 997.475 463.397   1
 -16  -6 -15 1361.22 394.966   4
 -16  -6 -16 10048.1 1265.50   1
 -16  -6 -16 10203.0 986.321   4
 -16  -6 -17 83.2132 222.037   1
 -16  -6 -17 232.209 237.310   4
 -16  -6 -18 2688.51 682.758   1
 -16  -6 -18 3120.22 556.719   4
 -16  -6 -19 151.961 213.853   1
 -16  -6 -20 2464.44 698.397   1
 -16  -8  23-37.6597 330.354   5
  16   8 -23 731.406 373.827   3
 -16  -8  22 1329.11 555.653   5
  16   8 -22 735.253 353.689   3
 -16  -8  21 309.262 421.797   5
  16   8 -21 323.108 307.601   3
 -16  -8  20 4470.50 951.872   5
  16   8 -20 3718.82 695.020   3
 -16  -8  19 1256.82 550.783   5
  16   8 -19 1006.77 459.281   3
 -16  -8  18 736.098 482.704   5
  16   8 -18 77.8411 218.109   3
 -16  -8  17-73.5974 282.812   5
  16   8 -17-491.574 292.936   3
 -16  -8  16 955.864 551.224   5
  16   8 -16 1271.59 374.788   3
 -16  -8  15 190.923 395.308   5
  16   8 -15 534.003 363.473   3
 -16  -8  14 2513.22 677.833   5
  16   8 -14 3439.70 659.432   3
 -16  -8  13 106.892 566.382   5
  16   8 -13 1145.76 473.591   3
 -16  -8  12 5950.68 1091.63   5
  16   8 -12 6769.16 877.739   3
 -16  -8  11 1836.48 910.565   5
  16   8 -11 3685.42 823.808   3
  16   8 -10 9622.27 989.737   3
 -16  -8  10 9661.89 1332.71   5
  16   8  -9 499.761 537.046   3
 -16  -8   9 426.555 851.149   5
 -16  -8   8-148.114 225.272   5
 -16  -8   7 650.392 556.884   5
 -16  -8   6 7452.65 1106.48   5
 -16  -8   5 72.2369 367.278   5
 -16  -8   4 1347.06 491.246   5
 -16  -8   3 1780.48 752.870   5
 -16  -8   2 9704.98 1248.03   5
 -16  -8   1 986.246 786.719   5
 -16  -8   0 790.785 432.805   5
 -16  -8  -1 1248.48 477.834   5
 -16  -8  -2 8026.05 1105.69   5
 -16  -8  -3 1542.47 664.315   5
 -16  -8  -4 321.060 332.533   5
 -16  -8  -5 340.646 308.126   5
 -16  -8  -6 2383.11 626.292   5
 -16  -8  -7 1012.33 404.490   5
 -16  -8  -8 3755.75 767.502   5
 -16  -8  -8 3398.05 583.718   4
 -16  -8  -9 93.4785 201.098   4
 -16  -8 -10 4320.88 672.844   4
 -16  -8 -11-1.01788 191.147   1
 -16  -8 -11 409.593 256.052   4
  17  -1 -39 2674.46 555.320   4
  17  -1 -38 290.156 208.539   4
  17   1 -38 25.5331 190.751   4
  17   1 -37 6371.09 853.985   4
  17  -1 -37 5147.50 760.489   4
  17  -1 -36 320.111 161.543   4
  17   1 -36 249.685 239.301   4
  17  -1 -35 1986.69 479.303   4
  17   1 -35 1660.96 410.689   4
  17   1 -34 360.404 212.298   4
  17  -1 -34 267.231 234.724   4
  17  -1 -33 12365.1 1046.65   4
  17   1 -33 15189.8 1191.35   4
  17  -1 -32-12.1880 144.848   4
  17   1 -32 48.8773 155.690   4
  17  -1 -31 248.771 141.995   4
  17   1 -31 1464.39 537.455   4
  17  -1 -30-49.3353 154.283   4
  17   1 -30 93.3386 180.101   4
  17  -1 -29 5228.19 620.311   4
  17   1 -29 6295.44 705.767   4
  17  -1 -28-29.2390 147.644   4
  17  -1 -27 663.786 237.660   4
  17  -1 -26 228.826 179.801   4
  17  -1 -25 24315.8 1201.65   4
  17  -1 -24 287.879 173.642   4
  17  -1 -23 237.918 191.885   4
  17  -1 -22 137.977 111.266   4
 -17  -1  21 3383.91 162.298   2
  17  -1 -21 6060.37 550.079   4
  17  -1 -20 259.702 166.130   4
 -17  -1  20 354.612 259.615   5
 -17  -1  19 5164.43 661.051   5
  17  -1 -18 65.7793 101.958   5
 -17  -1  18 215.111 220.085   5
  17  -1 -17 16943.6 885.001   5
 -17  -1  17 18458.2 1230.01   5
  17  -1 -16 183.670 87.3390   1
 -17  -1  16 304.643 257.795   5
  17  -1 -16 304.455 148.846   5
 -17   1  16 342.226 136.186   2
  17  -1 -15 10592.7 544.635   1
  17  -1 -15 12064.3 679.379   5
 -17   1  15 12554.2 656.819   2
 -17  -1  15 11653.3 624.677   1
 -17  -1  15 12377.3 988.040   5
 -17  -1  14 242.455 141.811   1
 -17   1  14 214.476 139.239   2
  17  -1 -14-28.1995 61.4508   1
 -17  -1  13 477.870 150.762   5
 -17   1  13 905.774 224.344   2
  17  -1 -13 778.754 185.331   1
 -17  -1  13 685.623 179.979   1
  17  -1 -12 121.797 114.787   1
 -17  -1  12 127.789 156.040   5
  17   1 -12-7.82156 184.351   3
  17  -1 -12 294.129 198.202   3
 -17   1  12 177.362 166.478   5
  17  -1 -11 14828.9 765.767   1
  17   1 -11 12710.1 914.240   3
  17  -1 -11 15360.6 882.439   3
 -17   1  11 15797.0 758.836   5
 -17  -1  11 13911.5 939.741   5
 -17   1  10-37.7383 120.721   5
 -17  -1  10 228.881 184.671   5
  17   1 -10 147.677 155.818   3
  17  -1 -10-308.861 185.755   3
 -17  -1   9 10353.7 757.425   5
  17  -1  -9 11461.7 516.091   4
  17   1  -9 11234.4 813.134   3
  17  -1  -9 11649.6 719.875   3
 -17   1   9 11355.2 615.593   5
 -17   1   8-22.8242 91.5252   5
 -17  -1   8 100.144 137.020   5
  17  -1  -8 137.316 84.1638   4
  17   1  -8 332.022 258.307   3
  17  -1  -8 189.311 170.141   3
 -17   1   7 11976.3 584.474   5
 -17  -1   7 10758.7 730.169   5
  17  -1  -7 13113.4 507.700   4
 -17  -1   7 11427.1 774.309   1
  17   1  -7 10128.5 738.271   3
  17  -1  -7 12527.6 695.064   3
 -17   1   6-190.852 113.316   5
 -17  -1   6-198.592 189.217   5
  17   1  -6-222.283 179.694   3
 -17  -1   6 209.672 197.510   1
  17  -1  -6 1.70878 64.3676   4
  17   1  -5-86.8835 153.263   3
 -17   1   5 305.513 140.455   5
 -17  -1   5 7.74827 106.447   5
 -17  -1   5 128.422 173.330   1
  17  -1  -5 255.789 112.787   4
 -17  -1   4 380.701 303.297   1
  17  -1  -4 103.203 66.9666   4
 -17  -1   3 12126.6 867.222   1
  17  -1  -3 11882.9 466.890   4
 -17  -1   2 192.091 210.480   1
  17  -1  -2-49.3256 56.1924   4
 -17  -1   1 2241.90 276.419   4
 -17  -1   1 1805.50 369.544   1
  17  -1  -1 2278.22 221.191   4
  17  -1   0 289.962 99.5299   4
 -17  -1   0 718.213 213.889   4
 -17  -1   0 765.080 387.502   1
 -17   1  -1 20689.4 655.099   4
 -17  -1  -1 20091.9 826.412   4
 -17  -1  -1 19730.4 1204.84   1
  17  -1   1 19696.3 674.174   4
  17  -1   2-58.9037 63.2097   4
 -17   1  -2 36.8856 66.2806   4
 -17  -1  -2 106.948 140.006   4
 -17  -1  -3 4359.89 406.207   4
 -17   1  -3 4821.83 346.427   4
 -17  -1  -3 4817.76 627.661   1
  17  -1   3 4321.46 341.316   4
  17  -1   4-29.8008 61.8846   4
 -17  -1  -4 248.934 192.872   4
 -17   1  -4 106.655 110.105   4
 -17  -1  -4 360.361 581.139   1
  17  -1   5 14415.3 667.255   4
 -17  -1  -5 14567.3 756.253   4
 -17   1  -5 15086.1 639.225   4
 -17  -1  -5 14239.0 1119.56   1
 -17  -1  -6 83.1707 142.184   4
 -17   1  -6 53.2928 84.3255   4
 -17  -1  -6 100.917 226.847   1
 -17  -1  -7 274.134 223.343   1
 -17  -1  -7-96.7710 129.483   4
 -17   1  -7 70.1397 84.7710   4
 -17  -1  -8-54.2266 160.491   1
 -17  -1  -8 74.7487 145.556   4
 -17   1  -8 250.717 135.919   4
 -17  -1  -9 9668.86 673.534   4
 -17   1  -9 9965.40 611.081   4
 -17  -1 -10-98.2547 109.653   4
 -17   1 -10 323.677 137.977   4
 -17  -1 -11 4608.50 496.674   4
 -17   1 -11 4711.80 452.599   4
 -17  -1 -12 116.153 155.135   4
 -17   1 -12 186.777 137.330   4
 -17  -1 -13 8716.34 711.086   4
 -17   1 -13 8430.65 634.826   4
 -17   1 -14-66.4051 227.482   2
 -17  -1 -14 186.940 183.134   4
 -17   1 -14 224.990 157.204   4
 -17   1 -15 3254.02 562.285   2
 -17  -1 -15 3345.96 468.297   4
 -17   1 -15 3461.32 430.812   4
 -17   1 -16-155.846 247.687   2
 -17  -1 -16 35.1804 112.474   4
 -17   1 -16 79.3575 127.339   4
 -17   1 -17 2839.92 531.060   2
 -17  -1 -17 4260.25 550.497   4
 -17   1 -17 3780.47 462.247   4
 -17   1 -18 444.673 273.180   2
 -17  -1 -18-116.113 149.046   4
 -17   1 -18 414.052 237.578   4
 -17   1 -19 12580.6 1162.17   2
 -17  -1 -19 12746.7 976.144   4
 -17   1 -19 13492.8 935.378   4
 -17   1 -20 224.872 234.595   2
 -17  -1 -20 148.433 157.633   4
 -17   1 -20 227.854 170.918   4
 -17   1 -21 779.808 320.145   2
 -17  -1 -21 1019.08 328.442   4
 -17   1 -21 557.592 214.467   4
 -17   1 -22-45.2764 205.173   2
 -17  -1 -22 267.568 226.372   4
 -17   1 -22 32.2294 169.514   4
 -17   1 -23 3370.21 648.968   2
 -17  -1 -23 3457.04 544.674   4
 -17   1 -23 2818.71 464.469   4
 -17   1 -24-171.825 226.766   2
 -17  -1 -24 147.668 223.101   4
 -17   1 -24 317.322 199.871   4
 -17  -1 -25 431.751 268.993   4
 -17   1 -25-78.8757 191.955   4
 -17  -1 -26 592.400 260.540   2
 -17   1 -26 573.775 301.993   2
 -17  -1 -26 128.895 208.804   4
 -17   1 -26 688.824 392.409   4
 -17  -1 -27 9689.40 1118.81   2
 -17   1 -27 10199.3 1109.89   2
  17  -3 -38 156.158 200.197   4
  17  -3 -37 4521.86 687.862   4
  17  -3 -36-132.871 228.030   4
  17   3 -36 43.7086 153.097   4
  17  -3 -35 600.038 257.217   4
  17   3 -35 35.7875 193.727   4
  17  -3 -34 361.235 232.372   4
  17   3 -34 872.994 354.468   4
  17  -3 -33 13809.9 1106.93   4
  17  -3 -32 49.9009 146.184   4
  17  -3 -31 164.804 179.141   4
  17  -3 -30 428.607 220.904   4
  17  -3 -29 6961.78 708.790   4
  17  -3 -28-64.8463 124.406   4
  17  -3 -27-12.0819 124.214   4
  17  -3 -26-35.8490 127.999   4
  17  -3 -25 18469.7 1036.02   4
 -17  -3  24 1165.81 480.154   5
  17  -3 -24 1521.11 319.046   4
  17  -3 -23 671.668 232.243   4
 -17  -3  23 809.642 159.941   1
 -17  -3  23 696.448 352.210   5
  17  -3 -22 39.2085 104.127   4
 -17  -3  22 196.787 91.4531   1
 -17  -3  22 349.641 208.939   5
 -17  -3  21 3463.55 331.146   1
 -17  -3  21 3510.90 667.933   5
  17  -3 -21 3793.06 428.269   4
 -17  -3  20 379.977 266.442   5
  17  -3 -20-17.5416 107.274   4
 -17  -3  19 3759.89 657.833   5
  17  -3 -19 3691.58 387.100   4
 -17  -3  18 82.5440 238.568   5
  17  -3 -18-28.0612 63.6839   5
  17  -3 -18 43.6231 85.3247   4
  17  -3 -17 6275.48 374.098   5
 -17  -3  17 8697.84 991.956   5
  17  -3 -17 8880.36 552.698   4
 -17  -3  16 290.849 230.032   5
  17  -3 -16 233.119 124.468   4
  17  -3 -15 6584.79 431.372   4
 -17  -3  15 6291.01 825.262   5
 -17  -3  14 303.978 237.796   5
  17  -3 -14 402.729 108.279   4
  17  -3 -14 269.692 108.643   3
  17  -3 -13 1734.23 196.443   4
 -17  -3  13 1864.35 444.481   5
  17   3 -13 966.502 289.499   3
  17  -3 -13 1840.72 263.979   3
  17  -3 -12 288.833 107.019   4
 -17  -3  12 736.093 341.215   5
  17   3 -12 352.676 287.301   3
  17  -3 -12 245.160 137.723   3
 -17  -3  11 13465.9 1108.83   5
  17   3 -11 13178.7 1004.88   3
  17  -3 -11 15468.2 664.915   3
  17  -3 -11 14845.5 466.499   4
  17  -3 -10 131.247 61.8604   4
 -17  -3  10-291.456 289.000   5
  17   3 -10 36.9877 316.834   3
 -17  -3   9 9043.46 859.406   5
  17   3  -9 8635.12 787.898   3
 -17  -3   9 8737.19 657.869   1
 -17  -3   8 1041.84 326.124   5
 -17  -3   8 1533.84 376.235   1
  17   3  -8 1701.74 453.647   3
 -17   3   8 1342.78 432.763   2
 -17  -3   7 22982.8 1100.37   1
 -17  -3   7 24535.5 1367.68   5
 -17   3   7 25778.9 1291.72   2
  17   3  -7 25023.4 1266.25   3
  17   3  -6-130.992 183.240   3
 -17  -3   6-217.062 185.364   5
 -17  -3   6 308.698 277.039   1
 -17   3   6 306.478 356.085   2
  17   3  -5-161.415 209.918   3
 -17  -3   5-351.754 236.471   5
 -17  -3   5-27.4252 116.094   1
 -17   3   5 65.0780 192.358   2
 -17  -3   4 647.695 284.013   5
 -17  -3   4 263.687 251.313   1
 -17   3   4 372.334 288.347   2
 -17  -3   3 9456.64 774.706   1
 -17   3   3 8332.57 772.694   2
 -17   3   2 99.4338 66.5134   5
 -17   3   2 219.567 117.376   3
 -17  -3   2 203.204 216.263   1
 -17   3   2 465.846 313.457   2
 -17  -3   1 2458.29 353.030   4
 -17   3   1 2363.51 457.956   2
 -17  -3   1 2721.93 443.123   1
 -17   3   1 2019.06 259.121   5
 -17  -3   0 568.529 232.912   4
 -17   3   0 834.142 383.271   2
 -17  -3   0 947.841 353.253   1
 -17   3   0 699.853 170.724   5
 -17  -3  -1 8586.55 808.265   1
 -17   3  -1 7742.25 573.854   5
 -17   3  -1 8463.54 823.451   2
 -17  -3  -1 9031.71 652.189   4
 -17  -3  -2 99.2918 195.213   4
 -17   3  -2 286.331 271.154   2
 -17   3  -2 125.739 109.074   5
 -17  -3  -2 123.775 246.137   1
 -17  -3  -3 2669.04 479.299   1
 -17  -3  -3 2860.19 385.968   4
 -17   3  -3 2801.14 478.424   2
 -17   3  -3 2796.29 377.896   5
 -17  -3  -4 408.213 306.583   1
 -17   3  -4 158.899 57.2987   4
 -17  -3  -4 301.777 262.423   4
 -17   3  -4 673.363 359.690   2
 -17   3  -5 10758.3 962.696   2
 -17  -3  -5 10832.2 994.833   1
 -17  -3  -5 11000.0 767.927   4
 -17   3  -5 10163.1 379.569   4
 -17  -3  -6 180.843 258.908   1
 -17  -3  -6 113.439 167.186   4
 -17   3  -6 172.000 65.4163   4
 -17   3  -6 124.388 178.393   2
 -17  -3  -7 55.2090 183.473   1
 -17  -3  -7 38.8873 136.065   4
 -17   3  -7-53.1885 198.015   2
 -17   3  -7 121.811 61.9193   4
 -17  -3  -8-43.6493 198.551   1
 -17  -3  -8 219.806 223.429   4
 -17   3  -8 301.834 226.908   2
 -17   3  -8 170.105 85.4046   4
 -17   3  -9 8844.84 909.505   2
 -17  -3  -9 9049.66 991.926   1
 -17  -3  -9 8932.68 730.245   4
 -17   3  -9 9775.76 512.268   4
 -17  -3 -10 101.938 205.003   4
 -17   3 -10-67.7649 171.418   2
 -17   3 -10 166.933 109.316   4
 -17  -3 -10-124.323 233.915   1
 -17   3 -11 6424.44 806.301   2
 -17  -3 -11 6334.83 872.427   1
 -17  -3 -11 7466.55 692.322   4
 -17   3 -11 7621.64 503.627   4
 -17  -3 -12 553.950 424.324   1
 -17  -3 -12 185.737 216.591   4
 -17   3 -12 61.3967 213.690   2
 -17   3 -12 112.902 100.842   4
 -17   3 -13 9377.56 977.968   2
 -17  -3 -13 9857.87 1110.34   1
 -17  -3 -13 10235.7 835.391   4
 -17   3 -13 9962.13 618.125   4
 -17  -3 -14-12.7892 151.909   4
 -17  -3 -14-41.0015 223.467   1
 -17   3 -14-213.185 250.343   2
 -17   3 -14-20.1203 85.4465   4
 -17  -3 -15 3247.72 490.702   4
 -17   3 -15 3637.96 403.735   4
 -17   3 -15 3228.36 598.683   2
 -17  -3 -15 3600.89 700.443   1
 -17  -3 -16 318.116 263.417   1
 -17  -3 -16 298.003 194.026   4
 -17   3 -16 52.4468 181.299   2
 -17   3 -16-38.9145 100.562   4
 -17  -3 -17 4216.94 775.378   1
 -17   3 -17 5111.09 761.594   2
 -17  -3 -17 4577.03 604.581   4
 -17  -3 -18 224.185 324.925   1
 -17  -3 -18 79.3097 194.703   4
 -17   3 -18-110.501 174.690   2
 -17  -3 -19 12205.0 1335.41   1
 -17   3 -19 15025.9 1329.26   2
 -17  -3 -19 13426.8 1077.28   4
 -17  -3 -20 759.685 316.461   4
 -17   3 -20 318.220 262.938   2
 -17  -3 -21 1379.18 378.889   4
 -17   3 -21 1434.63 433.242   2
 -17  -3 -22 476.523 276.805   4
 -17   3 -22-199.659 215.672   2
 -17  -3 -23 2715.54 532.137   4
 -17   3 -23 2774.66 613.825   2
 -17  -3 -24 448.597 283.026   4
 -17   3 -24 46.2054 168.230   2
 -17   3 -25-103.472 189.513   2
  17  -5 -36 73.5139 152.041   4
  17  -5 -35 753.665 313.757   4
  17  -5 -34 172.030 170.036   4
  17  -5 -33 6567.62 780.841   4
  17  -5 -32-151.985 188.619   4
  17  -5 -31 565.944 243.839   4
  17  -5 -30 336.371 188.952   4
  17  -5 -29 3759.83 537.561   4
  17  -5 -28 603.455 189.921   4
  17  -5 -27 130.666 166.131   4
  17  -5 -26 88.9945 120.954   4
 -17  -5  26 66.8865 218.561   5
  17  -5 -25 12137.8 871.442   4
 -17  -5  25 11879.3 1305.10   5
  17  -5 -24 592.014 202.221   4
 -17  -5  24 1094.73 481.559   5
 -17  -5  23 1321.19 503.265   5
  17  -5 -23 494.175 183.562   4
 -17  -5  22-120.876 228.513   5
  17  -5 -22-64.6696 117.732   4
 -17  -5  21 5134.20 892.807   5
  17  -5 -21 6401.32 549.729   4
 -17  -5  20-48.7914 334.051   5
  17  -5 -20 0.13832 97.3769   4
 -17  -5  19 1219.08 422.706   5
  17  -5 -19 1536.45 252.011   4
 -17  -5  18 95.1936 261.651   5
  17  -5 -18 211.705 107.570   4
  17  -5 -17 9622.04 549.066   4
 -17  -5  17 8172.89 1074.23   5
 -17  -5  16 375.296 351.841   5
  17  -5 -16 378.004 137.644   4
  17  -5 -15 11810.8 522.192   4
  17   5 -15 11497.4 1042.39   3
 -17  -5  15 11493.4 1256.37   5
 -17  -5  14-491.675 258.121   5
  17  -5 -14 3.85713 58.8082   4
  17   5 -14 235.979 369.462   3
 -17  -5  13 802.665 381.289   5
  17  -5 -13 821.156 113.073   4
  17   5 -13 533.640 199.292   3
 -17  -5  12 427.323 336.940   5
  17   5 -12 660.780 317.051   3
 -17  -5  11 9919.50 1096.22   5
  17   5 -11 10569.2 968.739   3
 -17  -5  10-108.827 250.380   5
  17   5 -10 24.3582 440.597   3
 -17  -5   9 3988.66 680.629   5
  17   5  -9 4920.58 647.723   3
 -17  -5   8 437.801 264.404   5
  17   5  -8 1187.68 504.259   3
 -17  -5   7 8120.51 928.336   5
  17   5  -7 7933.92 794.493   3
  17   5  -6 144.871 253.261   3
 -17  -5   6-257.820 215.340   5
  17   5  -5 703.615 243.630   3
 -17  -5   5 418.699 310.243   5
 -17  -5   4 612.181 360.019   5
 -17  -5   3 6175.33 769.373   5
 -17  -5   2-70.5776 241.543   5
 -17  -5   1 903.937 372.212   5
 -17  -5  -1 18007.7 1047.31   4
 -17  -5  -2 868.379 392.598   4
 -17  -5  -3 5514.45 595.828   4
 -17  -5  -4 637.882 333.044   1
 -17  -5  -4 918.560 427.433   4
 -17  -5  -5 12473.5 1107.34   1
 -17  -5  -5 12169.4 898.214   4
 -17  -5  -6 246.956 146.212   4
 -17  -5  -6 175.067 219.477   1
 -17  -5  -7-117.392 211.770   4
 -17  -5  -7 110.129 211.634   1
 -17  -5  -8 387.305 252.030   4
 -17  -5  -8 69.5308 213.409   1
 -17  -5  -9 4859.25 602.350   4
 -17  -5  -9 5153.81 788.317   1
 -17  -5 -10 196.004 214.412   4
 -17  -5 -10 527.264 322.878   1
 -17  -5 -11 5466.43 860.217   1
 -17  -5 -11 4739.65 631.585   4
 -17  -5 -12-147.797 237.284   1
 -17  -5 -12 376.308 238.951   4
 -17  -5 -13 5278.43 865.756   1
 -17  -5 -13 5708.42 697.573   4
 -17  -5 -14-74.8203 279.753   1
 -17  -5 -14 120.686 175.795   4
 -17  -5 -15 4047.61 789.530   1
 -17  -5 -15 3936.27 596.649   4
 -17  -5 -16 390.814 207.201   4
 -17  -5 -16 252.411 328.680   1
 -17  -5 -17 3390.80 553.823   4
 -17  -5 -17 3139.49 724.727   1
 -17  -5 -18 469.860 333.245   1
 -17  -5 -18 374.466 242.906   4
 -17  -5 -19 8374.26 1203.37   1
 -17  -5 -19 9470.68 966.682   4
 -17  -5 -20 955.536 436.113   1
 -17  -5 -20 344.183 328.387   4
 -17  -5 -21 969.408 478.728   1
 -17  -5 -22 456.664 353.794   1
 -17  -7  27-114.478 226.348   5
 -17  -7  26 1213.27 537.171   5
 -17  -7  25 9217.13 1291.05   5
 -17  -7  24 1438.14 567.355   5
 -17  -7  23 684.525 406.930   5
 -17  -7  22 70.6673 220.711   5
 -17  -7  21 4274.82 920.864   5
 -17  -7  20 105.730 332.187   5
  17   7 -20-56.7848 202.139   3
 -17  -7  19 1322.88 489.730   5
  17   7 -19 1798.30 472.223   3
 -17  -7  18 89.9312 419.561   5
  17   7 -18-118.874 192.180   3
 -17  -7  17 5660.55 1040.70   5
  17   7 -17 5388.95 788.770   3
 -17  -7  16 306.123 482.447   5
  17   7 -16 385.115 332.437   3
 -17  -7  15 5272.38 989.224   5
  17   7 -15 4181.24 677.230   3
 -17  -7  14 11.2311 424.918   5
  17   7 -14 226.000 384.661   3
 -17  -7  13 2447.72 643.613   5
  17   7 -13 2014.80 472.449   3
 -17  -7  12 770.254 514.276   5
  17   7 -12 837.366 381.431   3
 -17  -7  11 4776.03 889.416   5
  17   7 -11 5221.87 738.591   3
  17   7 -10 376.135 315.487   3
 -17  -7  10 612.005 586.037   5
  17   7  -9 3804.20 620.958   3
 -17  -7   9 3886.60 793.638   5
 -17  -7   8 2282.00 772.371   5
  17   7  -8 2873.22 677.289   3
 -17  -7   7 11732.4 1318.17   5
 -17  -7   6 507.621 716.126   5
 -17  -7   5-351.899 302.966   5
 -17  -7   4 966.324 415.781   5
 -17  -7   3 5809.93 909.394   5
 -17  -7   2-73.4387 206.044   5
 -17  -7   1 665.526 314.832   5
 -17  -7   0 403.068 468.875   5
 -17  -7  -1 6129.46 922.848   5
 -17  -7  -2 1077.74 537.774   5
 -17  -7  -3 715.368 365.609   5
 -17  -7  -4 714.341 471.246   5
 -17  -7  -5 8533.62 847.918   4
 -17  -7  -6 318.864 237.840   4
 -17  -7  -7 353.850 203.706   4
 -17  -7  -8 30.3492 316.879   1
 -17  -7  -8 366.759 267.058   4
 -17  -7  -9 6930.03 991.677   1
 -17  -7  -9 6723.31 780.214   4
 -17  -7 -10 602.299 316.901   4
 -17  -7 -10 1024.46 429.030   1
 -17  -7 -11 5587.65 716.032   4
 -17  -7 -11 5516.95 930.342   1
 -17  -7 -12 125.309 205.267   4
 -17  -7 -12 194.005 288.449   1
 -17  -7 -13 3895.41 627.300   4
 -17  -7 -13 4285.55 861.073   1
 -17  -7 -14 1476.33 424.977   4
 -17  -7 -14 158.045 310.477   1
 -17  -7 -15 2148.68 615.649   1
  17   9 -21 2330.84 604.569   3
  17   9 -20-138.769 295.317   3
  17   9 -19 38.3881 244.121   3
  17   9 -18 346.530 376.065   3
  17   9 -17 5206.23 844.748   3
  17   9 -16 1491.06 529.224   3
 -17  -9  15 3260.85 866.718   5
  17   9 -15 2795.62 611.570   3
  17   9 -14 1068.23 480.247   3
 -17  -9  14-2.76500 401.811   5
  17   9 -13 2997.17 630.267   3
 -17  -9  13 3044.22 838.065   5
 -17  -9  12 1139.25 749.851   5
  17   9 -12 2436.11 669.846   3
 -17  -9  11 3515.40 918.954   5
 -17  -9  10 887.055 654.827   5
 -17  -9   9 1475.59 648.166   5
 -17  -9   8 2033.56 881.081   5
 -17  -9   7 5331.50 1080.72   5
 -17  -9   6 662.107 744.802   5
 -17  -9   5-371.020 345.583   5
 -17  -9   4 121.780 346.931   5
 -17  -9   3 3161.83 792.850   5
 -17  -9   2 1176.64 681.296   5
 -17  -9   1 61.6822 210.559   5
 -17  -9   0 2060.76 843.801   5
 -17  -9  -1 7277.68 1174.71   5
 -17  -9  -2 1157.21 608.962   5
  18   0 -39 240.646 239.532   4
  18   0 -38 7359.77 919.147   4
  18   0 -37 178.048 179.591   4
  18   0 -36 2125.75 473.112   4
  18   0 -35-101.326 142.199   4
  18   0 -34 5062.89 690.489   4
  18   0 -33 353.230 205.525   4
  18   0 -32 1443.76 362.073   4
  18   0 -31 202.253 207.920   4
  18   0 -30 14545.1 1069.88   4
  18   0 -29 62.5531 148.557   4
  18   0 -28 1501.43 472.893   4
  18   0 -27-166.584 157.584   4
  18   0 -26 5127.48 589.260   4
 -18   0  19-72.9826 57.6688   2
 -18   0  18 22175.1 747.100   2
 -18   0  17 25.3016 88.3926   2
 -18   0  17-206.519 125.118   5
 -18   0  16 5282.49 404.190   2
 -18   0  16 5329.19 586.070   5
 -18   0  15-63.4095 164.497   5
 -18   0  14 18425.6 1068.37   5
 -18   0  13 11.0182 166.214   5
  18   0 -13 291.134 276.472   3
 -18   0  12 1708.40 367.359   5
  18   0 -12 1616.00 335.875   3
 -18   0  11-196.887 134.786   5
  18   0 -11-366.461 228.666   3
 -18   0  10 991.490 257.291   5
  18   0 -10 1073.24 256.415   3
 -18   0   9-24.5041 113.613   5
  18   0  -9 128.637 100.614   4
  18   0  -9 266.424 219.704   3
 -18   0   8 10201.3 669.560   5
  18   0  -8 11074.0 579.034   4
  18   0  -8 10891.9 752.671   3
 -18   0   7-51.6061 104.376   5
  18   0  -7 1.45346 66.1553   4
 -18   0   6 10698.2 642.220   5
  18   0  -6 11633.8 567.488   4
 -18   0   5 654.903 217.531   5
  18   0  -5 528.697 150.215   4
  18   0  -4 30779.7 923.666   4
  18   0  -3-87.7160 93.9968   4
  18   0  -2-28.4643 85.7570   4
  18   0  -1-49.0487 77.9415   4
 -18   0   0 11236.4 562.728   4
 -18   0  -1-69.9935 94.4941   4
 -18   0  -2 382.966 178.511   4
 -18   0  -3 257.619 152.995   4
 -18   0  -4 30397.0 1002.89   4
 -18   0  -5-37.7712 101.835   4
 -18   0  -6 4742.92 423.609   4
 -18   0  -7 340.277 166.045   4
 -18   0  -8 20810.0 926.833   4
 -18   0  -9-135.564 111.710   4
 -18   0 -10 276.613 156.896   4
 -18   0 -11 79.8418 127.566   4
 -18   0 -12 7300.89 616.331   4
 -18   0 -13 57.1632 132.209   4
 -18   0 -14 3838.74 474.151   4
 -18   0 -15 105.184 154.742   4
 -18   0 -16 2538.12 465.380   4
 -18   0 -17-103.456 120.463   4
 -18   0 -18 2365.84 408.680   4
 -18   0 -19 24.3373 140.949   4
 -18   0 -20 1355.28 337.882   4
 -18   0 -21 249.520 283.883   2
 -18   0 -21 694.786 320.947   4
 -18   0 -22 16639.2 1443.16   2
 -18   0 -22 17468.6 1180.61   4
 -18   0 -23 355.207 269.916   2
 -18   0 -23 288.950 205.376   4
 -18   0 -24 978.402 334.107   2
 -18   0 -24 1786.90 470.440   4
 -18   0 -25-15.6723 207.412   2
 -18   0 -25 179.582 160.678   4
 -18   0 -26 4023.28 731.205   2
 -18   0 -26 4459.00 630.046   4
  18  -2 -39 76.1659 202.148   4
  18  -2 -38 8552.96 966.641   4
  18  -2 -37 372.497 208.375   4
  18   2 -37 133.083 227.967   4
  18  -2 -36 2917.52 573.604   4
  18   2 -36 3138.38 584.773   4
  18  -2 -35-55.2124 228.462   4
  18   2 -35 176.974 244.591   4
  18  -2 -34 3516.50 575.315   4
  18   2 -34 3612.81 606.228   4
  18  -2 -33-66.9234 129.294   4
  18   2 -33 329.926 232.022   4
  18  -2 -32 1162.09 330.230   4
  18   2 -32 1701.04 432.730   4
  18  -2 -31 300.692 211.384   4
  18  -2 -30 15926.1 1102.77   4
  18  -2 -29 72.9342 153.915   4
  18  -2 -28 432.340 198.417   4
  18  -2 -27 174.087 173.986   4
  18  -2 -26 7555.93 687.141   4
  18  -2 -25 17.6556 129.833   4
  18  -2 -24 771.603 243.440   4
  18  -2 -23 294.405 172.427   4
  18  -2 -22 19720.5 985.945   4
 -18  -2  22 21182.0 1454.09   5
 -18  -2  21 469.900 136.273   1
  18  -2 -21 500.321 191.732   4
 -18  -2  20 2297.14 513.055   5
  18  -2 -20 2767.38 357.894   4
  18  -2 -20 2054.65 313.676   5
 -18  -2  20 2501.17 273.012   1
  18  -2 -19 86.5048 85.3965   1
  18  -2 -19 155.689 106.967   5
  18  -2 -19-8.36041 101.032   4
 -18  -2  19 74.0374 129.224   1
  18  -2 -18 6414.10 487.606   5
  18  -2 -18 7172.57 548.379   4
  18  -2 -18 5724.23 417.802   1
 -18  -2  18 6371.99 470.586   1
 -18  -2  18 7075.67 865.740   5
 -18  -2  17 820.991 384.460   5
  18  -2 -17 392.455 129.358   5
  18  -2 -17 599.829 168.747   4
  18  -2 -17 291.488 109.239   1
 -18  -2  16 3941.87 613.981   5
  18  -2 -16 4005.20 362.403   4
  18  -2 -16 3920.36 373.771   1
  18  -2 -15 959.312 205.116   1
  18  -2 -15 1198.86 225.193   4
  18  -2 -14 18549.8 711.793   4
  18  -2 -14 21300.4 1051.61   3
 -18  -2  14 17919.6 1281.67   5
 -18  -2  13 508.659 289.262   5
  18  -2 -13 749.520 195.738   4
  18   2 -13 885.936 362.861   3
  18  -2 -13 34.7392 137.132   3
  18   2 -12 6964.64 726.484   3
  18  -2 -12 9006.14 640.507   3
 -18  -2  12 8363.28 834.455   5
 -18  -2  11 176.071 240.007   5
  18   2 -11-180.188 212.706   3
  18  -2 -11-95.6958 128.166   3
 -18  -2  10 2699.72 458.728   5
 -18  -2  10 3813.02 451.225   1
 -18   2  10 4000.97 487.033   2
  18  -2 -10 3665.85 262.413   4
  18  -2 -10 4214.82 417.984   3
  18   2 -10 3089.48 492.436   3
  18  -2  -9 883.577 237.125   3
 -18  -2   9 1050.52 321.802   1
 -18  -2   9 272.579 186.679   5
  18  -2  -9 254.414 76.9520   4
 -18   2   9 1000.46 343.389   2
  18   2  -9 504.665 317.917   3
 -18  -2   8 14835.0 992.832   5
 -18   2   8 15898.3 978.901   2
 -18  -2   8 15219.5 905.534   1
  18  -2  -8 14370.2 441.701   4
  18   2  -8 15266.0 999.809   3
 -18  -2   7 700.440 313.717   1
 -18  -2   7-367.584 221.048   5
 -18   2   7 431.267 344.733   2
  18  -2  -7 3.35864 32.7788   4
  18   2  -7 59.8928 218.510   3
 -18  -2   6 8663.03 720.733   5
 -18   2   6 9412.55 777.909   2
 -18  -2   6 8917.61 727.795   1
  18  -2  -6 7597.06 282.382   4
  18   2  -6 8806.72 724.004   3
 -18   2   6 6251.07 306.565   5
  18   2  -5 305.186 295.892   3
 -18   2   5 153.474 68.4217   5
 -18  -2   5 737.096 284.938   5
 -18  -2   5 748.868 369.732   1
 -18   2   4 17995.8 1081.19   2
 -18  -2   4 18714.2 1091.30   1
  18  -2  -4 15392.3 378.158   4
  18  -2  -3-179.897 66.1209   4
 -18   2   3 689.328 364.261   2
 -18  -2   3 348.730 272.739   1
  18  -2  -2 403.576 71.6636   4
 -18   2   2 161.810 193.105   2
 -18  -2   1 401.300 221.264   4
  18  -2  -1 197.664 62.0902   4
 -18   2   1 465.026 385.747   2
 -18  -2   1 511.740 317.952   1
  18  -2   0 10355.7 379.119   4
 -18   2   0 11199.8 915.455   2
 -18  -2   0 12235.7 973.079   1
 -18  -2   0 12799.9 734.580   4
 -18   2  -1 294.867 269.646   2
  18  -2   1 39.3596 56.7214   4
 -18  -2  -1-47.3653 113.283   4
 -18  -2  -1-24.2331 199.276   1
 -18   2  -2 23.4302 53.5140   4
 -18   2  -2-147.793 208.511   2
  18  -2   2 25.5388 45.7221   4
 -18  -2  -2-198.404 160.329   4
 -18  -2  -2-291.385 247.266   1
 -18   2  -3 704.801 448.015   2
 -18   2  -3 1.34759 48.6073   4
  18  -2   3 27.6453 51.7079   4
 -18  -2  -3 300.090 256.272   4
 -18  -2  -3 412.434 325.217   1
 -18   2  -4 20939.9 1325.55   2
 -18  -2  -4 20950.0 1369.93   1
 -18   2  -4 23410.2 686.322   4
 -18  -2  -4 21063.4 984.446   4
 -18  -2  -5 507.223 305.509   1
 -18   2  -5 848.830 378.538   2
 -18  -2  -5 484.289 204.576   4
 -18   2  -5 312.441 109.325   4
 -18  -2  -6 3394.60 602.398   1
 -18   2  -6 3531.60 560.513   2
 -18  -2  -6 4047.28 453.672   4
 -18   2  -6 4378.12 334.162   4
 -18  -2  -7 13.8206 193.775   4
 -18  -2  -7 6.05626 193.060   1
 -18   2  -7 183.400 98.5544   4
 -18   2  -8 12057.2 1047.32   2
 -18  -2  -8 11912.6 796.043   4
 -18  -2  -8 12049.7 1125.72   1
 -18   2  -8 13385.3 637.442   4
 -18  -2  -9 98.5603 235.083   1
 -18   2  -9-354.501 236.082   2
 -18  -2  -9-142.425 147.013   4
 -18   2  -9 26.7095 113.626   4
 -18   2 -10 749.203 332.847   2
 -18  -2 -10 678.152 329.439   1
 -18  -2 -10 463.065 173.294   4
 -18   2 -10 713.587 168.965   4
 -18   2 -11 5.27416 227.507   2
 -18  -2 -11 229.865 173.428   4
 -18   2 -11 563.919 176.194   4
 -18  -2 -11 129.432 228.915   1
 -18   2 -12 9190.60 973.379   2
 -18  -2 -12 9253.53 755.913   4
 -18   2 -12 10036.8 644.978   4
 -18  -2 -12 8959.63 1039.59   1
 -18  -2 -13-40.2373 219.469   1
 -18   2 -13 390.969 253.807   2
 -18  -2 -13 360.420 259.181   4
 -18   2 -13 188.549 133.506   4
 -18   2 -14 7991.75 925.570   2
 -18  -2 -14 8359.08 750.136   4
 -18   2 -14 9265.65 660.384   4
 -18   2 -15 70.5861 176.941   2
 -18  -2 -15 303.031 192.324   4
 -18   2 -15 184.330 150.438   4
 -18   2 -16 5318.45 762.949   2
 -18  -2 -16 5486.07 640.759   4
 -18   2 -16 5968.11 551.985   4
 -18   2 -17-76.8394 258.749   2
 -18  -2 -17-156.952 142.403   4
 -18   2 -17 108.025 111.513   4
 -18   2 -18 2788.02 564.265   2
 -18  -2 -18 2616.31 476.300   4
 -18  -2 -19 76.6104 170.640   4
 -18   2 -19 61.2808 106.542   4
 -18   2 -20 410.679 315.116   2
 -18  -2 -20 871.364 296.861   4
 -18   2 -20 386.723 166.794   4
 -18   2 -21 24.9629 210.390   2
 -18  -2 -21 13.0309 170.582   4
 -18   2 -22 10726.1 1157.00   2
 -18  -2 -22 9746.46 939.529   4
 -18   2 -23 495.270 361.801   2
 -18  -2 -23-12.4674 150.827   4
 -18  -2 -24 476.280 252.818   4
 -18   2 -24 567.539 361.904   2
 -18   2 -25-182.871 266.255   2
  18  -4 -38 6096.09 815.217   4
  18  -4 -37 225.702 222.243   4
  18  -4 -36 2132.53 452.387   4
  18  -4 -35 192.764 196.601   4
  18  -4 -34 3060.95 546.526   4
  18  -4 -33 87.6746 166.795   4
  18  -4 -32 430.931 233.146   4
  18  -4 -31 688.131 251.476   4
  18  -4 -30 12055.5 974.259   4
  18  -4 -29 134.847 168.053   4
  18  -4 -28 184.783 116.995   4
  18  -4 -27-80.4384 161.888   4
  18  -4 -26 5267.92 585.909   4
 -18  -4  26 5138.89 848.222   5
  18  -4 -25 232.750 171.404   4
 -18  -4  25 262.803 324.025   5
  18  -4 -24 458.437 194.067   4
 -18  -4  24 390.522 304.547   5
 -18  -4  23 522.308 398.494   5
  18  -4 -23 18.9173 110.210   4
  18  -4 -22 19978.6 991.249   4
 -18  -4  22 20588.5 1660.66   5
 -18  -4  21 375.507 386.565   5
  18  -4 -21 715.969 213.907   4
 -18  -4  20 1824.22 527.092   5
  18  -4 -20 2399.93 333.804   4
  18  -4 -19 86.8612 114.849   4
 -18  -4  19 18.8632 250.503   5
 -18  -4  18 4856.72 821.707   5
  18  -4 -18 5891.49 456.342   4
 -18  -4  17 356.696 261.756   5
  18  -4 -17 491.095 134.222   3
  18  -4 -17 757.976 171.559   4
 -18  -4  16 2567.30 597.441   5
  18  -4 -16 3935.45 346.634   3
  18  -4 -16 4134.34 340.283   4
 -18  -4  15 875.665 398.077   5
  18   4 -15 798.346 382.773   3
  18  -4 -15 566.822 157.791   3
  18  -4 -15 627.297 139.799   4
  18   4 -14 11194.4 1001.46   3
  18  -4 -14 12070.0 480.107   4
  18  -4 -14 12374.8 545.232   3
 -18  -4  14 13081.3 1215.74   5
 -18  -4  13 251.223 243.381   5
  18   4 -13 500.521 472.023   3
  18  -4 -13 175.244 70.8584   4
 -18  -4  12 4203.38 701.406   5
  18  -4 -12 4088.47 195.477   4
  18   4 -12 3777.60 586.084   3
 -18  -4  11-352.071 309.840   5
  18   4 -11-565.856 265.453   3
 -18  -4  10 889.221 281.049   5
  18   4 -10 819.154 271.364   3
 -18  -4   9 1277.25 400.743   5
  18   4  -9 1401.69 430.006   3
 -18  -4   8 11335.7 1040.49   5
  18   4  -8 13070.1 985.574   3
  18   4  -7 520.226 385.049   3
 -18  -4   7 200.730 209.703   5
 -18  -4   6 6489.36 767.751   5
  18   4  -6 8295.39 764.094   3
  18   4  -5 1090.94 402.448   3
 -18  -4   5 529.195 328.040   5
 -18  -4   4 14060.5 1088.28   5
 -18  -4   3 2166.45 418.605   1
 -18  -4   3 748.859 341.626   5
 -18  -4   2 443.586 238.031   1
 -18  -4   1 566.777 339.285   1
 -18   4   1 326.087 390.009   2
 -18  -4   0 10650.9 934.746   1
 -18  -4   0 10649.3 770.514   4
 -18   4   0 10654.8 972.109   2
 -18  -4  -1 265.358 234.356   4
 -18  -4  -1 119.842 194.575   1
 -18   4  -1 441.124 281.187   2
 -18  -4  -2 23.3308 127.199   4
 -18  -4  -2 33.4988 176.322   1
 -18   4  -2 243.945 203.929   2
 -18  -4  -3 322.613 333.753   4
 -18  -4  -3 209.047 312.926   1
 -18   4  -3 827.209 421.382   2
 -18  -4  -4 13608.3 1140.91   1
 -18   4  -4 13614.3 1140.88   2
 -18  -4  -4 13892.8 917.778   4
 -18  -4  -5 181.154 252.239   4
 -18   4  -5 292.414 267.094   2
 -18  -4  -5 300.139 285.502   1
 -18  -4  -6 5361.28 757.835   1
 -18  -4  -6 5557.73 596.573   4
 -18   4  -6 4691.66 684.443   2
 -18  -4  -7 124.561 187.234   1
 -18  -4  -7 242.711 277.904   4
 -18   4  -7 624.190 367.589   2
 -18  -4  -8 10375.8 1079.31   1
 -18   4  -8 10386.6 1030.44   2
 -18  -4  -8 11379.3 877.279   4
 -18  -4  -9 235.915 183.285   1
 -18  -4  -9 551.794 259.230   4
 -18   4  -9 666.258 276.727   2
 -18  -4 -10 890.456 346.768   1
 -18  -4 -10 742.354 242.146   4
 -18   4 -10 533.154 239.956   2
 -18  -4 -11 499.176 255.235   4
 -18  -4 -11 82.9981 203.106   1
 -18   4 -11 411.968 278.189   2
 -18   4 -12 6118.86 817.433   2
 -18  -4 -12 6269.41 914.921   1
 -18  -4 -12 6517.74 701.652   4
 -18  -4 -13 112.626 237.983   4
 -18  -4 -13-94.0941 243.339   1
 -18   4 -13-180.335 242.984   2
 -18   4 -14 5645.64 814.295   2
 -18  -4 -14 6494.80 971.784   1
 -18  -4 -14 6529.13 730.217   4
 -18  -4 -15 626.482 283.164   4
 -18   4 -15 211.011 248.024   2
 -18  -4 -16 3967.92 774.729   1
 -18  -4 -16 3562.27 548.164   4
 -18   4 -16 3190.40 641.746   2
 -18   4 -17-8.77540 213.572   2
 -18  -4 -17 178.901 145.164   4
 -18  -4 -17 339.003 422.827   1
 -18  -4 -18 2007.27 580.044   1
 -18  -4 -18 2504.00 507.003   4
 -18   4 -18 3775.72 663.455   2
 -18  -4 -19 168.600 314.310   1
 -18  -4 -19 45.2372 172.141   4
 -18   4 -19-455.343 236.268   2
 -18  -4 -20 1659.65 522.512   1
 -18  -4 -20 1081.39 350.570   4
 -18  -4 -21 320.286 323.517   1
 -18  -4 -21 393.901 241.162   4
 -18  -6  27 65.2861 247.389   5
 -18  -6  26 4998.40 910.876   5
 -18  -6  25 1099.04 492.596   5
 -18  -6  24 339.400 284.657   5
 -18  -6  23 223.305 297.728   5
 -18  -6  22 14974.0 1579.12   5
 -18  -6  21 661.868 483.243   5
 -18  -6  20 1600.47 563.152   5
 -18  -6  19-37.6596 237.965   5
  18   6 -19 96.6144 239.708   3
 -18  -6  18 5143.15 955.026   5
  18   6 -18 5636.73 781.556   3
 -18  -6  17 286.299 301.713   5
  18   6 -17 298.379 316.986   3
 -18  -6  16 2692.52 672.754   5
  18   6 -16 2861.31 551.931   3
 -18  -6  15 79.3073 219.346   5
  18   6 -15 571.569 458.414   3
  18   6 -14 6484.57 838.915   3
 -18  -6  14 6539.76 992.328   5
 -18  -6  13 1409.85 615.824   5
  18   6 -13 1282.07 532.894   3
 -18  -6  12 3912.76 799.293   5
  18   6 -12 3397.36 605.434   3
 -18  -6  11 537.384 292.537   5
  18   6 -11 50.2127 239.656   3
 -18  -6  10 177.042 242.604   5
  18   6 -10 634.372 235.954   3
 -18  -6   9 73.0855 276.107   5
  18   6  -9 468.242 449.163   3
 -18  -6   8 5964.87 900.141   5
  18   6  -8 6566.03 774.232   3
  18   6  -7 778.356 440.394   3
 -18  -6   7 301.746 426.989   5
 -18  -6   6 5377.04 811.307   5
 -18  -6   5 1384.89 666.346   5
 -18  -6   4 12146.5 1211.10   5
 -18  -6   3 328.575 302.521   5
 -18  -6   2 320.998 253.247   5
 -18  -6   1 1117.90 469.736   5
 -18  -6   0 11906.7 1161.69   5
 -18  -6  -1 667.487 397.799   5
 -18  -6  -2 478.450 447.592   5
 -18  -6  -3 365.790 337.172   4
 -18  -6  -4 11127.0 911.890   4
 -18  -6  -4 11922.1 1147.36   1
 -18  -6  -5 310.388 345.282   4
 -18  -6  -5 267.570 266.479   1
 -18  -6  -6 3042.47 509.098   4
 -18  -6  -6 3746.00 708.967   1
 -18  -6  -7 417.885 287.794   4
 -18  -6  -7-47.3081 208.028   1
 -18  -6  -8 8156.29 1038.78   1
 -18  -6  -8 8639.80 851.009   4
 -18  -6  -9 539.192 275.003   4
 -18  -6  -9 406.503 418.452   1
 -18  -6 -10 762.190 279.007   4
 -18  -6 -10 921.377 393.492   1
 -18  -6 -11 92.7457 202.430   4
 -18  -6 -11 259.376 326.405   1
 -18  -6 -12 4309.56 831.098   1
 -18  -6 -12 3915.41 611.551   4
 -18  -6 -13 587.660 329.368   1
 -18  -6 -13 445.905 262.704   4
 -18  -6 -14 4555.47 866.711   1
 -18  -6 -14 4730.01 684.767   4
 -18  -6 -15 20.5241 274.697   1
 -18  -6 -15 261.975 210.521   4
 -18  -6 -16 1774.02 571.931   1
 -18  -6 -16 2676.25 519.952   4
 -18  -6 -17 207.653 285.567   1
  18   8 -25 388.016 286.592   3
  18   8 -24 191.531 250.784   3
  18   8 -23 451.724 349.715   3
  18   8 -22 7573.71 1019.66   3
 -18  -8  22 7053.00 1206.95   5
 -18  -8  21 883.888 480.370   5
  18   8 -21 1053.08 449.201   3
 -18  -8  20 790.493 456.133   5
  18   8 -20 387.998 211.519   3
 -18  -8  19 279.238 274.519   5
  18   8 -19 224.482 227.269   3
 -18  -8  18 3191.78 823.851   5
  18   8 -18 2578.31 581.780   3
 -18  -8  17 758.796 418.702   5
  18   8 -17 169.721 282.103   3
 -18  -8  16 1608.59 582.024   5
  18   8 -16 1279.33 400.297   3
 -18  -8  15 657.885 477.782   5
  18   8 -15 672.144 390.309   3
  18   8 -14 7641.51 999.439   3
 -18  -8  14 7266.70 1202.65   5
 -18  -8  13 2031.36 805.940   5
  18   8 -13 3818.86 797.028   3
 -18  -8  12 5082.60 1015.23   5
  18   8 -12 5705.61 826.954   3
  18   8 -11 1352.50 527.297   3
 -18  -8  11 131.068 480.809   5
  18   8 -10 2030.17 499.030   3
 -18  -8  10 1690.13 657.971   5
 -18  -8   9 1382.46 641.040   5
 -18  -8   8 7223.14 1162.90   5
 -18  -8   7 590.432 601.193   5
 -18  -8   6 2452.57 681.255   5
 -18  -8   5 617.113 566.381   5
 -18  -8   4 6738.38 1071.62   5
 -18  -8   3 692.392 464.269   5
 -18  -8   2-106.921 231.014   5
 -18  -8   1 616.548 362.795   5
 -18  -8   0 5953.83 993.968   5
 -18  -8  -1 47.4810 265.504   5
 -18  -8  -2 208.519 302.884   5
 -18  -8  -3 731.119 448.652   5
 -18  -8  -4 7570.53 1087.41   5
 -18  -8  -5 1142.47 584.337   5
 -18  -8  -6 1639.29 576.302   5
 -18  -8  -7 492.945 459.530   5
 -18  -8  -8 5089.33 911.870   1
 -18  -8  -8 4115.44 800.587   5
  19  -1 -39 278.648 252.732   4
  19  -1 -38-62.0453 139.501   4
  19   1 -38-80.4164 207.997   4
  19  -1 -37 3411.64 616.591   4
  19   1 -37 2945.63 571.153   4
  19  -1 -36 199.027 249.073   4
  19   1 -36-238.675 195.429   4
  19  -1 -35 6560.59 802.351   4
  19   1 -35 6905.15 833.752   4
  19  -1 -34 419.798 271.965   4
  19   1 -34 88.8578 189.526   4
  19  -1 -33 1981.63 408.644   4
  19   1 -33 3481.71 563.039   4
  19  -1 -32 248.125 216.127   4
  19   1 -32 292.210 192.457   4
  19  -1 -31 3905.46 575.768   4
  19   1 -31 3986.16 598.160   4
  19  -1 -30 115.103 175.987   4
  19   1 -30 417.217 213.718   4
  19  -1 -29 245.983 204.898   4
  19  -1 -28 55.1702 123.937   4
  19  -1 -27 17013.9 1046.64   4
  19  -1 -26 75.1038 121.983   4
  19  -1 -25 293.588 209.244   4
  19  -1 -24-156.773 101.644   4
  19  -1 -23 3409.82 443.970   4
 -19  -1  22 132.904 45.5120   2
  19  -1 -22 243.320 147.820   4
 -19  -1  21 260.646 70.6373   2
  19  -1 -21 322.862 141.322   4
 -19  -1  20 470.363 265.144   5
  19  -1 -19 33901.8 1306.15   5
 -19  -1  19 34430.1 1723.63   5
 -19  -1  18-23.0451 174.474   5
  19  -1 -18 190.278 133.563   5
 -19  -1  17 429.519 252.219   5
 -19   1  17 445.883 132.503   2
 -19  -1  16-201.139 223.702   5
 -19   1  16 113.103 142.432   2
  19  -1 -15 13774.3 683.558   1
 -19  -1  15 13997.7 1090.94   5
 -19  -1  14-56.3283 210.359   5
  19   1 -14 138.256 341.200   3
  19  -1 -14 256.073 124.421   1
  19  -1 -14 252.919 228.987   3
  19   1 -13 6045.53 667.037   3
  19  -1 -13 6832.44 639.044   3
 -19   1  13 7822.74 549.642   5
 -19  -1  13 6690.48 716.502   5
 -19   1  12 161.558 150.376   5
 -19  -1  12 350.505 230.452   5
  19   1 -12 393.082 276.989   3
  19  -1 -12 117.324 191.976   3
 -19  -1  11 20323.7 1185.02   5
  19  -1 -11 20297.9 765.554   4
 -19  -1  11 20254.6 1010.77   1
  19   1 -11 20896.7 1208.23   3
  19  -1 -11 21126.7 1074.43   3
 -19   1  11 20840.7 909.118   5
 -19   1  10-175.556 149.518   5
 -19  -1  10 68.4479 142.150   5
 -19   1  10 683.862 304.634   2
  19  -1 -10 156.251 98.7761   4
 -19  -1  10 624.819 273.205   1
  19   1 -10 304.953 326.512   3
  19  -1 -10 181.579 180.813   3
 -19  -1   9 7229.77 668.177   5
 -19   1   9 9052.76 703.303   2
  19  -1  -9 8760.91 480.753   4
 -19  -1   9 7249.89 632.290   1
  19   1  -9 7742.67 706.644   3
  19  -1  -9 8261.73 643.814   3
 -19   1   9 7994.61 539.741   5
  19  -1  -8-214.331 171.635   3
 -19   1   8-258.035 164.472   5
 -19  -1   8 262.411 200.369   1
 -19  -1   8-261.269 209.189   5
  19   1  -8-233.752 196.003   3
  19  -1  -8 7.09807 52.6347   4
  19   1  -7 1376.91 286.694   3
 -19  -1   7 1183.03 448.442   5
 -19  -1   7 1039.78 302.538   1
 -19   1   7 1398.45 219.387   5
  19  -1  -7 2088.08 225.592   4
  19   1  -6 147.155 197.936   3
 -19   1   6 98.1443 112.687   5
 -19  -1   6 244.893 177.438   5
  19  -1  -6 158.348 92.1485   4
 -19   1   5 14385.4 656.693   5
 -19  -1   5 11894.4 781.061   5
 -19  -1   5 12045.5 884.619   1
  19  -1  -5 14328.3 554.539   4
 -19  -1   4 405.673 289.716   1
  19  -1  -4-53.5242 87.5825   4
 -19  -1   3 5524.73 629.862   1
  19  -1  -3 5089.77 335.151   4
 -19  -1   2 1369.35 498.316   1
  19  -1  -2 224.378 101.972   4
 -19  -1   1 25444.4 1385.64   1
  19  -1  -1 27258.5 798.982   4
 -19  -1   0 328.926 296.194   1
  19  -1   0 54.3743 64.5142   4
 -19  -1   0-1.01572 125.066   4
  19  -1   1 341.911 100.775   4
 -19   1  -1 231.840 84.3882   4
 -19  -1  -1 413.409 240.930   1
 -19  -1  -1 189.615 98.4170   4
  19  -1   2 211.508 87.2948   4
 -19   1  -2 287.139 104.128   4
 -19  -1  -2 481.486 202.680   4
 -19  -1  -2 804.578 394.072   1
 -19   1  -3 18536.6 706.990   4
 -19  -1  -3 17777.7 845.090   4
 -19  -1  -3 17643.2 1248.90   1
  19  -1   3 16762.7 713.676   4
 -19   1  -4 161.911 95.0686   4
 -19  -1  -4 194.028 147.491   4
 -19  -1  -4 161.865 271.275   1
 -19  -1  -5 1537.05 267.967   4
 -19   1  -5 1303.93 198.967   4
 -19  -1  -6 12.0390 140.414   4
 -19   1  -6 15.6771 95.3795   4
 -19  -1  -7 15250.8 849.007   4
 -19   1  -7 16798.0 759.281   4
 -19  -1  -8 84.4286 144.339   4
 -19   1  -8 953.554 212.888   4
 -19  -1  -9 7103.18 613.309   4
 -19   1  -9 7567.41 549.144   4
 -19  -1 -10 150.641 151.929   4
 -19   1 -10 36.5819 128.984   4
 -19  -1 -11 15427.2 929.249   4
 -19   1 -11 16330.9 849.727   4
 -19   1 -12-194.391 257.832   2
 -19  -1 -12 208.098 143.307   4
 -19   1 -12 99.1970 114.630   4
 -19   1 -13 1365.27 407.388   2
 -19  -1 -13 1778.11 346.072   4
 -19   1 -13 1261.15 258.531   4
 -19   1 -14-9.38897 303.255   2
 -19  -1 -14 172.980 146.742   4
 -19   1 -14 75.6012 135.844   4
 -19   1 -15 4882.58 739.363   2
 -19  -1 -15 5812.05 629.013   4
 -19   1 -15 6461.38 602.471   4
 -19   1 -16 166.490 201.754   2
 -19  -1 -16 341.203 415.815   4
 -19   1 -16 697.489 237.954   4
 -19   1 -17 10254.8 1099.40   2
 -19  -1 -17 10526.9 875.492   4
 -19   1 -17 10392.0 796.619   4
 -19   1 -18 29.6401 193.537   2
 -19  -1 -18 241.182 210.745   4
 -19   1 -18 103.061 147.209   4
 -19   1 -19 2750.27 546.513   2
 -19  -1 -19 2505.12 444.955   4
 -19   1 -19 3069.65 457.862   4
 -19   1 -20-340.918 312.657   2
 -19  -1 -20-73.4788 139.128   4
 -19   1 -20 178.148 173.235   4
 -19   1 -21 2293.11 542.543   2
 -19  -1 -21 2510.32 467.129   4
 -19   1 -21 2408.26 439.254   4
 -19   1 -22 336.436 221.114   2
 -19  -1 -22 191.751 214.805   4
 -19   1 -22-40.4224 123.484   4
 -19   1 -23 926.820 362.292   2
 -19  -1 -23 527.353 262.563   4
 -19   1 -24 206.967 229.530   2
 -19  -1 -24 290.142 196.066   4
 -19  -1 -25 11542.5 1258.15   2
 -19   1 -25 13640.0 1356.59   2
 -19  -1 -25 11176.6 1039.01   4
  19  -3 -38-114.314 163.992   4
  19  -3 -37 3213.29 570.700   4
  19  -3 -36 183.809 218.279   4
  19   3 -36 779.446 327.951   4
  19   3 -35 11161.8 1095.11   4
  19  -3 -35 9627.26 958.822   4
  19  -3 -34 81.7739 153.261   4
  19  -3 -33 592.021 267.789   4
  19  -3 -32 151.547 169.588   4
  19  -3 -31 4042.20 579.413   4
  19  -3 -30 602.330 248.239   4
  19  -3 -29 83.5523 175.126   4
  19  -3 -28 88.8016 139.391   4
  19  -3 -27 12314.2 888.178   4
  19  -3 -26 170.004 140.722   4
  19  -3 -25 205.566 132.235   4
 -19  -3  25 405.148 324.314   5
  19  -3 -24 25.6572 103.542   4
 -19  -3  24-87.0892 197.126   5
 -19  -3  23 3333.49 331.881   1
  19  -3 -23 3552.38 436.876   4
 -19  -3  23 3512.04 705.427   5
 -19  -3  22 359.911 276.978   5
  19  -3 -22 354.597 156.315   4
 -19  -3  21 529.622 329.949   5
  19  -3 -21 893.331 225.796   4
 -19  -3  20 115.229 203.816   5
  19  -3 -20 222.151 129.122   4
 -19  -3  19 22365.8 1636.88   5
  19  -3 -19 21012.2 909.888   4
 -19  -3  18 219.090 320.607   5
  19  -3 -18 279.609 140.094   4
 -19  -3  18 364.808 152.046   1
 -19  -3  17-191.556 279.391   5
  19  -3 -17 347.222 110.465   4
  19  -3 -17 110.565 113.117   3
 -19  -3  17 171.364 122.541   1
 -19  -3  16 294.864 273.597   5
  19  -3 -16 313.891 122.339   4
 -19  -3  16 453.413 175.259   1
  19  -3 -16 382.028 157.372   3
 -19  -3  15 9260.96 660.074   1
  19   3 -15 9034.43 901.988   3
  19  -3 -15 10277.3 668.504   3
  19  -3 -15 10248.9 519.724   4
 -19  -3  15 9655.54 1023.97   5
 -19  -3  14 522.856 282.511   5
  19  -3 -14 916.793 160.107   4
 -19  -3  14 796.521 225.283   1
  19   3 -14 559.228 457.518   3
  19  -3 -14 690.058 185.254   3
 -19  -3  13 1617.22 453.929   5
 -19  -3  13 2248.45 353.188   1
  19  -3 -13 2517.51 304.861   3
  19   3 -13 1467.53 357.988   3
  19  -3 -13 2232.85 214.213   4
  19  -3 -12 1070.25 245.683   3
  19  -3 -12 781.060 130.848   4
 -19  -3  12 834.534 411.404   5
 -19  -3  12 892.582 276.229   1
  19   3 -12 993.642 372.876   3
 -19  -3  11 19750.4 1355.01   5
 -19  -3  11 19425.8 1020.25   1
  19  -3 -11 16856.9 452.857   4
  19   3 -11 19264.6 1245.31   3
  19  -3 -11 18593.2 475.111   4
 -19  -3  10 294.152 253.209   5
  19  -3 -10 162.697 40.4409   4
 -19  -3  10 1212.04 358.813   1
  19   3 -10 962.126 375.417   3
  19  -3 -10 161.227 40.3444   4
 -19  -3   9 13716.2 1075.93   5
 -19  -3   9 14408.2 908.787   1
 -19   3   9 16692.9 1070.27   2
  19   3  -9 14965.5 1062.04   3
 -19  -3   8-308.861 293.767   5
 -19  -3   8 312.104 239.542   1
 -19   3   8 197.799 296.755   2
  19   3  -8-60.5362 255.037   3
  19   3  -7 1352.98 324.595   3
 -19  -3   7 860.576 262.537   5
 -19  -3   7 1213.16 291.029   1
 -19   3   7 1124.35 290.757   2
  19   3  -6 1075.85 365.818   3
 -19  -3   6 1082.75 348.089   5
 -19   3   6 1670.81 477.141   2
 -19  -3   6 1366.11 368.514   1
 -19  -3   5 15589.4 1015.41   1
 -19  -3   5 14967.6 1065.34   5
 -19   3   5 16971.9 1149.17   2
 -19  -3   4 108.264 272.616   5
 -19  -3   4 53.7036 243.103   1
 -19   3   3 2375.54 468.904   2
 -19   3   3 1256.00 141.179   5
 -19  -3   3 2603.99 426.028   1
 -19   3   2-43.0898 63.1250   5
 -19  -3   2 211.115 283.831   1
 -19  -3   1 10684.9 913.683   1
 -19   3   1 10586.5 944.603   2
 -19   3   1 9361.71 566.691   5
 -19  -3   0 446.487 207.126   1
 -19  -3   0 295.417 173.922   4
 -19   3   0 653.097 332.084   2
 -19   3   0 307.084 126.923   5
 -19  -3  -1 85.8811 171.184   1
 -19  -3  -1-112.162 177.931   4
 -19   3  -1-75.8754 200.410   2
 -19   3  -1-33.0624 77.1656   5
 -19  -3  -2 262.342 256.961   1
 -19  -3  -2 475.940 400.619   4
 -19   3  -2 445.568 345.870   2
 -19   3  -3 7859.19 867.774   2
 -19  -3  -3 8871.81 901.697   1
 -19  -3  -3 8809.96 695.897   4
 -19  -3  -4-149.355 118.260   4
 -19  -3  -4 96.8043 184.315   1
 -19   3  -4 75.0822 175.908   2
 -19   3  -5 539.758 92.9677   4
 -19  -3  -5 619.496 219.658   4
 -19  -3  -5 770.664 275.119   1
 -19   3  -5 415.306 213.927   2
 -19   3  -6 89.4527 57.5974   4
 -19  -3  -6 321.485 302.714   4
 -19   3  -6 742.940 401.505   2
 -19  -3  -6 280.062 318.181   1
 -19   3  -7 19534.3 1403.11   2
 -19  -3  -7 20227.9 1508.53   1
 -19  -3  -7 20590.8 1116.73   4
 -19   3  -7 19958.7 640.950   4
 -19  -3  -8 419.726 269.443   4
 -19   3  -8 961.519 396.778   2
 -19  -3  -8 167.582 267.845   1
 -19   3  -9 5734.14 785.852   2
 -19  -3  -9 5786.59 861.525   1
 -19  -3  -9 6782.65 673.130   4
 -19  -3 -10 568.172 360.303   1
 -19  -3 -10 689.696 302.225   4
 -19   3 -10 205.220 234.206   2
 -19   3 -11 12480.9 1168.91   2
 -19  -3 -11 11813.5 902.080   4
 -19  -3 -11 11514.0 1237.68   1
 -19  -3 -12 745.661 278.405   4
 -19   3 -12 550.309 296.477   2
 -19  -3 -12 568.468 310.920   1
 -19  -3 -13 1278.31 408.796   1
 -19  -3 -13 1760.38 379.520   4
 -19   3 -13 1143.42 371.839   2
 -19  -3 -14 168.950 210.358   1
 -19  -3 -14 169.388 156.535   4
 -19   3 -14 80.2842 186.013   2
 -19  -3 -15 4906.35 865.697   1
 -19  -3 -15 4825.93 624.846   4
 -19   3 -15 5575.06 800.709   2
 -19  -3 -16 122.741 207.755   1
 -19  -3 -16 301.357 172.281   4
 -19   3 -16 768.985 362.249   2
 -19   3 -17 8820.95 1037.00   2
 -19  -3 -17 8344.46 843.896   4
 -19  -3 -17 7729.79 1083.66   1
 -19  -3 -18-207.834 191.423   4
 -19   3 -18-95.3573 206.255   2
 -19  -3 -19 2386.63 466.137   4
 -19   3 -19 2228.72 581.203   2
 -19  -3 -20 100.812 186.192   4
 -19   3 -20 35.0113 192.417   2
 -19  -3 -21 4360.03 662.154   4
 -19   3 -21 3717.88 719.270   2
 -19  -3 -22-72.4987 174.778   4
 -19   3 -22-607.162 330.478   2
 -19   3 -23 497.393 315.282   2
 -19  -5  27 17191.2 1629.16   5
 -19  -5  26 285.282 252.931   5
 -19  -5  25 18.0273 266.699   5
 -19  -5  24-70.6892 269.210   5
 -19  -5  23 3013.32 715.333   5
 -19  -5  22-83.1658 263.437   5
 -19  -5  21 381.838 299.945   5
 -19  -5  20 1388.00 562.452   5
 -19  -5  19 17488.3 1627.77   5
 -19  -5  18 1064.62 502.167   5
  19   5 -18 1286.39 590.858   3
 -19  -5  17 556.137 263.649   5
  19   5 -17 304.470 183.420   3
 -19  -5  16 121.112 247.960   5
  19   5 -16-123.689 222.567   3
 -19  -5  15 10655.9 1224.00   5
  19   5 -15 9355.90 965.451   3
 -19  -5  14 168.858 234.015   5
  19   5 -14 1181.57 489.224   3
 -19  -5  13 4064.21 764.582   5
  19   5 -13 2610.11 511.760   3
 -19  -5  12 204.881 406.434   5
  19   5 -12 298.486 285.619   3
 -19  -5  11 7308.13 956.478   5
  19   5 -11 6754.25 804.880   3
 -19  -5  10-220.549 239.413   5
  19   5 -10 602.274 429.645   3
 -19  -5   9 2912.69 574.746   5
  19   5  -9 3161.78 533.394   3
  19   5  -8 121.217 170.059   3
 -19  -5   8-382.541 353.097   5
  19   5  -7 132.234 171.282   3
 -19  -5   7-4.19652 262.348   5
 -19  -5   6 868.193 390.778   5
 -19  -5   5 7267.81 893.375   5
 -19  -5   4 50.9076 283.841   5
 -19  -5   3 3345.83 610.435   5
 -19  -5   2 2978.21 795.901   5
 -19  -5   1 23375.5 1434.08   1
 -19  -5   1 24890.4 1570.35   5
 -19  -5   0 846.789 343.734   1
 -19  -5  -1 345.104 239.072   1
 -19  -5  -2 909.932 489.266   4
 -19  -5  -2 381.188 313.683   1
 -19  -5  -3 10273.5 1032.78   1
 -19  -5  -3 10551.7 851.789   4
 -19  -5  -4-5.66065 201.890   4
 -19  -5  -4 273.582 182.083   1
 -19  -5  -5 248.724 148.562   4
 -19  -5  -5 194.514 205.120   1
 -19  -5  -6 430.002 299.199   4
 -19  -5  -6-92.8942 267.114   1
 -19  -5  -7 7375.76 967.302   1
 -19  -5  -7 7796.82 776.082   4
 -19  -5  -8 213.826 195.953   1
 -19  -5  -8 88.4274 183.350   4
 -19  -5  -9 1814.77 498.771   1
 -19  -5  -9 2211.02 421.640   4
 -19  -5 -10 204.727 257.668   1
 -19  -5 -10 375.829 242.532   4
 -19  -5 -11 7764.11 1037.63   1
 -19  -5 -11 7845.41 811.647   4
 -19  -5 -12 672.097 404.653   1
 -19  -5 -12 371.771 249.882   4
 -19  -5 -13 1624.25 407.403   4
 -19  -5 -13 1523.89 526.143   1
 -19  -5 -14 505.019 313.836   4
 -19  -5 -14-3.06950 229.882   1
 -19  -5 -15 4625.80 685.762   4
 -19  -5 -15 4977.48 918.734   1
 -19  -5 -16 1399.50 533.070   1
 -19  -5 -16 805.517 304.020   4
 -19  -5 -17 6054.13 1098.47   1
 -19  -5 -17 7008.52 819.615   4
 -19  -5 -18-2.82576 221.011   1
 -19  -5 -18 394.499 283.650   4
 -19  -5 -19 752.033 400.031   1
 -19  -7  26 202.680 289.863   5
 -19  -7  25 156.560 290.418   5
 -19  -7  24 648.363 393.015   5
 -19  -7  23 3759.42 988.049   5
  19   7 -23 2971.16 632.123   3
 -19  -7  22-253.850 317.041   5
  19   7 -22 175.647 225.169   3
 -19  -7  21 367.493 416.435   5
  19   7 -21 496.420 293.417   3
 -19  -7  20 401.436 602.058   5
  19   7 -20 993.365 482.562   3
  19   7 -19 11824.5 1209.46   3
 -19  -7  19 12218.5 1534.08   5
 -19  -7  18 1156.40 551.646   5
  19   7 -18 2024.69 607.143   3
 -19  -7  17 669.301 461.281   5
  19   7 -17 200.551 225.023   3
 -19  -7  16 394.756 338.709   5
  19   7 -16 109.470 221.229   3
 -19  -7  15 4175.44 887.874   5
  19   7 -15 3816.65 682.289   3
 -19  -7  14 189.177 399.934   5
  19   7 -14-54.2696 407.189   3
 -19  -7  13 1842.48 621.156   5
  19   7 -13 1583.97 441.002   3
 -19  -7  12 1638.45 711.604   5
  19   7 -12 1006.98 447.918   3
 -19  -7  11 8301.13 1200.17   5
  19   7 -11 8009.69 943.241   3
  19   7 -10 2733.21 674.248   3
 -19  -7  10 1386.93 809.377   5
 -19  -7   9 6962.56 1083.57   5
  19   7  -9 6429.02 819.441   3
 -19  -7   8 208.038 583.016   5
 -19  -7   7 1033.68 479.885   5
 -19  -7   6 293.475 579.285   5
 -19  -7   5 9277.05 1172.59   5
 -19  -7   4 807.085 500.900   5
 -19  -7   3 2474.73 618.832   5
 -19  -7   2 1384.10 708.965   5
 -19  -7   1 6900.46 987.374   5
 -19  -7   0 402.985 517.394   5
 -19  -7  -1-446.715 295.728   5
 -19  -7  -2 623.525 465.750   5
 -19  -7  -3 7126.31 1005.81   5
 -19  -7  -4 1111.55 567.222   5
 -19  -7  -5-40.2673 208.002   1
 -19  -7  -5 157.588 230.692   5
 -19  -7  -6 286.374 271.025   4
 -19  -7  -6 542.675 354.647   1
 -19  -7  -7 10922.6 1004.79   4
 -19  -7  -7 10747.3 1268.70   1
 -19  -7  -8 654.020 376.252   4
 -19  -7  -8 739.358 352.266   1
 -19  -7  -9 2820.60 523.858   4
 -19  -7  -9 2554.27 649.897   1
 -19  -7 -10 395.360 247.976   4
 -19  -7 -10-103.051 216.034   1
 -19  -7 -11 7320.95 1087.85   1
 -19  -7 -11 6807.40 814.070   4
 -19  -7 -12 543.026 380.338   1
  19   9 -19 6827.13 1003.85   3
  19   9 -18 2488.12 668.369   3
  19   9 -17 1185.31 482.413   3
  19   9 -16 858.440 440.365   3
  19   9 -15 2551.08 609.626   3
  19   9 -14 1099.33 475.310   3
  19   9 -13 2711.74 606.646   3
  20   0 -38 2821.99 571.021   4
  20   0 -37 166.012 143.739   4
  20   0 -36 664.977 299.533   4
  20   0 -35 195.599 208.169   4
  20   0 -34 1097.51 319.243   4
  20   0 -33 173.783 198.693   4
  20   0 -32 6952.40 765.539   4
  20   0 -31 158.630 177.273   4
  20   0 -30 2292.25 441.477   4
  20   0 -29-44.3632 129.604   4
  20   0 -28 5852.98 669.376   4
  20   0 -27 1551.37 385.369   4
 -20   0  20 5365.01 366.415   2
 -20   0  19 82.3582 81.0827   2
 -20   0  18 331.762 127.809   2
 -20   0  18 411.414 226.201   5
 -20   0  17-19.0246 83.3632   2
 -20   0  17-0.20323 118.473   5
 -20   0  16 15804.3 1029.68   5
 -20   0  15-85.6126 156.399   5
  20   0 -15 57.5174 227.141   3
  20   0 -14 4677.43 587.417   3
 -20   0  14 4907.15 575.138   5
 -20   0  13-138.798 167.029   5
  20   0 -13 33.3053 187.623   3
  20   0 -12 5824.37 629.715   3
 -20   0  12 5593.25 586.520   5
 -20   0  11-7.10925 158.983   5
  20   0 -11 148.611 244.426   3
 -20   0  10 12431.0 828.252   5
  20   0 -10 11919.8 861.835   3
  20   0  -9 343.275 251.325   3
 -20   0   9-278.053 171.025   5
 -20   0   8 6403.00 554.165   5
  20   0  -8 6938.42 626.787   3
 -20   0   7 27.6165 117.960   5
 -20   0   6 7554.99 570.494   5
 -20   0   5 97.4462 119.048   5
 -20   0  -1 199.295 161.101   4
 -20   0  -2 23259.6 883.818   4
 -20   0  -3-122.929 92.8730   4
 -20   0  -4 423.153 158.959   4
 -20   0  -5-13.7881 96.9806   4
 -20   0  -6 10746.1 660.320   4
 -20   0  -7-35.5012 106.125   4
 -20   0  -8 46.8864 92.5059   4
 -20   0  -9 118.007 131.091   4
 -20   0 -10 5963.51 544.102   4
 -20   0 -11 137.536 159.940   4
 -20   0 -12 5407.85 553.445   4
 -20   0 -13 167.051 156.476   4
 -20   0 -14 7021.40 659.799   4
 -20   0 -15 168.773 163.604   4
 -20   0 -16 869.030 264.137   4
 -20   0 -17 205.388 195.415   4
 -20   0 -18 8980.90 802.285   4
 -20   0 -19 198.480 173.079   4
 -20   0 -20 10843.2 1201.47   2
 -20   0 -20 10680.1 905.365   4
 -20   0 -21 123.884 251.964   2
 -20   0 -21 281.525 189.082   4
 -20   0 -22 6070.82 921.033   2
 -20   0 -22 6042.00 712.498   4
 -20   0 -23 137.438 182.586   2
 -20   0 -23-28.3836 168.803   4
 -20   0 -24 1654.54 392.472   4
  20  -2 -39-3.78219 160.172   4
  20  -2 -38 4153.51 669.164   4
  20  -2 -37 602.455 252.900   4
  20   2 -37 445.514 246.802   4
  20  -2 -36 1776.32 432.679   4
  20   2 -36 712.354 264.135   4
  20  -2 -35 67.4530 152.145   4
  20   2 -35 61.1632 233.873   4
  20  -2 -34 2823.40 518.513   4
  20   2 -34 3128.29 566.720   4
  20  -2 -33 209.994 202.716   4
  20   2 -33 217.737 344.201   4
  20  -2 -32 13929.3 1071.19   4
  20  -2 -31 179.086 140.711   4
  20  -2 -30 517.073 221.936   4
  20  -2 -29 601.577 243.180   4
  20  -2 -28 5367.28 606.741   4
  20  -2 -27 138.524 128.458   4
  20  -2 -26 281.888 170.061   4
  20  -2 -25 236.686 163.085   4
  20  -2 -24 16604.9 957.094   4
  20  -2 -23 371.840 181.050   4
 -20  -2  23 84.3313 207.778   5
  20  -2 -22 560.113 193.899   4
 -20  -2  22 792.364 336.329   5
 -20  -2  21 1.99718 184.688   5
  20  -2 -21-142.837 133.120   4
 -20  -2  20 4170.18 689.675   5
  20  -2 -20 4579.88 445.877   4
 -20  -2  20 4367.15 399.926   1
 -20  -2  19-204.964 209.451   5
  20  -2 -19 170.112 117.373   4
 -20  -2  18 1268.09 383.756   5
  20  -2 -18 1683.53 261.985   4
 -20  -2  17-8.95800 206.320   5
  20  -2 -17 488.645 177.556   4
  20  -2 -16 17725.4 753.344   4
  20  -2 -16 17570.9 1018.13   3
 -20  -2  16 14868.3 1215.76   5
 -20  -2  15 50.4802 219.443   5
  20  -2 -15 885.101 212.181   4
  20  -2 -15 259.164 192.460   3
 -20  -2  15 662.149 203.514   1
  20  -2 -14 10256.1 526.919   4
 -20   2  14 11053.3 775.730   2
 -20  -2  14 10053.1 713.190   1
  20   2 -14 9453.77 892.125   3
  20  -2 -14 10716.0 764.292   3
 -20  -2  14 9171.63 946.937   5
 -20  -2  13 30.1792 166.229   5
 -20  -2  13 253.464 185.597   1
 -20   2  13-91.7726 120.740   2
  20  -2 -13 114.444 197.468   3
 -20  -2  12 7233.61 801.336   5
 -20   2  12 7446.06 671.413   2
 -20  -2  12 6837.51 611.662   1
  20  -2 -12 6554.33 395.191   4
  20   2 -12 6324.27 706.306   3
  20  -2 -12 7037.13 580.522   3
  20  -2 -11 127.325 147.449   3
 -20  -2  11-193.143 168.869   5
  20  -2 -11 329.124 98.6245   4
 -20   2  11 504.498 265.374   2
 -20  -2  11 585.077 247.873   1
  20   2 -11 23.0129 194.616   3
 -20  -2  10 6273.94 697.184   5
 -20   2  10 6786.31 654.570   2
 -20  -2  10 6019.91 592.278   1
  20  -2 -10 6618.44 351.779   4
  20   2 -10 5618.17 675.679   3
 -20  -2   9-121.885 166.620   5
 -20   2   9 535.080 324.541   2
  20  -2  -9 206.567 77.1915   4
 -20  -2   9 377.313 254.155   1
  20   2  -9 216.072 223.960   3
 -20  -2   8 11197.3 911.144   5
 -20   2   8 12188.8 886.659   2
 -20  -2   8 10974.8 834.921   1
  20  -2  -8 10591.4 392.035   4
  20   2  -8 11397.4 902.439   3
  20   2  -7 781.026 371.658   3
 -20  -2   7 393.257 222.161   5
 -20   2   7 792.174 391.596   2
 -20  -2   7 584.439 291.769   1
  20  -2  -7 164.592 46.1052   4
 -20   2   6 5553.50 334.444   5
 -20  -2   6 7175.23 704.033   5
 -20   2   6 6697.08 695.619   2
 -20  -2   6 7119.61 702.976   1
  20  -2  -6 6366.01 280.048   4
  20  -2  -5-81.8303 45.2988   4
 -20   2   5 35.3081 58.2547   5
 -20  -2   5-176.487 182.860   5
 -20   2   5 146.837 256.295   2
 -20  -2   5 99.1190 215.315   1
  20  -2  -4 604.711 83.7877   4
 -20   2   4 589.725 265.480   2
  20  -2  -3-5.50902 45.5456   4
 -20   2   3 673.415 425.835   2
 -20  -2   3 501.534 363.699   1
  20  -2  -2 11460.9 393.148   4
 -20   2   2 12360.7 986.074   2
 -20  -2   2 14541.9 1074.40   1
 -20  -2   1 203.135 326.596   1
  20  -2  -1-34.1283 55.7955   4
  20  -2   0 5447.43 299.571   4
 -20   2   0 5743.49 707.530   2
 -20  -2   0 6025.69 522.844   4
 -20  -2   0 6100.93 725.670   1
 -20  -2  -1 916.416 419.954   1
 -20   2  -1 1106.34 464.941   2
 -20  -2  -1 919.415 331.923   4
  20  -2   1 377.859 85.4923   4
 -20   2  -2 12384.9 1036.43   2
 -20  -2  -2 12405.1 768.536   4
 -20  -2  -2 13611.6 1128.22   1
 -20   2  -3 177.046 77.5788   4
 -20   2  -3 345.553 269.591   2
 -20  -2  -3-5.50389 116.286   4
 -20  -2  -3-76.3181 201.104   1
 -20   2  -4-146.360 189.973   2
 -20   2  -4-16.1710 55.8365   4
 -20  -2  -4-1.26201 134.271   4
 -20  -2  -4 5.92761 172.365   1
 -20   2  -5-91.0394 177.282   2
 -20   2  -5-20.5700 79.7146   4
 -20  -2  -5-9.84591 148.200   4
 -20  -2  -5 197.817 292.527   1
 -20   2  -6 6481.75 797.932   2
 -20  -2  -6 7422.28 647.170   4
 -20   2  -6 7861.04 458.420   4
 -20  -2  -6 6631.33 841.020   1
 -20   2  -7 108.077 228.783   2
 -20  -2  -7 387.412 209.776   1
 -20  -2  -7 508.086 232.688   4
 -20   2  -7 507.121 132.779   4
 -20   2  -8-234.353 280.928   2
 -20  -2  -8 0.54731 133.681   4
 -20   2  -8-40.1336 81.5554   4
 -20  -2  -8 66.0905 229.278   1
 -20   2  -9-145.466 191.796   2
 -20  -2  -9 231.485 344.232   1
 -20  -2  -9 424.153 223.090   4
 -20   2  -9 97.7358 126.045   4
 -20   2 -10 11233.9 1104.14   2
 -20  -2 -10 11393.3 844.189   4
 -20   2 -10 12896.2 693.018   4
 -20  -2 -10 11162.7 1164.15   1
 -20  -2 -11 228.013 251.132   1
 -20   2 -11 306.018 267.358   2
 -20  -2 -11 354.554 222.961   4
 -20   2 -11 676.004 182.391   4
 -20   2 -12 8756.57 1001.89   2
 -20  -2 -12 9401.36 803.116   4
 -20   2 -12 9994.76 656.597   4
 -20   2 -13 38.5038 210.980   2
 -20  -2 -13 217.211 208.788   4
 -20   2 -13 300.251 115.355   4
 -20   2 -14 8524.04 999.793   2
 -20  -2 -14 8609.74 789.656   4
 -20   2 -14 9056.91 664.450   4
 -20   2 -15-132.682 277.072   2
 -20  -2 -15 185.296 154.070   4
 -20   2 -16 474.825 260.698   2
 -20  -2 -16 554.050 217.431   4
 -20   2 -17-248.404 286.230   2
 -20  -2 -17 14.2600 141.832   4
 -20  -2 -18 4564.82 619.243   4
 -20   2 -18 4182.72 737.427   2
 -20   2 -19 76.2940 216.900   2
 -20  -2 -19 173.336 211.492   4
 -20  -2 -20 4739.83 653.991   4
 -20   2 -20 4589.48 786.206   2
 -20   2 -21 62.4649 217.703   2
 -20  -2 -21-44.8154 130.090   4
 -20   2 -22 3811.79 882.469   2
 -20  -2 -22 3475.37 590.517   4
 -20  -2 -23-68.4282 138.844   4
  20  -4 -37 338.894 223.782   4
  20  -4 -36 748.859 274.367   4
  20  -4 -35 15.3191 151.522   4
  20  -4 -34 1385.67 357.865   4
  20  -4 -33 347.719 172.071   4
  20  -4 -32 7047.92 767.029   4
  20  -4 -31-228.911 203.510   4
  20  -4 -30 1528.50 351.086   4
  20  -4 -29 406.786 193.909   4
  20  -4 -28 3495.93 491.138   4
  20  -4 -27 52.0462 127.486   4
 -20  -4  27 291.390 310.560   5
  20  -4 -26 305.123 166.181   4
 -20  -4  26 277.761 360.212   5
  20  -4 -25 35.6746 110.196   4
 -20  -4  25 185.742 241.030   5
  20  -4 -24 18585.8 996.040   4
 -20  -4  24 19666.9 1644.00   5
 -20  -4  23 93.6773 291.166   5
  20  -4 -23 149.176 109.618   4
 -20  -4  22 192.190 259.251   5
  20  -4 -22 31.6936 103.828   4
 -20  -4  22 165.341 117.040   1
  20  -4 -21-124.163 124.446   4
 -20  -4  21-89.5419 90.7304   1
 -20  -4  21 229.167 269.810   5
 -20  -4  20 5172.33 505.711   1
 -20  -4  20 5409.17 884.753   5
  20  -4 -20 5662.62 496.469   3
  20  -4 -20 5746.23 478.466   4
  20  -4 -19 272.082 107.102   4
 -20  -4  19 139.396 216.763   5
  20  -4 -19-17.4194 74.1067   3
 -20  -4  19 16.5644 81.2352   1
 -20  -4  18 190.372 214.786   5
  20  -4 -18 378.558 137.522   3
  20  -4 -18 322.217 112.931   4
 -20  -4  18 183.483 122.211   1
 -20  -4  17-99.1499 214.104   5
  20   4 -17 82.1371 255.966   3
  20  -4 -17 268.705 128.322   4
  20  -4 -17 357.940 165.941   3
  20   4 -16 12035.2 1106.01   3
  20  -4 -16 12793.3 632.066   3
  20  -4 -16 13123.8 551.329   4
 -20  -4  16 12303.6 1264.14   5
 -20  -4  15 598.429 400.629   5
  20   4 -15 1341.00 560.550   3
  20  -4 -15 808.574 130.367   4
 -20  -4  14 1964.60 514.998   5
  20   4 -14 2557.91 486.436   3
 -20  -4  13 77.4554 216.411   5
  20   4 -13 6.67247 248.278   3
 -20  -4  13 215.361 182.079   1
 -20  -4  12 3981.47 491.855   1
 -20  -4  12 3823.48 678.791   5
  20   4 -12 3279.99 561.859   3
 -20  -4  11 264.083 241.188   1
 -20  -4  11-78.4977 252.084   5
  20   4 -11 481.312 343.314   3
 -20  -4  10 6873.75 671.495   1
 -20  -4  10 6210.36 822.241   5
  20   4 -10 7093.66 803.454   3
 -20  -4   9 343.605 352.156   5
 -20  -4   9 678.121 307.071   1
  20   4  -9 947.381 538.846   3
 -20  -4   8 9244.64 783.785   1
 -20  -4   8 9059.76 988.610   5
  20   4  -8 9080.62 871.953   3
  20   4  -7 1080.98 375.465   3
 -20  -4   7 454.629 430.428   5
 -20  -4   7 518.175 271.209   1
 -20  -4   6 5771.60 643.859   1
 -20  -4   6 5193.13 704.918   5
 -20  -4   5 45.4258 232.472   5
 -20  -4   5 300.665 225.413   1
 -20  -4   4 799.448 287.002   5
 -20  -4   4 514.933 224.006   1
 -20  -4   3 484.347 340.548   5
 -20  -4   3 274.954 269.646   1
 -20   4   3 331.601 337.845   2
 -20  -4   2 6542.10 747.092   1
 -20  -4   2 7532.69 841.734   5
 -20   4   2 8186.84 893.182   2
 -20  -4   1 397.085 290.029   1
 -20   4   1 325.916 359.162   2
 -20  -4   0 6007.40 746.104   1
 -20   4   0 6162.77 792.023   2
 -20  -4  -1 1248.20 497.513   4
 -20   4  -1 1355.28 507.247   2
 -20  -4  -1 1126.40 450.151   1
 -20  -4  -2 14340.2 1187.97   1
 -20   4  -2 13070.6 1138.13   2
 -20  -4  -2 14071.3 930.376   4
 -20  -4  -3-14.8844 219.595   1
 -20  -4  -3-24.8219 183.544   4
 -20   4  -3-44.1844 191.253   2
 -20  -4  -4 110.308 260.312   1
 -20  -4  -4-86.6454 173.030   4
 -20   4  -4 123.559 186.762   2
 -20  -4  -5 268.170 282.622   1
 -20  -4  -5 307.082 291.565   4
 -20   4  -5 352.058 274.292   2
 -20  -4  -6 8792.11 1016.42   1
 -20   4  -6 8638.75 972.530   2
 -20  -4  -6 9872.25 824.046   4
 -20  -4  -7 105.414 227.896   1
 -20  -4  -7 162.737 208.504   4
 -20   4  -7-7.37153 243.614   2
 -20  -4  -8 247.320 144.720   4
 -20  -4  -8-46.6854 184.566   1
 -20   4  -8-247.833 272.224   2
 -20  -4  -9 233.807 234.499   4
 -20  -4  -9 87.4117 210.368   1
 -20   4  -9 326.301 230.006   2
 -20   4 -10 5692.31 854.790   2
 -20  -4 -10 6256.63 712.842   4
 -20  -4 -10 5353.30 870.613   1
 -20  -4 -11 748.963 298.411   4
 -20   4 -11 23.9492 201.907   2
 -20  -4 -11 562.852 348.590   1
 -20  -4 -12 3252.72 721.372   1
 -20  -4 -12 3105.50 521.783   4
 -20   4 -12 3633.57 672.358   2
 -20  -4 -13 549.703 370.019   1
 -20  -4 -13 222.168 210.021   4
 -20   4 -13-5.92559 225.968   2
 -20  -4 -14 4704.48 639.841   4
 -20  -4 -14 4305.35 820.310   1
 -20   4 -14 4468.92 772.352   2
 -20  -4 -15 571.325 244.101   4
 -20  -4 -15 109.205 270.580   1
 -20   4 -15 346.350 223.461   2
 -20  -4 -16 1082.95 477.299   1
 -20  -4 -16 1098.52 356.649   4
 -20   4 -16 1091.91 388.628   2
 -20  -4 -17 101.675 213.789   4
 -20  -4 -17-234.549 292.814   1
 -20   4 -17-37.1511 209.441   2
 -20  -4 -18 6309.84 785.028   4
 -20  -4 -18 6033.88 1033.09   1
 -20   4 -18 7029.54 976.212   2
 -20  -4 -19 738.611 333.284   4
 -20  -4 -19-181.918 224.171   1
 -20   4 -19 416.683 288.582   2
 -20  -6  28 3448.81 756.987   5
 -20  -6  27 253.511 402.901   5
 -20  -6  26 676.935 417.852   5
 -20  -6  25 228.389 446.572   5
 -20  -6  24 16630.5 1719.95   5
 -20  -6  23 343.027 322.362   5
 -20  -6  22 723.767 401.093   5
 -20  -6  21-278.229 284.419   5
  20   6 -21 174.473 275.800   3
 -20  -6  20 4430.81 922.465   5
  20   6 -20 4065.61 712.508   3
 -20  -6  19-38.5253 220.446   5
  20   6 -19 316.000 291.012   3
 -20  -6  18 444.450 406.151   5
  20   6 -18 40.1373 214.441   3
 -20  -6  17 79.9865 228.663   5
  20   6 -17 206.151 362.770   3
  20   6 -16 10995.3 1098.45   3
 -20  -6  16 11964.6 1402.56   5
 -20  -6  15 803.609 640.490   5
  20   6 -15 1260.13 522.185   3
 -20  -6  14 752.369 422.121   5
  20   6 -14 482.188 222.891   3
 -20  -6  13 30.3464 278.890   5
  20   6 -13 58.7093 288.304   3
 -20  -6  12 2404.61 640.971   5
  20   6 -12 1811.90 449.524   3
 -20  -6  11 238.908 421.156   5
  20   6 -11 714.503 448.205   3
  20   6 -10 4487.98 678.001   3
 -20  -6  10 4972.52 851.375   5
  20   6  -9 856.853 589.755   3
 -20  -6   9 117.891 345.868   5
 -20  -6   8 6567.37 943.700   5
  20   6  -8 7073.77 825.267   3
 -20  -6   7 582.262 388.078   5
 -20  -6   6 3309.22 630.982   5
 -20  -6   5-318.239 282.066   5
 -20  -6   4 303.628 289.674   5
 -20  -6   3 947.700 560.307   5
 -20  -6   2 7859.09 994.723   5
 -20  -6   1 322.255 485.480   5
 -20  -6   0 4251.34 681.625   1
 -20  -6   0 3564.32 714.355   5
 -20  -6  -1 1358.25 477.188   1
 -20  -6  -1 1972.94 608.825   5
 -20  -6  -2 12613.1 1198.23   1
 -20  -6  -2 12152.9 1234.38   5
 -20  -6  -3 371.559 311.936   1
 -20  -6  -4-17.2356 168.382   4
 -20  -6  -4 223.698 222.582   1
 -20  -6  -5 179.873 212.349   4
 -20  -6  -5 388.438 324.515   1
 -20  -6  -6 6711.21 945.825   1
 -20  -6  -6 6099.85 721.872   4
 -20  -6  -7 328.524 283.906   4
 -20  -6  -7 59.3568 255.627   1
 -20  -6  -8 249.859 228.804   4
 -20  -6  -8 707.096 364.346   1
 -20  -6  -9 505.615 337.526   1
 -20  -6  -9 296.615 286.945   4
 -20  -6 -10 6863.87 1038.47   1
 -20  -6 -10 5244.08 717.499   4
 -20  -6 -11 219.577 238.774   1
 -20  -6 -11 752.346 328.598   4
 -20  -6 -12 1537.43 522.055   1
 -20  -6 -12 1795.26 430.516   4
 -20  -6 -13-137.264 246.152   1
 -20  -6 -13-40.4753 145.987   4
 -20  -6 -14 3389.29 585.536   4
 -20  -6 -14 2815.80 760.660   1
  20   8 -23 175.700 280.996   3
  20   8 -22 63.6232 179.265   3
  20   8 -21 89.5125 192.651   3
 -20  -8  20 1389.47 554.881   5
  20   8 -20 887.266 358.734   3
 -20  -8  19 190.130 343.725   5
  20   8 -19 347.865 286.303   3
 -20  -8  18 1093.25 563.318   5
  20   8 -18 949.872 341.306   3
 -20  -8  17 660.503 645.095   5
  20   8 -17 1273.96 569.350   3
  20   8 -16 8652.61 1088.92   3
 -20  -8  16 9425.49 1430.84   5
 -20  -8  15 1807.45 716.637   5
  20   8 -15 2247.43 677.725   3
  20   8 -14 1472.74 450.958   3
 -20  -8  14 1373.80 606.917   5
  20   8 -13 561.735 356.510   3
 -20  -8  13 124.548 417.609   5
  20   8 -12 2453.57 565.542   3
 -20  -8  12 2682.67 738.782   5
  20   8 -11 1765.26 539.203   3
 -20  -8  11 932.541 631.361   5
 -20  -8  10 3714.11 889.207   5
 -20  -8   9 899.926 713.536   5
 -20  -8   8 7263.50 1189.11   5
 -20  -8   7 1157.50 622.703   5
 -20  -8   6 2600.68 696.279   5
 -20  -8   5-41.0323 239.496   5
 -20  -8   4-156.123 317.079   5
 -20  -8   3 656.800 647.309   5
 -20  -8   2 6464.27 1057.01   5
 -20  -8   1 460.578 523.193   5
 -20  -8   0 3011.69 698.935   5
 -20  -8  -1 510.326 363.177   5
 -20  -8  -2 6029.14 1013.76   5
 -20  -8  -3 1065.41 674.801   5
 -20  -8  -4 488.347 388.935   1
 -20  -8  -4 823.577 445.562   5
  21  -1 -39 3920.64 645.388   4
  21  -1 -38 262.022 213.946   4
  21   1 -38 1809.56 511.521   4
  21  -1 -37 7468.48 874.400   4
  21   1 -37 7306.69 883.768   4
  21  -1 -36-218.300 202.481   4
  21   1 -36-114.159 180.794   4
  21  -1 -35 3585.03 576.766   4
  21   1 -35 3467.44 589.638   4
  21  -1 -34-50.0655 152.194   4
  21   1 -34-130.908 138.802   4
  21  -1 -33 2785.60 493.172   4
  21   1 -33 2881.83 538.661   4
  21  -1 -32-220.885 175.950   4
  21   1 -32 2.76716 170.499   4
  21  -1 -31 2792.75 479.073   4
  21   1 -31 3388.10 535.012   4
  21  -1 -30 314.262 180.072   4
  21  -1 -29 12336.9 935.540   4
  21  -1 -28 3.64620 118.073   4
  21  -1 -27 1443.51 314.342   4
  21  -1 -26 114.695 139.257   4
  21  -1 -25 7176.23 654.287   4
  21  -1 -24-164.233 155.998   4
  21  -1 -23 454.001 164.074   4
 -21  -1  22 241.436 99.3645   2
  21  -1 -22 119.023 159.998   4
 -21  -1  21 23753.5 1429.83   5
 -21  -1  20-24.5080 163.071   5
 -21  -1  19 1466.94 393.119   5
 -21  -1  18-32.2220 205.053   5
  21  -1 -17 5122.04 621.613   3
 -21  -1  17 5006.31 678.778   5
 -21  -1  16 26.9009 151.477   5
  21   1 -16-67.9770 225.215   3
  21  -1 -16-50.9988 163.260   3
 -21  -1  15 1984.41 405.449   5
  21   1 -15 2274.47 456.108   3
  21  -1 -15 2626.27 430.017   3
 -21   1  14 79.9034 149.369   2
  21   1 -14 75.5989 204.949   3
  21  -1 -14-42.2225 142.122   3
 -21   1  14 286.848 155.917   5
 -21   1  13 11738.6 778.118   2
  21   1 -13 10650.0 914.173   3
  21  -1 -13 12037.1 864.499   3
 -21   1  13 10972.3 679.263   5
 -21  -1  13 11487.4 952.682   5
 -21   1  12 40.1995 152.612   5
 -21  -1  12 181.687 181.761   5
 -21   1  12 105.697 167.706   2
  21   1 -12 296.481 243.235   3
  21  -1 -12 16.9057 162.320   3
 -21  -1  11 7311.95 742.053   5
 -21   1  11 7297.60 650.709   2
  21  -1 -11 7735.79 498.368   4
  21   1 -11 7104.74 734.367   3
  21  -1 -11 7646.52 672.289   3
 -21   1  11 6553.19 540.062   5
  21  -1 -10 178.759 191.149   3
 -21   1  10-469.181 177.086   5
 -21  -1  10-220.044 203.029   5
 -21   1  10 73.5761 210.396   2
  21  -1 -10-136.202 90.4391   4
 -21  -1  10 174.218 133.221   1
  21   1 -10-154.933 158.820   3
 -21   1   9 5452.13 583.074   2
 -21  -1   9 3888.54 504.724   5
  21  -1  -9 4552.08 356.274   4
  21   1  -9 5385.65 609.863   3
 -21  -1   9 4494.01 538.023   1
 -21   1   9 4919.32 453.815   5
  21   1  -8 462.292 288.703   3
 -21   1   8 1060.63 380.091   2
 -21  -1   8 492.230 271.623   1
 -21   1   8 310.218 178.688   5
 -21  -1   8 172.824 153.631   5
  21  -1  -8 235.822 113.566   4
 -21   1   7 10891.9 645.881   5
 -21  -1   7 9944.98 778.256   5
  21  -1  -7 10262.3 508.067   4
 -21  -1   7 9564.69 802.312   1
 -21   1   6 107.601 101.026   5
 -21  -1   6 233.065 188.847   5
  21  -1  -6-28.2582 59.6488   4
 -21   1   5 10564.6 608.554   5
 -21  -1   5 9474.06 741.295   5
  21  -1  -5 9817.76 486.404   4
 -21  -1   5 9179.42 829.601   1
 -21  -1   4 911.733 401.822   1
  21  -1  -4 68.6039 88.1910   4
 -21  -1   3 13756.0 1033.54   1
  21  -1  -3 15916.2 632.610   4
  21  -1  -2-182.520 59.2798   4
 -21  -1   2 120.326 229.261   1
  21  -1  -1 1259.02 184.105   4
 -21  -1   1 798.007 308.982   1
  21  -1   0 86.0832 75.6949   4
 -21  -1   0 144.474 268.873   1
 -21  -1  -1 8022.56 574.372   4
 -21   1  -2 100.663 104.648   4
 -21  -1  -2 112.826 112.374   4
 -21   1  -3 275.439 99.3374   4
 -21  -1  -3 590.280 149.569   4
 -21   1  -4 176.001 99.4762   4
 -21  -1  -4 279.296 187.352   4
 -21   1  -5 12275.0 647.584   4
 -21  -1  -5 12002.5 752.289   4
 -21   1  -6 175.510 115.003   4
 -21  -1  -6 28.9960 109.202   4
 -21  -1  -7 605.696 191.333   4
 -21   1  -7 1185.80 220.517   4
 -21  -1  -8 204.893 152.610   4
 -21   1  -8 121.889 106.821   4
 -21  -1  -9 6364.13 600.335   4
 -21   1  -9 7653.53 581.540   4
 -21   1 -10-30.9218 246.579   2
 -21  -1 -10 46.3311 126.339   4
 -21   1 -10 54.6462 127.501   4
 -21   1 -11-246.276 325.928   2
 -21  -1 -11-62.8992 140.326   4
 -21   1 -11 99.8879 115.858   4
 -21   1 -12 56.5187 227.028   2
 -21  -1 -12 756.963 205.880   4
 -21   1 -12 422.132 172.189   4
 -21   1 -13 7800.29 958.600   2
 -21  -1 -13 9942.82 804.868   4
 -21   1 -13 9434.75 714.881   4
 -21   1 -14-278.573 234.628   2
 -21  -1 -14 189.175 202.559   4
 -21   1 -14 211.784 122.410   4
 -21   1 -15 4334.23 754.041   2
 -21  -1 -15 4752.25 586.109   4
 -21   1 -15 5379.20 567.131   4
 -21   1 -16 112.324 266.612   2
 -21  -1 -16 512.771 248.155   4
 -21   1 -16 656.397 232.128   4
 -21   1 -17 5817.51 877.437   2
 -21  -1 -17 5154.46 632.803   4
 -21   1 -17 6009.54 628.232   4
 -21   1 -18 353.281 263.690   2
 -21  -1 -18 150.332 139.072   4
 -21   1 -19 2620.06 595.956   2
 -21  -1 -19 2081.29 426.096   4
 -21   1 -20-104.270 259.496   2
 -21  -1 -20 37.5360 144.739   4
 -21   1 -21 4711.11 819.777   2
 -21  -1 -21 5852.69 723.750   4
 -21   1 -22 487.182 369.013   2
 -21  -1 -22 465.796 262.358   4
 -21  -1 -23 5073.89 702.009   4
  21  -3 -38-209.037 256.765   4
  21  -3 -37 8798.04 935.988   4
  21  -3 -36 315.740 272.110   4
  21   3 -36 31.7836 224.397   4
  21  -3 -35 5161.24 689.392   4
  21  -3 -34 116.376 182.999   4
  21  -3 -33 2792.41 496.631   4
  21  -3 -32 99.2926 152.866   4
  21  -3 -31 3248.01 522.110   4
  21  -3 -30 201.830 169.889   4
  21  -3 -29 9741.30 832.025   4
  21  -3 -28 283.930 186.002   4
  21  -3 -27 1064.09 273.639   4
  21  -3 -26-18.3799 99.9910   4
 -21  -3  26 132.767 205.986   5
 -21  -3  25 3977.79 731.077   5
  21  -3 -25 3780.80 463.458   4
  21  -3 -24 59.4661 160.574   4
 -21  -3  24 182.705 299.828   5
 -21  -3  23 322.146 260.510   5
  21  -3 -23 300.027 144.142   4
 -21  -3  22-141.831 256.506   5
  21  -3 -22 144.335 111.290   4
  21  -3 -21 22612.8 1002.34   4
 -21  -3  21 20613.5 1634.88   5
 -21  -3  20-82.9725 284.133   5
  21  -3 -20 317.404 132.988   4
 -21  -3  20-73.4783 79.5394   1
 -21  -3  19-270.185 277.927   5
 -21  -3  19-16.2091 89.8794   1
  21  -3 -19 283.475 133.372   4
  21  -3 -19 33.1103 133.404   3
 -21  -3  18 41.3106 254.807   5
 -21  -3  18 135.670 116.547   1
  21  -3 -18 1.22945 90.9895   4
  21  -3 -18-57.3069 132.565   3
 -21  -3  17 2922.54 615.984   5
 -21  -3  17 2937.06 396.119   1
  21   3 -17 2910.54 542.901   3
  21  -3 -17 3161.21 406.328   3
  21  -3 -17 3782.52 343.851   4
 -21  -3  16 71.7239 125.646   1
 -21  -3  16 39.2811 196.024   5
  21  -3 -16 173.254 94.8422   4
  21   3 -16 318.700 278.140   3
  21  -3 -16 8.09859 108.497   3
 -21  -3  15 3701.61 641.743   5
 -21  -3  15 3704.34 466.145   1
  21  -3 -15 4285.60 439.126   3
  21   3 -15 3749.13 601.027   3
  21  -3 -15 4169.24 322.457   4
  21  -3 -14 508.019 245.744   3
 -21  -3  14 429.531 232.810   1
 -21  -3  14 446.067 319.063   5
  21  -3 -14 388.597 134.723   4
  21   3 -14 993.098 443.975   3
 -21  -3  13 16423.1 1329.51   5
 -21  -3  13 16603.0 978.736   1
  21   3 -13 16149.3 1196.75   3
  21  -3 -13 15109.2 511.272   4
 -21  -3  12 634.007 258.728   1
  21  -3 -12 351.254 85.5975   4
 -21  -3  12 1008.73 392.018   5
 -21  -3  11 6427.14 795.921   5
 -21  -3  11 6216.93 621.144   1
  21   3 -11 6393.56 745.070   3
  21  -3 -11 4218.98 179.967   4
 -21  -3  10 514.827 268.402   1
 -21  -3  10-129.410 230.478   5
 -21   3  10 277.644 253.702   2
  21   3 -10 283.599 262.124   3
 -21  -3   9 5319.83 704.205   5
 -21  -3   9 7020.02 687.515   1
 -21   3   9 6547.85 707.619   2
  21   3  -9 6461.88 718.637   3
  21   3  -8 911.403 392.231   3
 -21  -3   8 596.929 290.473   1
 -21  -3   8 38.3905 271.235   5
 -21   3   8 409.981 331.778   2
 -21  -3   7 9005.07 882.676   5
 -21  -3   7 9741.76 830.640   1
 -21   3   7 10620.8 924.892   2
  21   3  -7 10168.0 868.246   3
 -21  -3   6 709.610 361.362   1
 -21  -3   6 361.547 271.902   5
 -21  -3   5 9005.81 865.839   5
 -21  -3   5 10167.0 876.147   1
 -21   3   5 10430.5 930.225   2
 -21  -3   4 945.985 345.200   1
 -21  -3   4 719.699 318.142   5
 -21   3   4 1115.07 423.901   2
 -21   3   3 5829.87 725.982   2
 -21  -3   3 5246.30 665.896   1
 -21  -3   2 18.7472 158.802   1
 -21   3   2-69.0520 203.894   2
 -21  -3   1-16.7223 159.063   1
 -21   3   1-75.7444 209.751   2
 -21  -3   0 280.769 258.580   1
 -21   3   0 388.662 319.396   2
 -21   3  -1 6783.31 826.996   2
 -21  -3  -1 6628.73 794.306   1
 -21  -3  -1 6401.25 593.908   4
 -21  -3  -2 35.5205 171.063   4
 -21   3  -2 153.089 229.051   2
 -21  -3  -2-46.2866 153.569   1
 -21  -3  -3 1207.49 292.398   4
 -21   3  -3 616.126 242.792   2
 -21  -3  -3 1038.35 364.059   1
 -21  -3  -4 689.782 389.176   4
 -21   3  -4 666.539 414.416   2
 -21  -3  -4 437.066 368.732   1
 -21   3  -5 12801.9 1175.84   2
 -21  -3  -5 12555.2 1191.91   1
 -21  -3  -5 13661.1 917.136   4
 -21  -3  -6 388.179 336.338   1
 -21  -3  -6 27.1199 120.819   4
 -21   3  -6 774.327 352.760   2
 -21  -3  -7 524.956 324.091   1
 -21  -3  -7 632.082 197.994   4
 -21   3  -7 450.358 249.145   2
 -21  -3  -8 473.257 397.486   1
 -21  -3  -8 70.8386 247.593   4
 -21   3  -8 226.496 214.804   2
 -21   3  -9 10024.3 1079.17   2
 -21  -3  -9 9883.54 828.230   4
 -21  -3  -9 11089.0 1214.85   1
 -21  -3 -10-18.7884 300.979   1
 -21  -3 -10 362.139 220.739   4
 -21   3 -10 112.049 197.654   2
 -21  -3 -11 141.024 339.415   1
 -21  -3 -11 69.2245 131.631   4
 -21   3 -11-74.4996 289.640   2
 -21  -3 -12 222.364 204.251   4
 -21   3 -12 361.165 282.867   2
 -21  -3 -12 240.594 216.928   1
 -21   3 -13 7621.68 989.234   2
 -21  -3 -13 7137.56 752.848   4
 -21  -3 -13 7015.96 1024.84   1
 -21  -3 -14 105.924 171.505   4
 -21  -3 -14-17.2715 290.698   1
 -21   3 -14-75.2571 224.946   2
 -21  -3 -15 4350.16 621.572   4
 -21   3 -15 4424.22 758.052   2
 -21  -3 -16 101.268 156.860   4
 -21   3 -16 55.6017 221.325   2
 -21   3 -17 6113.57 917.186   2
 -21  -3 -17 5415.43 700.204   4
 -21  -3 -18 290.512 177.295   4
 -21   3 -18 227.912 303.811   2
 -21  -3 -19 1021.77 327.458   4
 -21   3 -19 1114.18 430.016   2
 -21  -3 -20 45.0575 214.087   4
 -21   3 -20 296.592 282.403   2
 -21  -5  28 548.798 367.137   5
 -21  -5  27 1296.74 488.748   5
 -21  -5  26 313.087 301.814   5
 -21  -5  25 5833.55 1005.49   5
 -21  -5  24 182.904 300.534   5
 -21  -5  23-311.583 294.120   5
 -21  -5  22 67.1757 328.522   5
 -21  -5  21 20724.9 1821.40   5
 -21  -5  20 489.860 433.731   5
  21   5 -20 1414.95 579.417   3
 -21  -5  19-223.262 339.568   5
  21   5 -19 380.975 230.978   3
 -21  -5  18-6.67555 261.216   5
  21   5 -18 148.800 242.905   3
 -21  -5  17 2861.95 709.132   5
  21   5 -17 2470.75 489.059   3
 -21  -5  16-28.7059 241.797   5
  21   5 -16 41.2369 299.589   3
 -21  -5  15 2324.14 568.227   5
  21   5 -15 2460.74 547.240   3
 -21  -5  14 611.547 410.630   5
  21   5 -14 1654.04 606.591   3
 -21  -5  13 15860.1 1479.87   5
  21   5 -13 14480.0 1246.54   3
 -21  -5  12 1190.52 674.927   5
  21   5 -12 2390.54 768.489   3
 -21  -5  11 476.766 203.557   5
  21   5 -11 878.968 326.613   3
  21   5 -10-75.0364 325.940   3
 -21  -5  10-42.5063 296.589   5
  21   5  -9 2502.02 501.127   3
 -21  -5   9 2685.69 573.329   5
  21   5  -8 377.083 310.103   3
 -21  -5   8 137.182 288.179   5
 -21  -5   7 6793.16 743.769   1
 -21  -5   7 6408.59 877.875   5
 -21  -5   6 335.042 319.282   1
 -21  -5   6 903.073 593.023   5
 -21  -5   5 7606.78 815.673   1
 -21  -5   5 8669.90 1004.79   5
 -21  -5   4 2071.47 676.111   5
 -21  -5   4 875.169 416.004   1
 -21  -5   3 9503.26 939.440   1
 -21  -5   3 9342.33 1004.98   5
 -21  -5   2 288.259 242.519   5
 -21  -5   2 339.162 252.057   1
 -21  -5   1 475.521 289.421   5
 -21  -5   1 438.724 250.750   1
 -21  -5   0 1756.83 592.437   5
 -21  -5   0 160.292 332.017   1
 -21  -5  -1 11206.0 1082.24   1
 -21  -5  -2 218.070 218.320   1
 -21  -5  -3 1751.55 360.444   4
 -21  -5  -3 1995.39 506.127   1
 -21  -5  -4 1133.66 414.474   4
 -21  -5  -4 851.782 408.403   1
 -21  -5  -5 7228.33 975.484   1
 -21  -5  -5 6918.93 742.214   4
 -21  -5  -6 319.775 251.249   1
 -21  -5  -6 375.261 266.084   4
 -21  -5  -7 863.926 292.189   1
 -21  -5  -7 733.852 240.215   4
 -21  -5  -8 101.199 287.748   1
 -21  -5  -8 49.5989 217.212   4
 -21  -5  -9 6608.88 987.551   1
 -21  -5  -9 6928.34 772.472   4
 -21  -5 -10 80.4391 233.092   4
 -21  -5 -10 302.911 361.873   1
 -21  -5 -11 4.56395 184.364   4
 -21  -5 -11-81.8957 305.652   1
 -21  -5 -12-73.3421 175.553   4
 -21  -5 -12-207.223 287.156   1
 -21  -5 -13 7399.79 844.343   4
 -21  -5 -13 6403.32 1059.66   1
 -21  -5 -14 345.186 302.987   1
 -21  -5 -14 627.683 282.310   4
 -21  -5 -15 3757.55 876.605   1
 -21  -5 -15 4061.20 655.790   4
 -21  -5 -16 165.732 227.929   4
 -21  -5 -16 876.732 466.454   1
  21   7 -26 369.805 285.997   3
 -21  -7  25 3314.12 838.925   5
  21   7 -25 3480.25 709.566   3
 -21  -7  24 340.645 390.882   5
  21   7 -24 223.766 269.204   3
 -21  -7  23 50.8420 238.819   5
  21   7 -23-186.179 214.874   3
 -21  -7  22 982.178 474.769   5
  21   7 -22 1222.02 499.770   3
  21   7 -21 12509.3 1275.15   3
 -21  -7  21 13402.1 1623.43   5
 -21  -7  20 1196.77 650.479   5
  21   7 -20 1933.10 580.635   3
 -21  -7  19 136.620 445.083   5
  21   7 -19-174.676 289.096   3
 -21  -7  18 58.6873 343.176   5
  21   7 -18-496.265 335.933   3
 -21  -7  17 1894.85 673.853   5
  21   7 -17 1498.98 456.127   3
 -21  -7  16 574.047 397.158   5
  21   7 -16 426.635 392.094   3
 -21  -7  15 441.266 345.831   5
  21   7 -15 1571.08 457.501   3
 -21  -7  14 945.477 782.648   5
  21   7 -14 1680.75 739.179   3
  21   7 -13 12926.3 1251.95   3
 -21  -7  13 12252.2 1499.97   5
 -21  -7  12 2950.07 1010.55   5
  21   7 -12 4069.90 849.870   3
  21   7 -11 3280.57 634.348   3
 -21  -7  11 3003.84 754.377   5
  21   7 -10 293.149 480.927   3
 -21  -7  10 162.667 422.342   5
 -21  -7   9 1767.56 509.916   5
 -21  -7   8 1263.08 758.412   5
 -21  -7   7 6503.73 1033.89   5
 -21  -7   6 909.989 708.919   5
 -21  -7   5 6401.42 1030.09   5
 -21  -7   4 1280.42 540.593   5
 -21  -7   3 3053.00 731.895   5
 -21  -7   2 30.8673 325.342   5
 -21  -7   1-40.8454 226.332   5
 -21  -7   0 1102.73 591.188   5
 -21  -7   0 469.570 254.180   1
 -21  -7  -1 6110.93 887.917   1
 -21  -7  -1 6374.01 968.316   5
 -21  -7  -2 636.534 409.917   5
 -21  -7  -2 200.358 280.233   1
 -21  -7  -3 567.182 398.110   5
 -21  -7  -3 1040.75 414.479   1
 -21  -7  -4 2398.73 652.869   5
 -21  -7  -4 1784.28 507.503   1
 -21  -7  -5 9715.06 1191.75   1
 -21  -7  -5 8147.88 1110.90   5
 -21  -7  -6-74.3938 286.568   1
 -21  -7  -7 678.328 270.950   4
 -21  -7  -7 436.430 336.154   1
 -21  -7  -8 98.9712 242.837   4
 -21  -7  -8 380.471 323.785   1
  21   9 -15-134.894 262.671   3
  21   9 -14 2058.41 670.799   3
  22   0 -38 1154.10 357.526   4
  22   0 -37 499.591 292.485   4
  22   0 -36 1575.05 408.005   4
  22   0 -35 155.116 195.873   4
  22   0 -34 6227.83 749.597   4
  22   0 -33 95.6434 130.959   4
  22   0 -32 4150.83 591.462   4
  22   0 -31 29.0678 150.727   4
  22   0 -30 758.967 276.044   4
  22   0 -29 11.6954 128.352   4
  22   0 -28 3678.64 520.123   4
 -22   0  21 124.199 88.9182   2
 -22   0  20 89.3288 84.3477   2
  22   0 -18 23312.3 1391.66   3
 -22   0  18 25026.6 1287.01   5
  22   0 -17 708.195 487.333   3
 -22   0  17 89.2742 204.141   5
 -22   0  16 323.773 163.666   5
  22   0 -16-213.241 217.449   3
 -22   0  15-175.536 154.870   5
  22   0 -15-123.631 176.868   3
 -22   0  14 2096.07 398.754   5
  22   0 -14 2019.02 421.500   3
 -22   0  13-18.4763 178.233   5
  22   0 -13-6.79125 161.904   3
 -22   0  12 1819.16 358.412   5
  22   0 -12 1547.86 352.741   3
 -22   0  11 436.861 283.969   5
  22   0 -11 627.581 326.552   3
 -22   0  10 18775.9 1064.17   5
  22   0 -10 17870.0 1084.62   3
  22   0  -9-0.99677 192.190   3
 -22   0   9 179.967 173.611   5
 -22   0   8 4511.96 492.228   5
 -22   0   7-156.991 129.367   5
 -22   0   6 3859.91 445.846   5
 -22   0   5 268.064 188.227   5
 -22   0  -2-18.0159 87.4368   4
 -22   0  -3 51.8813 119.041   4
 -22   0  -4 26692.7 1036.85   4
 -22   0  -5 235.304 183.310   4
 -22   0  -6 1482.36 274.095   4
 -22   0  -7 76.2147 143.947   4
 -22   0  -8 9523.35 688.265   4
 -22   0  -9-29.5863 110.734   4
 -22   0 -10 830.594 237.705   4
 -22   0 -11 207.975 154.041   4
 -22   0 -12 6894.49 643.089   4
 -22   0 -13-70.5549 118.261   4
 -22   0 -14-100.390 152.918   4
 -22   0 -15 292.774 202.136   4
 -22   0 -16 9853.20 832.399   4
 -22   0 -17 16.3814 160.547   4
 -22   0 -18 7851.50 1055.20   2
 -22   0 -18 7666.19 759.352   4
 -22   0 -19 146.773 242.648   2
 -22   0 -19 426.195 242.047   4
 -22   0 -20 2797.37 639.449   2
 -22   0 -21 277.724 330.611   2
  22  -2 -39 185.186 190.685   4
  22  -2 -38-19.9014 141.946   4
  22  -2 -37-194.356 186.472   4
  22   2 -37 100.753 195.823   4
  22  -2 -36 4149.31 624.166   4
  22   2 -36 3855.98 630.535   4
  22  -2 -35 37.5111 129.058   4
  22   2 -35 550.812 301.197   4
  22  -2 -34 13367.5 1117.34   4
  22   2 -34 10901.8 1036.85   4
  22  -2 -33-89.1383 193.849   4
  22  -2 -32 4045.35 571.632   4
  22  -2 -31 217.507 179.625   4
  22  -2 -30 2497.24 451.896   4
  22  -2 -29 41.1417 116.568   4
  22  -2 -28 1906.54 359.462   4
  22  -2 -27-117.837 150.236   4
  22  -2 -26 8977.52 735.179   4
  22  -2 -25 96.9977 125.750   4
  22  -2 -24 2370.73 363.833   4
 -22  -2  24 2587.49 561.834   5
  22  -2 -23 167.322 129.682   4
 -22  -2  23 101.131 204.338   5
  22  -2 -22 4685.14 488.758   4
 -22  -2  22 4638.40 723.531   5
 -22  -2  21-44.7707 207.917   5
  22  -2 -21 50.1544 100.747   4
 -22  -2  20 39.8008 165.838   5
  22  -2 -20-46.8412 81.7625   4
 -22  -2  19 381.646 281.198   5
  22  -2 -19 1147.94 257.711   4
  22  -2 -19 568.483 215.262   3
  22  -2 -18 36499.2 1154.55   4
 -22  -2  18 35149.7 1302.23   1
  22   2 -18 37704.9 1870.74   3
  22  -2 -18 38716.8 1590.16   3
 -22  -2  18 31541.7 1842.40   5
 -22  -2  17 96.6074 248.205   5
  22  -2 -17 327.749 184.059   4
  22  -2 -17 312.373 324.324   3
 -22  -2  17 98.9661 116.592   1
 -22  -2  16 1128.55 338.776   5
  22  -2 -16 1803.65 246.387   4
 -22  -2  16 1686.22 312.303   1
  22   2 -16 1428.11 368.962   3
  22  -2 -16 1412.15 307.010   3
 -22  -2  15-210.254 255.994   5
 -22  -2  15 274.676 186.590   1
  22  -2 -15 718.640 205.212   4
  22   2 -15 355.316 288.225   3
 -22   2  15-311.589 193.710   2
  22  -2 -15 230.476 211.917   3
 -22   2  14 6341.46 618.071   2
 -22  -2  14 5546.20 571.874   1
  22   2 -14 5336.94 693.590   3
  22  -2 -14 5686.85 567.045   3
 -22  -2  14 5447.42 737.598   5
  22  -2 -13 215.188 160.564   3
 -22  -2  13 199.424 173.512   5
 -22  -2  13 54.7114 102.109   1
 -22   2  13 449.123 214.114   2
  22   2 -13 479.553 309.877   3
  22  -2 -12 1408.75 281.831   3
 -22  -2  12 1504.31 431.222   5
 -22  -2  12 901.916 278.361   1
 -22   2  12 1603.18 341.965   2
  22   2 -12 1073.44 310.520   3
 -22  -2  11 894.823 305.793   1
 -22  -2  11-119.047 226.155   5
 -22   2  11 442.546 272.673   2
  22   2 -11 1232.50 483.550   3
 -22  -2  10 13284.6 1057.32   5
 -22   2  10 15122.9 1012.69   2
 -22  -2  10 12863.3 919.935   1
  22  -2 -10 13269.9 505.389   4
  22   2 -10 13007.6 1039.37   3
  22   2  -9 990.003 361.604   3
 -22  -2   9 790.493 305.450   1
 -22  -2   9 10.2776 172.758   5
 -22   2   9 562.640 307.015   2
 -22   2   8 851.086 121.413   5
  22   2  -8 1346.53 338.947   3
 -22  -2   8 1526.65 348.510   1
 -22  -2   8 1655.20 390.708   5
 -22   2   8 1844.14 379.441   2
  22  -2  -8 1320.22 142.490   4
 -22   2   7 91.7912 82.3651   5
 -22  -2   7 254.864 258.521   1
 -22  -2   7-5.65816 164.695   5
 -22   2   7 305.302 227.319   2
  22  -2  -7-116.994 58.6162   4
 -22   2   6 3816.89 304.228   5
 -22  -2   6 4202.61 557.227   5
 -22   2   6 4840.59 617.462   2
 -22  -2   6 4390.86 600.598   1
 -22   2   5 76.2918 65.0154   5
 -22  -2   5 711.629 368.387   1
 -22  -2   5 722.287 307.788   5
 -22   2   5 789.031 409.407   2
 -22   2   4 11861.5 561.015   5
 -22   2   4 12808.2 1017.63   2
 -22  -2   4 12755.2 958.050   5
 -22  -2   4 11090.7 953.368   1
 -22  -2   3 469.893 351.883   1
 -22   2   3 1230.78 468.341   2
 -22   2   2 10489.4 959.778   2
 -22  -2   2 11473.8 1008.82   1
 -22   2   1 662.476 449.177   2
 -22  -2   1 577.926 383.544   1
 -22   2   0 9658.94 947.776   2
 -22  -2   0 10506.4 990.004   1
 -22  -2  -1 195.721 185.670   4
 -22   2  -1 564.104 295.574   2
 -22  -2  -1 156.960 222.803   1
 -22  -2  -2 1223.28 411.249   1
 -22   2  -2 208.933 259.884   2
 -22  -2  -2 1275.56 267.087   4
 -22  -2  -3 260.279 395.407   1
 -22   2  -3 527.990 400.008   2
 -22  -2  -3 404.849 246.905   4
 -22   2  -4 13395.5 1173.82   2
 -22  -2  -4 15202.5 906.916   4
 -22  -2  -4 13744.6 1256.78   1
 -22  -2  -5 288.561 260.037   1
 -22   2  -5 11.1837 68.8545   4
 -22   2  -5 140.769 198.684   2
 -22  -2  -5-134.961 122.319   4
 -22   2  -6 1479.23 414.142   2
 -22  -2  -6 1157.25 267.929   4
 -22  -2  -6 1340.84 430.020   1
 -22   2  -7 384.677 368.159   2
 -22  -2  -7-282.197 231.003   1
 -22  -2  -7 513.899 290.391   4
 -22   2  -8 19075.6 1474.67   2
 -22  -2  -8 19895.4 1116.78   4
 -22  -2  -8 20071.4 1582.67   1
 -22   2  -9 850.547 440.926   2
 -22  -2  -9 248.986 224.558   4
 -22   2 -10 1334.78 440.046   2
 -22  -2 -10 1376.63 314.447   4
 -22   2 -11 439.593 350.560   2
 -22  -2 -11 33.8675 167.095   4
 -22   2 -12 12366.3 1252.14   2
 -22  -2 -12 13330.1 979.786   4
 -22   2 -13-78.7688 227.986   2
 -22  -2 -13-243.589 162.572   4
 -22   2 -14-164.906 325.936   2
 -22  -2 -14 119.322 137.103   4
 -22   2 -15-46.7675 289.454   2
 -22  -2 -15 398.051 234.024   4
 -22  -2 -16 4865.42 646.274   4
 -22   2 -16 4842.60 816.235   2
 -22   2 -17-15.4728 283.634   2
 -22  -2 -17 194.807 187.240   4
 -22   2 -18 4275.10 793.701   2
 -22  -2 -18 3798.44 591.528   4
 -22  -2 -19 506.535 268.485   4
 -22   2 -19 113.627 208.100   2
 -22  -2 -20 1252.29 335.621   4
 -22   2 -20 1605.89 491.386   2
 -22  -2 -21-131.832 180.451   4
 -22  -4  27 470.638 351.770   5
 -22  -4  26 13089.6 1372.64   5
 -22  -4  25 186.900 243.318   5
 -22  -4  24 1480.19 523.160   5
 -22  -4  23-227.960 390.541   5
 -22  -4  22 5533.94 902.013   5
 -22  -4  22 5282.46 540.506   1
 -22  -4  21-10.5248 269.412   5
 -22  -4  21 37.8963 90.5794   1
 -22  -4  20 96.9476 201.825   5
  22   4 -20-350.511 290.545   3
 -22  -4  20 222.064 145.662   1
 -22  -4  19 491.800 301.661   5
  22   4 -19 885.253 484.363   3
 -22  -4  18 21902.0 1144.81   1
  22   4 -18 21502.2 1481.65   3
 -22  -4  18 20684.7 1688.71   5
 -22  -4  17 473.012 386.023   5
 -22  -4  17 174.895 177.406   1
 -22  -4  16 456.468 299.893   5
 -22  -4  16 1011.39 262.268   1
  22   4 -16 411.229 231.398   3
 -22  -4  15 586.420 372.230   5
 -22  -4  15 527.069 219.375   1
  22   4 -15 470.984 357.298   3
 -22  -4  14 5679.78 610.440   1
  22   4 -14 4837.28 715.212   3
 -22  -4  14 6038.05 900.994   5
 -22  -4  13 507.696 367.097   5
 -22  -4  13 13.8363 161.701   1
  22   4 -13 600.681 453.257   3
 -22  -4  12 1590.98 490.502   5
 -22  -4  12 1224.76 298.093   1
  22   4 -12 1631.05 425.659   3
 -22  -4  11 471.551 362.792   5
 -22  -4  11 426.735 261.820   1
 -22  -4  10 13153.9 1225.97   5
 -22  -4  10 13351.0 979.904   1
  22   4 -10 13645.5 1141.42   3
  22   4  -9 902.640 382.001   3
 -22  -4   9 431.991 272.249   5
 -22  -4   9 1012.24 327.612   1
  22   4  -8 2655.01 471.798   3
 -22  -4   8 2917.39 563.397   5
 -22  -4   8 3414.25 506.001   1
 -22  -4   7-93.2913 268.232   5
 -22  -4   7 224.440 202.665   1
 -22  -4   6 3760.39 555.995   1
 -22  -4   6 3940.71 641.166   5
 -22  -4   5 265.734 320.108   5
 -22  -4   5 305.478 307.296   1
 -22  -4   4 7919.56 887.584   5
 -22  -4   4 8100.70 838.476   1
 -22  -4   3 376.575 335.014   1
 -22  -4   3 373.236 365.567   5
 -22   4   3 606.551 431.286   2
 -22  -4   2 8036.85 892.217   5
 -22  -4   2 7912.86 866.751   1
 -22   4   2 8856.74 955.658   2
 -22  -4   1 1580.01 485.471   1
 -22   4   1 1923.45 560.848   2
 -22  -4   0 9515.62 980.459   1
 -22   4   0 10816.1 1082.55   2
 -22  -4  -1 574.796 311.420   1
 -22   4  -1 167.301 211.069   2
 -22  -4  -2 24.6224 213.364   1
 -22  -4  -2-5.57762 144.209   4
 -22   4  -2 9.83036 226.063   2
 -22  -4  -3 847.795 417.878   4
 -22  -4  -3 459.217 375.171   1
 -22   4  -3 649.511 415.431   2
 -22   4  -4 12368.1 1199.35   2
 -22  -4  -4 12598.4 1234.09   1
 -22  -4  -4 12072.0 919.288   4
 -22  -4  -5-218.169 158.587   4
 -22  -4  -5 332.322 276.978   1
 -22   4  -5 255.375 271.725   2
 -22  -4  -6 224.610 142.414   4
 -22  -4  -6 111.700 274.821   1
 -22   4  -6 376.569 209.636   2
 -22  -4  -7 633.260 370.460   4
 -22   4  -7-23.2975 198.854   2
 -22  -4  -7 20.4529 222.917   1
 -22   4  -8 14036.6 1334.21   2
 -22  -4  -8 14968.0 1428.29   1
 -22  -4  -8 14434.4 1060.78   4
 -22  -4  -9-63.7072 253.431   1
 -22  -4  -9 33.4463 178.549   4
 -22   4  -9 8.08648 258.164   2
 -22  -4 -10 887.412 421.697   1
 -22  -4 -10 669.443 291.672   4
 -22   4 -10 212.415 263.914   2
 -22  -4 -11-219.678 196.765   4
 -22   4 -11-199.882 254.183   2
 -22   4 -12 8351.71 1064.26   2
 -22  -4 -12 8415.57 858.593   4
 -22  -4 -12 9348.83 1329.42   1
 -22  -4 -13-100.589 239.951   1
 -22  -4 -13 204.422 198.944   4
 -22   4 -13-150.425 292.934   2
 -22  -4 -14 142.111 296.781   1
 -22  -4 -14 787.012 323.201   4
 -22   4 -14-71.7615 293.140   2
 -22  -4 -15 129.031 213.690   4
 -22   4 -15-344.692 314.415   2
 -22  -4 -15-6.55609 217.096   1
 -22  -4 -16 6806.26 827.383   4
 -22  -4 -16 5785.30 1032.28   1
 -22   4 -16 5989.74 929.326   2
 -22  -4 -17 8.67129 194.632   4
 -22  -4 -17 103.489 222.624   1
 -22   4 -17 194.802 263.043   2
 -22  -6  29-149.097 224.919   5
 -22  -6  28 2207.04 642.860   5
 -22  -6  27 699.318 399.078   5
 -22  -6  26 10124.5 1349.19   5
 -22  -6  25 514.062 504.803   5
 -22  -6  24 869.292 494.332   5
  22   6 -24 496.877 318.178   3
 -22  -6  23 266.690 333.485   5
  22   6 -23 897.363 396.978   3
 -22  -6  22 5107.12 975.585   5
  22   6 -22 4705.95 787.913   3
 -22  -6  21 607.342 227.628   5
  22   6 -21 659.156 397.853   3
 -22  -6  20 22.0766 250.252   5
  22   6 -20 195.606 245.698   3
 -22  -6  19 875.356 560.325   5
  22   6 -19 1214.42 458.958   3
  22   6 -18 13597.5 1266.90   3
 -22  -6  18 15380.2 1656.61   5
 -22  -6  17 688.720 625.640   5
  22   6 -17 2044.30 734.537   3
 -22  -6  16 580.673 374.090   5
  22   6 -16 141.732 168.016   3
 -22  -6  15 379.230 373.320   5
  22   6 -15 541.823 312.355   3
 -22  -6  14 5681.38 987.668   5
  22   6 -14 3809.45 694.908   3
 -22  -6  13-333.968 410.707   5
  22   6 -13 62.3721 270.218   3
  22   6 -12 782.692 337.510   3
 -22  -6  12 1162.44 450.167   5
  22   6 -11 1730.35 741.449   3
 -22  -6  11 460.904 410.086   5
 -22  -6  10 9193.03 1185.19   5
  22   6 -10 10044.9 1039.92   3
 -22  -6   9 1326.01 724.500   5
 -22  -6   8 3225.72 709.386   5
 -22  -6   7 451.473 438.219   5
 -22  -6   6 2499.46 655.345   5
 -22  -6   6 3301.80 557.003   1
 -22  -6   5 860.789 379.388   1
 -22  -6   5 1771.28 725.620   5
 -22  -6   4 6204.85 814.308   1
 -22  -6   4 6349.51 936.078   5
 -22  -6   3 651.575 521.914   5
 -22  -6   3 457.495 331.030   1
 -22  -6   2 8231.56 950.482   1
 -22  -6   2 7012.41 981.354   5
 -22  -6   1 1557.95 601.710   5
 -22  -6   1 1339.63 494.440   1
 -22  -6   0 9415.73 1055.06   1
 -22  -6   0 8198.87 1045.85   5
 -22  -6  -1 575.370 383.137   5
 -22  -6  -1 73.3144 204.633   1
 -22  -6  -2 299.809 316.887   5
 -22  -6  -2-141.940 279.127   1
 -22  -6  -3-14.0156 177.820   1
 -22  -6  -4 9246.01 1129.78   1
 -22  -6  -5 524.385 262.064   1
 -22  -6  -6 503.456 319.251   1
 -22  -6  -6 1841.69 510.575   4
 -22  -6  -7 436.373 368.344   1
 -22  -6  -7 549.593 300.950   4
 -22  -6  -8 8401.61 1157.69   1
 -22  -6  -8 9462.29 942.391   4
 -22  -6  -9 455.986 347.662   1
 -22  -6  -9 878.353 393.612   4
 -22  -6 -10 323.025 339.780   1
 -22  -6 -10 175.889 164.108   4
 -22  -6 -11 345.425 274.424   4
 -22  -6 -11 244.864 254.100   1
  22   8 -20-147.079 235.918   3
  22   8 -19 3366.12 799.714   3
  22   8 -18 13426.9 1364.06   3
 -22  -8  17 1153.03 723.222   5
  22   8 -17 3463.58 767.960   3
 -22  -8  16 712.644 461.815   5
  22   8 -16 714.505 378.109   3
  22   8 -15 844.913 510.283   3
 -22  -8  15 1177.31 581.712   5
  22   8 -14 3926.05 718.191   3
 -22  -8  14 3650.60 940.225   5
  22   8 -13 1133.68 482.152   3
 -22  -8  13 830.725 533.296   5
 -22  -8  12 1150.31 549.376   5
 -22  -8  11 1320.77 696.228   5
 -22  -8  10 6890.76 1257.30   5
 -22  -8   9 2889.20 884.470   5
 -22  -8   8 2105.23 672.584   5
 -22  -8   7 229.146 409.133   5
 -22  -8   6 1067.71 491.582   5
 -22  -8   5 2394.49 861.695   5
 -22  -8   4 4990.93 1007.77   5
 -22  -8   3 1203.87 711.659   5
 -22  -8   2 4450.81 939.600   5
 -22  -8   1 1437.17 608.937   5
 -22  -8   0 4875.54 810.210   1
  23  -1 -38 546.272 259.125   4
  23  -1 -37 4655.87 706.275   4
  23   1 -37 5629.94 756.130   4
  23  -1 -36 272.954 211.597   4
  23   1 -36 21.2337 188.096   4
  23  -1 -35-195.463 162.633   4
  23   1 -35-95.5812 136.538   4
  23  -1 -34-61.5939 173.467   4
  23   1 -34 98.1724 171.407   4
  23  -1 -33 3685.08 574.006   4
  23   1 -33 4239.41 669.274   4
  23  -1 -32 367.326 207.919   4
  23   1 -32-175.471 128.258   4
  23  -1 -31 7662.64 766.827   4
  23  -1 -30-67.1032 129.886   4
  23  -1 -29 2782.02 443.638   4
  23  -1 -28 82.6486 175.267   4
  23  -1 -27 7285.46 681.870   4
  23  -1 -26-132.435 102.962   4
  23  -1 -25 1964.73 365.674   4
  23  -1 -24 246.597 187.102   4
  23  -1 -23 17688.2 962.502   4
 -23  -1  22 388.231 271.831   5
 -23  -1  21 445.468 230.495   5
 -23  -1  20 153.560 178.998   5
  23  -1 -20 81.3572 151.947   3
  23   1 -19 4344.99 640.123   3
  23  -1 -19 4491.30 613.262   3
 -23  -1  19 4828.34 686.554   5
 -23  -1  18-80.1286 156.645   5
  23   1 -18 202.470 292.945   3
  23  -1 -18 144.553 250.585   3
 -23  -1  17 631.113 283.577   5
 -23   1  17 424.959 167.526   2
  23   1 -17-290.927 235.369   3
  23  -1 -17-98.0568 177.753   3
 -23  -1  16 318.676 301.498   5
 -23   1  16 699.701 290.750   2
  23   1 -16 1255.91 549.898   3
  23  -1 -16 772.936 358.844   3
 -23   1  15 30403.1 1280.91   2
  23   1 -15 27907.0 1548.16   3
  23  -1 -15 29130.9 1450.65   3
 -23  -1  15 28466.4 1592.97   5
 -23  -1  14-183.885 187.225   5
 -23   1  14-27.6339 115.359   2
  23   1 -14 732.147 387.270   3
  23  -1 -14 344.780 469.675   3
 -23   1  14 132.294 180.349   5
 -23   1  13-26.6164 123.105   5
 -23  -1  13 242.882 157.305   5
 -23   1  13 393.368 182.633   2
  23   1 -13-159.536 244.650   3
  23  -1 -13 327.344 166.938   3
  23  -1 -12 262.458 212.026   3
 -23   1  12-187.894 136.041   5
 -23  -1  12 470.154 273.188   5
 -23   1  12 378.448 216.614   2
  23   1 -12 187.307 227.088   3
 -23  -1  11 4812.82 613.923   5
 -23   1  11 5242.78 597.891   2
  23   1 -11 5184.02 636.646   3
  23  -1 -11 5299.92 575.897   3
 -23   1  11 4744.28 468.542   5
 -23   1  10-56.5820 102.269   5
 -23  -1  10-27.8180 166.944   5
 -23   1  10 308.020 211.993   2
  23   1  -9 3525.53 527.836   3
 -23  -1   9 2687.72 448.391   5
 -23   1   9 2586.04 440.426   2
 -23   1   9 2697.73 355.661   5
 -23   1   8 357.462 195.163   5
 -23  -1   8 558.938 284.652   5
 -23   1   7 18091.3 873.088   5
 -23   1   7 18128.0 1138.50   2
 -23  -1   7 17462.5 1061.29   5
 -23   1   6 145.288 128.999   5
 -23  -1   6 259.142 283.232   5
 -23   1   5 5188.78 462.341   5
 -23  -1   5 5158.92 572.320   5
 -23  -1  -2 411.072 225.933   4
 -23  -1  -3 10259.1 698.800   4
 -23   1  -4 435.871 162.232   4
 -23  -1  -4 227.651 143.788   4
 -23   1  -5 137.796 91.9076   4
 -23  -1  -5 290.889 138.162   4
 -23   1  -6 41.1690 104.843   4
 -23  -1  -6 247.640 189.139   4
 -23   1  -7 10932.0 671.307   4
 -23  -1  -7 10564.3 767.233   4
 -23   1  -8-49.9330 236.891   2
 -23   1  -8 195.907 130.870   4
 -23  -1  -8 182.261 163.843   4
 -23   1  -9 287.733 242.488   2
 -23  -1  -9 703.679 246.024   4
 -23   1  -9 856.545 208.483   4
 -23   1 -10-331.816 300.753   2
 -23  -1 -10-77.7888 107.304   4
 -23   1 -10 262.599 132.171   4
 -23   1 -11 8898.91 1050.47   2
 -23  -1 -11 10049.7 809.898   4
 -23   1 -11 10553.7 730.452   4
 -23   1 -12-297.401 272.812   2
 -23  -1 -12-157.587 117.438   4
 -23   1 -13 565.129 328.212   2
 -23  -1 -13 553.416 209.309   4
 -23   1 -14 158.391 212.322   2
 -23  -1 -14-134.668 171.992   4
 -23   1 -15 8288.51 1072.75   2
 -23  -1 -15 8054.48 784.984   4
 -23   1 -16-435.211 389.894   2
 -23  -1 -16 80.1369 151.294   4
 -23   1 -17-545.069 376.940   2
 -23  -1 -17 138.775 172.450   4
 -23   1 -18 85.2650 198.861   2
 -23  -1 -18 715.603 295.353   4
 -23   1 -19 6898.52 1016.92   2
 -23  -1 -19 6329.17 736.379   4
 -23  -1 -20 123.543 154.751   4
  23  -3 -36 170.368 171.882   4
  23  -3 -35 523.286 256.396   4
  23  -3 -34-72.2828 160.109   4
  23  -3 -33 5155.16 643.310   4
  23  -3 -32 80.1252 154.705   4
  23  -3 -31 7361.02 740.358   4
  23  -3 -30 92.7200 153.042   4
  23  -3 -29 2315.36 416.584   4
  23  -3 -28 251.520 185.707   4
  23  -3 -27 5691.76 596.494   4
  23  -3 -26 46.7560 141.100   4
 -23  -3  26 507.777 343.849   5
  23  -3 -25 624.987 205.070   4
 -23  -3  25 537.651 351.409   5
  23  -3 -24-56.1834 130.997   4
 -23  -3  24 102.609 244.990   5
 -23  -3  23 9767.08 1147.38   5
  23  -3 -23 9273.96 675.088   4
 -23  -3  22 180.233 280.097   5
  23  -3 -22 29.2345 101.123   4
  23  -3 -22 484.808 226.767   3
  23  -3 -21 126.692 105.168   4
  23  -3 -21 326.517 159.461   3
 -23  -3  21 241.540 136.329   1
 -23  -3  20 349.302 294.260   5
  23  -3 -20 245.778 114.728   4
  23   3 -20 97.6335 202.531   3
  23  -3 -20 299.438 203.259   3
 -23  -3  20 395.782 162.733   1
 -23  -3  19 4470.31 787.850   5
 -23  -3  19 3969.85 483.815   1
  23  -3 -19 3754.68 465.170   3
  23   3 -19 3707.14 620.797   3
  23  -3 -19 4875.08 424.717   4
 -23  -3  18-24.9090 228.174   5
  23  -3 -18 68.3909 92.2984   4
 -23  -3  18 30.7239 89.4484   1
  23   3 -18 30.1885 168.150   3
  23  -3 -18-401.822 172.285   3
 -23  -3  17 10.0865 226.592   5
  23  -3 -17 185.633 101.178   4
 -23  -3  17 348.557 181.955   1
  23   3 -17 102.272 162.642   3
  23  -3 -17 407.214 171.268   3
 -23  -3  16 220.876 296.525   5
  23  -3 -16 877.944 184.762   4
 -23  -3  16 745.305 299.813   1
  23  -3 -16 1006.64 338.784   3
 -23  -3  15 29492.7 1365.89   1
  23   3 -15 29111.5 1666.66   3
  23  -3 -15 30658.6 1203.03   3
 -23  -3  15 28280.6 1819.87   5
 -23  -3  14 229.087 399.219   5
 -23  -3  14 384.736 228.247   1
 -23  -3  13 656.497 352.947   5
 -23  -3  13 930.020 250.296   1
  23   3 -13 180.177 226.917   3
 -23  -3  12-148.068 180.454   5
 -23  -3  12 298.723 198.446   1
  23   3 -12 549.363 392.966   3
 -23  -3  11 5381.19 752.333   5
 -23  -3  11 5292.28 619.407   1
 -23   3  11 6078.87 698.802   2
  23   3 -11 5854.99 745.068   3
  23   3 -10 381.110 300.523   3
 -23  -3  10-74.2305 271.026   5
 -23  -3  10 182.740 186.177   1
 -23   3  10 155.492 182.278   2
  23   3  -9 1797.05 402.041   3
 -23  -3   9 1718.91 415.149   5
 -23  -3   9 2124.30 392.023   1
 -23   3   9 2773.84 476.935   2
 -23  -3   8 289.940 340.870   5
 -23  -3   8 548.020 288.150   1
 -23   3   8 753.475 345.302   2
 -23  -3   7 11676.8 1030.75   5
 -23   3   7 12980.9 1065.92   2
 -23  -3   7 11101.5 940.907   1
 -23  -3   6 333.637 362.043   5
 -23  -3   6 69.2888 184.005   1
 -23   3   6 552.690 361.383   2
 -23  -3   5 1281.88 332.930   5
 -23  -3   5 1290.72 316.871   1
 -23   3   5 1734.87 411.898   2
 -23  -3   4 372.055 255.736   5
 -23   3   4 192.881 241.537   2
 -23  -3   4 116.779 169.874   1
 -23  -3   3 1393.61 375.972   5
 -23   3   3 1102.78 343.808   2
 -23  -3   3 957.849 306.743   1
 -23   3   2 869.107 421.524   2
 -23  -3   2 145.135 276.343   1
 -23   3   1 10665.5 1041.47   2
 -23  -3   1 9793.88 995.179   1
 -23   3   0 627.348 382.726   2
 -23  -3   0 35.9044 269.161   1
 -23   3  -1 5383.03 761.710   2
 -23  -3  -1 5168.02 738.299   1
 -23  -3  -2 974.454 458.782   1
 -23  -3  -2 1448.27 444.986   4
 -23   3  -2 1509.01 500.778   2
 -23   3  -3 13518.5 1224.53   2
 -23  -3  -3 12826.3 897.196   4
 -23  -3  -3 12770.6 1207.56   1
 -23  -3  -4 26.3302 228.218   1
 -23  -3  -4 206.549 194.226   4
 -23   3  -4 402.013 290.523   2
 -23  -3  -5-14.2902 155.919   4
 -23  -3  -5 284.323 297.256   1
 -23   3  -5-190.541 217.594   2
 -23  -3  -6 472.832 278.129   4
 -23   3  -6 197.484 280.665   2
 -23  -3  -6 651.143 376.166   1
 -23   3  -7 10688.9 1161.29   2
 -23  -3  -7 9216.85 801.557   4
 -23  -3  -7 10381.2 1165.75   1
 -23  -3  -8 126.326 258.255   1
 -23  -3  -8 23.4550 125.582   4
 -23   3  -8 379.971 347.461   2
 -23  -3  -9 1176.70 290.842   4
 -23   3  -9 681.678 324.784   2
 -23  -3  -9 322.837 248.541   1
 -23  -3 -10 256.618 321.170   1
 -23  -3 -10 655.272 277.168   4
 -23   3 -10 692.000 362.265   2
 -23   3 -11 9416.10 1114.75   2
 -23  -3 -11 10511.9 922.861   4
 -23  -3 -11 8347.55 1153.45   1
 -23  -3 -12 451.189 340.695   1
 -23  -3 -12 133.280 183.473   4
 -23   3 -12 148.170 209.823   2
 -23  -3 -13 1325.69 348.759   4
 -23   3 -13 725.804 374.939   2
 -23  -3 -14-19.8514 179.948   4
 -23   3 -14-267.633 201.857   2
 -23   3 -15 9248.91 1166.14   2
 -23  -3 -15 8716.35 893.589   4
 -23  -3 -16 438.019 260.438   4
 -23   3 -16 312.254 343.997   2
 -23  -3 -17 66.0314 523.240   4
 -23   3 -17 107.430 311.884   2
 -23  -3 -18 836.552 239.578   4
 -23  -5  29 3868.87 818.358   5
 -23  -5  28 317.948 341.925   5
 -23  -5  27 5205.76 960.350   5
 -23  -5  26 171.905 201.826   5
 -23  -5  25 1592.68 571.695   5
 -23  -5  24 679.472 406.191   5
  23   5 -23 10537.2 1124.32   3
 -23  -5  23 12753.5 1454.08   5
 -23  -5  22 79.6757 296.119   5
  23   5 -22 810.859 422.371   3
 -23  -5  21-178.894 352.534   5
 -23  -5  21-377.278 173.960   1
  23   5 -21-348.233 272.660   3
 -23  -5  20 10.8811 312.796   5
 -23  -5  20 574.049 220.766   1
  23   5 -20 70.4714 219.834   3
 -23  -5  19 4319.97 553.889   1
 -23  -5  19 5027.16 916.807   5
  23   5 -19 4041.02 679.443   3
 -23  -5  18 268.959 284.450   5
 -23  -5  18 65.9363 109.738   1
  23   5 -18 222.904 241.768   3
 -23  -5  17-180.481 313.882   5
 -23  -5  17 146.225 178.188   1
  23   5 -17-156.496 251.061   3
 -23  -5  16 380.339 380.341   5
 -23  -5  16 236.919 223.384   1
  23   5 -16 962.324 534.380   3
 -23  -5  15 12196.2 951.965   1
  23   5 -15 10255.8 1077.82   3
 -23  -5  15 11799.9 1346.54   5
 -23  -5  14 321.150 565.401   5
 -23  -5  14 40.9935 151.464   1
 -23  -5  13 8.24271 229.151   5
 -23  -5  13 0.24838 120.957   1
  23   5 -13-27.5105 164.685   3
 -23  -5  12 231.009 362.592   5
 -23  -5  12 181.571 165.552   1
  23   5 -12 422.603 307.496   3
  23   5 -11 4170.18 688.517   3
 -23  -5  11 3567.10 544.788   1
 -23  -5  11 2669.53 611.687   5
  23   5 -10 531.355 382.260   3
 -23  -5  10-170.276 293.429   5
 -23  -5  10 137.852 186.284   1
  23   5  -9 2466.36 537.733   3
 -23  -5   9 1992.83 525.054   5
 -23  -5   9 2229.91 441.738   1
 -23  -5   8 470.259 518.275   5
 -23  -5   8 468.612 341.853   1
 -23  -5   7 14010.2 1326.22   5
 -23  -5   7 12810.9 1065.59   1
 -23  -5   6 1722.87 773.024   5
 -23  -5   6 1316.64 440.384   1
 -23  -5   5 9001.75 1068.08   5
 -23  -5   5 8577.34 896.915   1
 -23  -5   4 301.524 481.591   5
 -23  -5   4 548.458 314.008   1
 -23  -5   3 1964.73 519.766   5
 -23  -5   3 2438.47 485.850   1
 -23  -5   2 1064.56 593.649   5
 -23  -5   2 415.247 319.707   1
 -23  -5   1 6795.15 859.625   1
 -23  -5   1 6403.10 886.027   5
 -23  -5   0 84.3719 297.205   1
 -23  -5   0 199.487 371.439   5
 -23  -5  -1 4570.47 754.896   1
 -23  -5  -2 472.128 384.333   1
 -23  -5  -3 6895.45 928.403   1
 -23  -5  -4 101.587 282.746   1
 -23  -5  -4 190.068 245.428   4
 -23  -5  -5-52.5212 201.768   1
 -23  -5  -5 173.457 154.231   4
 -23  -5  -6 142.413 233.533   4
 -23  -5  -6-58.8306 234.951   1
 -23  -5  -7 8624.37 1137.63   1
 -23  -5  -7 7378.27 797.018   4
 -23  -5  -8 348.283 245.461   4
 -23  -5  -8 379.214 257.341   1
 -23  -5  -9 5.71997 166.866   4
 -23  -5  -9-57.7122 209.732   1
 -23  -5 -10 607.241 305.662   4
 -23  -5 -10 1416.50 552.532   1
 -23  -5 -11 7649.90 874.558   4
 -23  -5 -11 7927.17 1184.83   1
 -23  -5 -12 314.340 308.293   1
 -23  -5 -12-39.2428 146.121   4
 -23  -5 -13 926.753 341.113   4
 -23  -5 -13 1734.35 594.905   1
  23   7 -24 1003.38 502.167   3
  23   7 -23 6712.30 959.471   3
 -23  -7  23 9366.77 1388.24   5
 -23  -7  22 313.361 385.258   5
  23   7 -22 184.546 335.706   3
 -23  -7  21 456.103 403.929   5
  23   7 -21 633.750 340.615   3
 -23  -7  20 281.075 453.295   5
  23   7 -20-82.5858 236.290   3
 -23  -7  19 2336.85 710.230   5
  23   7 -19 2052.62 514.006   3
 -23  -7  18 464.081 337.603   5
  23   7 -18 215.240 247.263   3
 -23  -7  17 67.5211 333.025   5
  23   7 -17-46.1480 263.464   3
 -23  -7  16 1967.49 812.224   5
  23   7 -16 1936.28 602.529   3
  23   7 -15 12929.1 1293.41   3
 -23  -7  15 14571.2 1686.42   5
  23   7 -14 2729.39 784.374   3
 -23  -7  14 1624.75 911.087   5
  23   7 -13 579.361 335.930   3
 -23  -7  13 1114.13 526.994   5
  23   7 -12 852.066 495.256   3
 -23  -7  12 1317.27 721.322   5
 -23  -7  11 4088.22 892.328   5
 -23  -7  10 695.277 556.273   5
 -23  -7   9 2294.41 628.024   5
 -23  -7   8 1158.87 757.461   5
 -23  -7   7 6842.16 1075.65   5
 -23  -7   6 1480.68 784.332   5
 -23  -7   5 1185.64 376.113   1
 -23  -7   5 751.157 344.064   5
 -23  -7   4 319.531 305.567   1
 -23  -7   4 199.943 417.719   5
 -23  -7   3 1748.28 641.605   5
 -23  -7   3 1363.97 410.892   1
 -23  -7   2 1363.96 523.516   5
 -23  -7   2 643.411 318.732   1
 -23  -7   1 5227.62 947.535   5
 -23  -7   1 5040.67 798.917   1
 -23  -7   0 1213.86 582.061   5
 -23  -7   0 376.210 278.097   1
 -23  -7  -1 4151.23 801.940   5
 -23  -7  -1 3578.84 705.449   1
 -23  -7  -2 1229.84 605.619   5
 -23  -7  -2 421.041 312.075   1
 -23  -7  -3 9623.65 1198.00   1
 -23  -7  -3 8403.76 1161.86   5
 -23  -7  -4 1320.99 585.812   5
 -23  -7  -4 585.503 374.632   1
 -23  -7  -5 214.410 277.492   5
 -23  -7  -5 34.7558 224.682   1
  24   0 -38 6390.49 811.107   4
  24   0 -37 336.602 255.014   4
  24   0 -36 55.7410 146.748   4
  24   0 -35-201.132 166.541   4
  24   0 -34 5249.19 691.874   4
  24   0 -33 391.369 215.924   4
  24   0 -32 1227.63 342.425   4
  24   0 -31 88.0994 132.992   4
  24   0 -30 3579.27 523.241   4
  24   0 -29-16.5341 164.500   4
  24   0 -28 13880.1 992.117   4
  24   0 -20 18164.8 1295.01   3
  24   0 -19-12.7731 379.286   3
 -24   0  19 239.717 194.712   5
 -24   0  18 495.162 180.146   2
  24   0 -18 280.352 201.411   3
 -24   0  18 198.816 167.289   5
 -24   0  17 151.576 180.690   5
 -24   0  17 144.893 162.201   2
  24   0 -17-96.6666 163.941   3
  24   0 -16 4240.89 605.764   3
 -24   0  16 5011.21 621.084   5
 -24   0  15-5.09860 133.333   5
  24   0 -15 170.060 255.398   3
 -24   0  14 238.302 164.611   5
  24   0 -14 299.565 239.580   3
 -24   0  13 841.101 338.079   5
  24   0 -13 1858.14 581.885   3
  24   0 -12 31759.3 1559.84   3
 -24   0  12 32828.9 1503.82   5
  24   0 -11 643.378 428.822   3
 -24   0  11 87.4213 225.003   5
 -24   0  10 2611.66 417.448   5
 -24   0   9-69.6410 131.855   5
 -24   0   8 4987.92 555.301   5
 -24   0   7-75.7877 144.644   5
 -24   0   6 5266.81 547.201   5
 -24   0   5 464.040 234.839   5
 -24   0  -3 144.636 137.864   4
 -24   0  -4 7515.80 572.702   4
 -24   0  -5 182.713 140.066   4
 -24   0  -6 5926.10 544.869   4
 -24   0  -7 3153.04 437.129   4
 -24   0  -8 177.478 128.211   4
 -24   0  -9-29.2011 140.602   4
 -24   0 -10 6982.63 637.466   4
 -24   0 -11-184.200 143.924   4
 -24   0 -12 23.9318 104.027   4
 -24   0 -13 91.2657 156.542   4
 -24   0 -14 9250.09 794.885   4
 -24   0 -16 810.860 362.423   2
 -24   0 -17-95.8562 227.902   2
 -24   0 -18 6547.07 1017.82   2
  24  -2 -38 5873.92 769.023   4
  24  -2 -37 320.404 183.516   4
  24  -2 -36 2579.99 510.652   4
  24   2 -36 2366.71 515.733   4
  24  -2 -35-0.56533 127.793   4
  24   2 -35 159.075 147.159   4
  24  -2 -34 4337.59 608.350   4
  24  -2 -33 357.842 202.704   4
  24  -2 -32 1555.56 367.420   4
  24  -2 -31-51.0393 143.132   4
  24  -2 -30 4481.39 575.878   4
  24  -2 -29 0.87833 110.523   4
  24  -2 -28 7652.44 716.654   4
  24  -2 -27 311.000 191.725   4
  24  -2 -26 2431.80 397.496   4
  24  -2 -25 112.498 135.783   4
 -24  -2  25 407.705 297.996   5
  24  -2 -24 4505.73 497.574   4
 -24  -2  24 4373.81 732.433   5
  24  -2 -23-19.5095 86.5128   4
 -24  -2  23 102.738 230.109   5
 -24  -2  22 662.549 286.614   5
  24  -2 -22 589.997 175.565   4
  24  -2 -22 478.419 208.580   3
 -24  -2  21-65.6632 178.130   5
  24  -2 -21 209.265 174.114   4
  24   2 -21 353.483 340.725   3
  24  -2 -21-179.448 144.900   3
  24  -2 -20 22304.9 957.982   4
  24   2 -20 21878.4 1490.75   3
  24  -2 -20 23355.0 1290.95   3
 -24  -2  20 22245.1 1609.61   5
 -24  -2  19 120.146 295.458   5
  24  -2 -19 218.593 152.354   4
  24  -2 -19 719.841 329.894   3
 -24  -2  18 521.532 306.560   5
  24  -2 -18 350.083 119.676   4
  24   2 -18-46.7678 227.554   3
  24  -2 -18 194.274 197.217   3
 -24  -2  17-147.541 224.713   5
 -24  -2  17 267.492 180.384   1
  24  -2 -17 196.422 139.444   4
  24   2 -17 49.1751 239.473   3
  24  -2 -17 191.780 201.579   3
  24  -2 -16 7539.54 485.242   4
 -24   2  16 8148.87 714.625   2
 -24  -2  16 6343.49 621.939   1
  24   2 -16 7237.56 857.480   3
  24  -2 -16 7233.09 688.359   3
 -24  -2  16 8133.09 949.457   5
 -24  -2  15-120.605 189.173   5
 -24  -2  15 15.9645 162.500   1
 -24   2  15 537.381 238.089   2
  24   2 -15 481.588 332.051   3
  24  -2 -15 141.628 226.838   3
  24  -2 -14 88.7897 109.001   3
 -24  -2  14 404.299 237.964   5
 -24  -2  14 176.485 161.849   1
 -24   2  14 291.272 174.208   2
  24   2 -14 219.154 209.888   3
 -24  -2  13 1378.09 396.801   1
 -24  -2  13 911.620 429.438   5
 -24   2  13 1268.77 374.855   2
  24   2 -13 1973.92 530.116   3
 -24  -2  12 25518.6 1574.91   5
 -24   2  12 29564.2 1435.03   2
 -24  -2  12 24851.9 1309.93   1
  24   2 -12 24821.2 1494.20   3
 -24  -2  11 325.918 244.879   1
 -24  -2  11 194.186 332.601   5
 -24   2  11 544.901 300.165   2
  24   2 -10 2130.30 436.076   3
 -24  -2  10 2259.53 458.989   5
 -24   2  10 2576.24 440.534   2
 -24  -2  10 2646.53 465.621   1
  24   2  -9 138.987 161.353   3
 -24  -2   9 48.3574 176.154   5
 -24   2   9 245.945 199.140   2
 -24  -2   9 200.296 197.219   1
 -24  -2   8 2621.24 487.135   5
 -24   2   8 1924.64 397.621   2
 -24  -2   8 2454.21 448.540   1
 -24  -2   7 342.409 242.446   1
 -24  -2   7-15.1577 197.058   5
 -24   2   7 739.198 336.734   2
 -24   2   6 3801.78 333.299   5
 -24  -2   6 4337.16 591.559   5
 -24   2   6 4883.45 662.672   2
 -24  -2   6 4292.61 623.907   1
 -24  -2   5 575.955 315.586   1
 -24   2   5 166.491 91.9771   5
 -24  -2   5 724.391 330.556   5
 -24   2   5 1093.32 436.858   2
 -24   2   4 7474.54 481.603   5
 -24   2   4 9317.03 921.117   2
 -24  -2   4 7868.11 788.157   5
 -24  -2   4 8552.84 868.522   1
 -24  -2   3 160.878 291.592   1
 -24   2   3 363.597 303.825   2
 -24   2   2 2010.98 466.682   2
 -24  -2   2 2197.60 489.804   1
 -24   2   1-94.6547 208.570   2
 -24  -2   1 166.126 246.225   1
 -24   2   0 854.479 326.559   2
 -24  -2   0 1188.50 432.680   1
 -24  -2  -1 285.610 272.799   1
 -24   2  -1 378.848 296.472   2
 -24   2  -2 5653.11 812.211   2
 -24  -2  -2 6665.12 615.292   4
 -24  -2  -2 6039.72 838.438   1
 -24  -2  -3 95.5542 196.856   4
 -24   2  -3 263.286 295.427   2
 -24  -2  -3 210.593 306.696   1
 -24   2  -4 6269.59 860.482   2
 -24  -2  -4 6107.56 597.888   4
 -24  -2  -4 6332.18 880.598   1
 -24  -2  -5 365.752 257.721   4
 -24   2  -5 421.427 334.719   2
 -24   2  -6 11458.5 1179.32   2
 -24  -2  -6 11050.0 833.502   4
 -24   2  -7-129.289 215.162   2
 -24  -2  -7-112.010 146.187   4
 -24   2  -8 281.545 211.122   2
 -24  -2  -8 50.7422 140.699   4
 -24   2  -9 272.897 294.237   2
 -24  -2  -9 604.729 257.324   4
 -24   2 -10 9696.84 1147.07   2
 -24  -2 -10 10439.5 869.366   4
 -24   2 -11 355.706 291.646   2
 -24  -2 -11-127.987 142.715   4
 -24   2 -12-309.958 272.031   2
 -24  -2 -12 75.0561 133.609   4
 -24   2 -13 600.907 497.641   2
 -24  -2 -13 107.575 190.280   4
 -24  -2 -14 5042.72 650.759   4
 -24   2 -14 4754.08 887.762   2
 -24  -2 -15-80.7982 150.142   4
 -24   2 -15-151.145 338.798   2
 -24  -2 -16 840.926 270.135   4
 -24   2 -16 376.303 275.833   2
 -24  -2 -17 123.126 163.681   4
 -24   2 -17-201.133 241.158   2
 -24  -2 -18 4713.50 665.571   4
 -24  -2 -19-98.1446 161.366   4
 -24  -4  28 8157.94 1090.59   5
 -24  -4  27-121.135 222.786   5
 -24  -4  26 2338.66 620.387   5
 -24  -4  25-17.1344 261.407   5
 -24  -4  24 4228.72 811.122   5
 -24  -4  23-180.359 245.995   5
  24   4 -23 95.0779 286.523   3
 -24  -4  22 874.097 437.414   5
  24   4 -22 1281.03 426.617   3
 -24  -4  21-133.749 223.366   5
 -24  -4  21-31.9296 140.419   1
  24   4 -21 239.998 383.409   3
 -24  -4  20 13613.2 945.292   1
  24   4 -20 14159.9 1262.13   3
 -24  -4  20 12246.8 1358.39   5
 -24  -4  19-228.715 201.386   5
 -24  -4  19 423.267 239.430   1
  24   4 -19 1063.37 582.714   3
 -24  -4  18 98.5083 201.426   5
 -24  -4  18 368.107 158.102   1
  24   4 -18 215.555 188.678   3
 -24  -4  17 103.002 160.556   1
 -24  -4  17 349.831 324.336   5
  24   4 -17 164.030 276.075   3
 -24  -4  16 3737.40 732.969   5
 -24  -4  16 3544.04 512.045   1
  24   4 -16 3084.98 612.863   3
 -24  -4  15 559.955 204.892   1
 -24  -4  15 179.585 317.696   5
  24   4 -15 1037.78 416.794   3
 -24  -4  14 801.936 264.570   1
 -24  -4  14 1115.54 415.547   5
  24   4 -14 730.945 339.110   3
 -24  -4  13 2302.17 464.014   1
 -24  -4  13 2752.15 772.246   5
  24   4 -13 2819.83 641.851   3
 -24  -4  12 17640.6 1516.67   5
 -24  -4  12 19037.0 1206.77   1
  24   4 -12 18447.4 1375.68   3
 -24  -4  11 587.771 301.171   1
 -24  -4  11 227.292 480.853   5
  24   4 -10 2723.07 519.928   3
 -24  -4  10 2602.36 473.605   1
 -24  -4  10 1502.40 436.126   5
 -24  -4   9 71.8163 222.985   1
 -24  -4   9-150.625 222.060   5
 -24  -4   8 3810.27 595.853   1
 -24  -4   8 2681.31 555.247   5
 -24  -4   7 371.545 274.908   1
 -24  -4   7 290.470 336.646   5
 -24  -4   6 2832.24 517.203   1
 -24  -4   6 3374.43 613.889   5
 -24  -4   5 216.912 281.701   1
 -24  -4   5 487.166 459.228   5
 -24   4   5 550.609 416.090   2
 -24  -4   4 7285.52 873.755   5
 -24  -4   4 7435.96 852.385   1
 -24   4   4 8622.46 976.259   2
 -24  -4   3 953.160 420.094   5
 -24  -4   3 229.555 283.891   1
 -24   4   3 646.631 401.915   2
 -24  -4   2 3890.20 648.345   5
 -24  -4   2 3348.89 587.107   1
 -24   4   2 4795.06 750.397   2
 -24  -4   1-67.4859 189.183   5
 -24  -4   1 121.423 221.932   1
 -24   4   1 402.977 299.391   2
 -24  -4   0 905.368 366.510   1
 -24   4   0 672.197 312.417   2
 -24  -4  -1 275.931 256.817   1
 -24   4  -1 442.327 321.244   2
 -24   4  -2 7141.06 925.345   2
 -24  -4  -2 7097.66 941.323   1
 -24   4  -3 28.9161 260.679   2
 -24  -4  -3-61.6032 247.765   1
 -24  -4  -4 6044.30 886.033   1
 -24  -4  -4 6217.90 679.280   4
 -24   4  -4 5844.34 853.904   2
 -24  -4  -5 57.1437 190.997   1
 -24  -4  -5 33.9175 199.133   4
 -24   4  -5 488.205 290.737   2
 -24  -4  -6 4528.87 813.086   1
 -24  -4  -6 4688.97 620.737   4
 -24   4  -6 5713.19 880.732   2
 -24  -4  -7 842.413 436.760   1
 -24  -4  -7 474.248 229.718   4
 -24   4  -7 438.410 321.614   2
 -24  -4  -8-85.8654 186.983   4
 -24   4  -8-311.465 295.121   2
 -24  -4  -9 284.175 245.041   4
 -24   4  -9-98.2279 218.053   2
 -24   4 -10 7518.45 1038.80   2
 -24  -4 -10 8495.24 875.762   4
 -24  -4 -10 7747.18 1116.59   1
 -24  -4 -11 344.537 577.063   1
 -24  -4 -11-143.239 199.561   4
 -24   4 -11-19.9782 252.527   2
 -24  -4 -12 286.586 202.663   4
 -24  -4 -12 713.736 316.227   1
 -24   4 -12-40.2243 328.331   2
 -24  -4 -13 504.311 343.904   1
 -24  -4 -13 279.644 215.827   4
 -24  -4 -14 6421.95 805.613   4
 -24  -4 -14 6438.54 1076.02   1
 -24  -4 -15 314.289 257.156   4
  24   6 -27 300.933 342.311   3
 -24  -6  27 274.971 345.913   5
 -24  -6  26 1919.57 661.499   5
  24   6 -26 1208.53 407.036   3
 -24  -6  25-82.9502 241.160   5
  24   6 -25 401.982 348.042   3
 -24  -6  24 4577.47 957.920   5
  24   6 -24 4249.56 763.969   3
 -24  -6  23 447.766 458.842   5
  24   6 -23-20.1330 186.584   3
 -24  -6  22 781.088 446.016   5
  24   6 -22 429.524 250.481   3
 -24  -6  21 1008.11 514.449   5
  24   6 -21 1261.16 519.809   3
 -24  -6  20 9364.50 887.093   1
  24   6 -20 8706.69 1059.09   3
 -24  -6  20 8754.47 1297.15   5
 -24  -6  19 324.558 229.220   1
 -24  -6  19 332.936 398.427   5
  24   6 -19 273.325 299.670   3
 -24  -6  18 171.151 225.645   1
 -24  -6  18 419.486 428.240   5
  24   6 -18-14.7596 213.760   3
 -24  -6  17 33.8120 118.235   1
 -24  -6  17 995.689 489.991   5
  24   6 -17 542.549 356.359   3
 -24  -6  16 1744.22 400.899   1
 -24  -6  16 1275.82 586.526   5
  24   6 -16 2243.16 569.363   3
 -24  -6  15 350.786 239.567   1
 -24  -6  15 712.127 412.209   5
  24   6 -15 417.801 284.409   3
 -24  -6  14 183.574 217.491   1
 -24  -6  14-96.6683 308.768   5
  24   6 -14-1.55459 186.612   3
  24   6 -13 2927.34 731.317   3
 -24  -6  13 313.664 248.145   1
 -24  -6  13 1898.01 890.190   5
 -24  -6  12 11814.7 1445.23   5
 -24  -6  12 9864.70 959.369   1
  24   6 -12 11864.2 1194.82   3
 -24  -6  11 1427.36 629.007   5
 -24  -6  11 712.504 339.561   1
  24   6 -11 2055.04 798.214   3
 -24  -6  10 1333.55 468.197   5
 -24  -6  10 2518.52 492.443   1
 -24  -6   9 139.203 340.935   5
 -24  -6   9 339.400 284.804   1
 -24  -6   8 5017.23 1172.97   5
 -24  -6   8 4071.43 652.182   1
 -24  -6   7 854.645 523.031   5
 -24  -6   7 714.747 309.216   1
 -24  -6   6 2500.23 624.559   5
 -24  -6   6 2983.67 564.391   1
 -24  -6   5 49.1088 377.609   5
 -24  -6   5 775.835 379.541   1
 -24  -6   4 6366.49 952.027   5
 -24  -6   4 6222.05 855.090   1
 -24  -6   3 1173.01 609.652   5
 -24  -6   3 441.245 353.005   1
 -24  -6   2 3646.49 737.009   5
 -24  -6   2 3329.23 634.157   1
 -24  -6   1 502.866 411.169   5
 -24  -6   1 122.401 195.516   1
 -24  -6   0 1088.90 433.410   5
 -24  -6   0 1284.15 461.779   1
 -24  -6  -1 375.717 398.448   5
 -24  -6  -1 238.740 248.791   1
 -24  -6  -2 6392.08 927.472   1
 -24  -6  -2 5126.76 860.304   5
 -24  -6  -3 1310.23 521.026   1
 -24  -6  -3 201.184 338.246   5
 -24  -6  -4 4139.42 803.766   1
 -24  -6  -5 237.949 293.023   1
 -24  -6  -6 4539.38 848.179   1
 -24  -6  -7 326.642 248.421   4
 -24  -6  -7-21.6697 247.166   1
 -24  -6  -8 503.352 257.739   4
  24   8 -16 4934.13 856.570   3
  24   8 -15 831.537 363.784   3
  24   8 -14-108.706 264.143   3
 -24  -8   6 1574.38 496.807   1
 -24  -8   5 1563.54 555.359   1
  25  -1 -38-322.980 210.833   4
  25  -1 -37 215.009 221.654   4
  25   1 -37 803.252 308.308   4
  25  -1 -36-77.2693 175.483   4
  25   1 -36 157.860 166.277   4
  25  -1 -35 8867.98 897.025   4
  25   1 -35 8670.86 915.787   4
  25  -1 -34 338.719 210.740   4
  25   1 -34 134.245 182.094   4
  25  -1 -33 5212.60 667.536   4
  25   1 -33 4945.73 681.336   4
  25  -1 -32 38.7990 133.322   4
  25   1 -32 3.86584 163.781   4
  25  -1 -31 6111.63 689.514   4
  25  -1 -30 8.76901 113.779   4
  25  -1 -29 1918.00 370.477   4
  25  -1 -28 439.817 201.338   4
  25  -1 -27 3498.83 480.684   4
  25  -1 -26 122.460 132.631   4
  25  -1 -25 9286.94 736.809   4
  25  -1 -24 239.331 196.106   4
  25  -1 -23 1569.05 404.064   3
  25   1 -22-221.593 199.238   3
  25  -1 -22 396.331 234.188   3
 -25  -1  22 266.724 252.853   5
  25   1 -21 7617.89 896.608   3
  25  -1 -21 7888.65 828.122   3
 -25  -1  21 9111.89 935.054   5
 -25  -1  20-104.763 148.081   5
  25   1 -20 10.4432 279.939   3
  25  -1 -20-133.106 194.835   3
 -25   1  20-93.4772 115.772   2
 -25  -1  19 499.910 231.229   5
 -25   1  19 292.370 124.927   2
  25   1 -19 95.8021 186.982   3
  25  -1 -19-57.7929 190.971   3
 -25  -1  18 667.683 304.746   5
 -25   1  18 676.831 250.162   2
  25   1 -18 814.245 406.663   3
  25  -1 -18 495.451 381.124   3
 -25   1  17 18508.8 1018.17   2
  25   1 -17 18733.0 1328.13   3
  25  -1 -17 17394.9 1183.76   3
 -25  -1  17 16514.8 1263.73   5
 -25  -1  16 28.6791 261.557   5
 -25   1  16-156.877 137.968   2
  25  -1 -16 113.794 340.960   3
 -25  -1  15 121.795 152.736   5
 -25   1  15 27.7315 115.419   2
  25   1 -15-79.9678 203.169   3
 -25   1  15 34.0253 87.7002   5
  25  -1 -15-311.307 235.112   3
  25  -1 -14 158.863 176.058   3
 -25  -1  14-3.19131 177.397   5
 -25   1  14 352.553 192.289   2
  25   1 -14-13.3589 207.196   3
 -25   1  14-16.5413 110.330   5
 -25   1  13 2552.44 343.966   5
 -25  -1  13 3443.27 566.995   5
 -25   1  13 2893.25 453.114   2
  25  -1 -13 3638.60 517.134   3
  25   1 -13 3209.56 551.240   3
  25   1 -12 29.0698 182.672   3
 -25   1  12-206.744 136.752   5
 -25  -1  12 27.9549 168.114   5
 -25   1  12 346.615 209.927   2
  25   1 -11 1354.06 382.278   3
 -25   1  11 565.131 158.521   5
 -25  -1  11 1141.89 346.345   5
 -25   1  11 1448.71 353.941   2
 -25   1  10 1258.48 327.834   5
 -25   1  10 2259.81 534.058   2
 -25  -1  10 1169.39 494.852   5
 -25  -1   9 28950.9 1482.21   5
 -25   1   9 30800.0 1505.08   2
 -25   1   9 29145.8 1214.59   5
 -25   1   8 489.379 297.343   5
 -25  -1   8 324.399 418.124   5
 -25   1   8 1024.96 449.476   2
 -25   1   7 2158.76 441.314   2
 -25   1   7 1953.54 307.152   5
 -25  -1   7 1988.04 387.375   5
 -25   1   6 521.863 331.002   2
 -25   1   6 300.267 155.590   5
 -25  -1   6 186.734 223.742   5
 -25   1   5 6876.59 777.847   2
 -25   1   5 6306.12 543.820   5
 -25  -1   5 7061.57 708.796   5
 -25   1   4 551.312 204.244   5
 -25  -1   4 898.076 312.588   5
 -25  -1  -3 165.861 139.229   4
 -25   1  -4 715.745 357.597   2
 -25  -1  -4 102.790 149.754   4
 -25   1  -5 10454.9 1102.81   2
 -25  -1  -5 9263.59 719.879   4
 -25   1  -6 423.737 301.463   2
 -25  -1  -6 170.079 171.019   4
 -25   1  -7 4222.53 734.156   2
 -25  -1  -7 3273.78 441.305   4
 -25   1  -8 314.895 331.013   2
 -25  -1  -8 391.103 203.629   4
 -25   1  -9 8443.00 1100.61   2
 -25  -1  -9 8464.95 751.277   4
 -25   1 -10-208.125 273.860   2
 -25  -1 -10 194.043 192.438   4
 -25   1 -11 37.7858 402.443   2
 -25  -1 -11 54.0261 151.073   4
 -25   1 -12 498.049 305.758   2
 -25  -1 -12 421.458 247.791   4
 -25   1 -13 9815.25 1193.37   2
 -25  -1 -13 10076.1 877.432   4
 -25   1 -14-373.520 381.395   2
 -25  -1 -14 61.9379 170.875   4
 -25   1 -15 101.391 277.898   2
 -25  -1 -15 188.587 132.363   4
 -25   1 -16 6585.02 979.349   2
 -25  -1 -16 224.620 192.945   4
 -25  -3  27 1912.48 534.531   5
  25  -3 -26 47.3170 135.467   3
 -25  -3  26 405.148 365.133   5
  25  -3 -25 8757.05 776.723   3
 -25  -3  25 8614.90 1082.33   5
 -25  -3  24 117.862 213.769   5
  25  -3 -24-56.2696 120.490   3
 -25  -3  23 1909.31 513.983   5
  25   3 -23 1546.08 421.056   3
  25  -3 -23 1503.56 315.112   3
 -25  -3  22 12.2027 241.505   5
  25   3 -22-78.6911 170.210   3
  25  -3 -22 0.59407 144.515   3
 -25  -3  21 4717.41 846.006   5
 -25  -3  21 3787.03 476.733   1
  25  -3 -21 4390.65 515.386   3
  25   3 -21 3896.76 667.761   3
 -25  -3  20-186.920 244.121   5
 -25  -3  20 45.5388 137.273   1
  25   3 -20-95.4662 181.855   3
  25  -3 -20-145.254 129.925   3
 -25  -3  19 832.217 411.726   5
 -25  -3  19 476.601 190.847   1
  25   3 -19 390.251 227.526   3
  25  -3 -19 447.364 201.283   3
 -25  -3  18 1335.97 469.415   5
 -25  -3  18 1099.33 331.042   1
  25   3 -18 2007.64 571.753   3
  25  -3 -18 1124.64 324.240   3
 -25  -3  17 19407.5 1158.30   1
  25   3 -17 17517.9 1374.27   3
  25  -3 -17 18553.7 994.439   3
 -25  -3  17 18522.1 1549.48   5
 -25  -3  16-32.2209 167.255   1
 -25  -3  16-0.39894 336.139   5
 -25  -3  15 44.0003 117.440   1
 -25  -3  15-68.4763 254.404   5
  25   3 -15 102.893 171.365   3
 -25  -3  14 79.5706 261.166   5
  25   3 -14 48.5694 274.608   3
 -25  -3  14 30.4501 161.222   1
 -25  -3  13 6496.71 897.838   5
 -25  -3  13 5959.25 680.391   1
  25   3 -13 5308.19 743.106   3
 -25  -3  12 866.528 380.436   5
 -25  -3  12 999.747 295.244   1
 -25   3  12 1144.66 339.535   2
  25   3 -11 762.297 350.528   3
 -25  -3  11 790.516 347.640   5
 -25   3  11 901.969 281.342   2
 -25  -3  11 1139.21 299.999   1
 -25  -3  10 1499.75 501.091   5
  25   3 -10 1730.72 761.682   3
 -25   3  10 1054.15 400.046   2
 -25  -3  10 1237.31 390.129   1
 -25  -3   9 15515.8 1283.46   5
 -25   3   9 16318.0 1201.19   2
 -25  -3   9 14334.9 1098.08   1
 -25  -3   8 648.750 375.498   5
 -25   3   8 409.790 361.931   2
 -25  -3   8 526.849 266.246   1
 -25  -3   7 557.826 249.677   1
 -25  -3   7 276.556 240.523   5
 -25   3   7 238.994 173.172   2
 -25  -3   6-165.720 152.935   1
 -25  -3   6 113.672 214.170   5
 -25   3   6 238.644 206.912   2
 -25  -3   5 2479.32 494.280   1
 -25  -3   5 2827.00 532.676   5
 -25   3   5 2696.36 525.036   2
 -25  -3   4 432.390 340.393   1
 -25  -3   4 597.439 314.240   5
 -25   3   4 297.619 328.285   2
 -25  -3   3 3978.02 644.554   5
 -25  -3   3 5045.57 742.592   1
 -25   3   3 4402.26 690.796   2
 -25  -3   2 520.339 387.218   1
 -25   3   2 794.048 405.162   2
 -25   3   1 12237.7 1162.18   2
 -25  -3   1 11223.7 1102.79   1
 -25  -3   0 310.649 371.429   1
 -25   3   0 1201.64 487.423   2
 -25   3  -1 7990.50 970.001   2
 -25  -3  -1 7058.91 914.111   1
 -25   3  -2 356.032 282.539   2
 -25  -3  -2 763.226 377.287   1
 -25  -3  -3 812.103 363.029   1
 -25   3  -3 332.750 297.940   2
 -25  -3  -4 1091.86 447.051   1
 -25  -3  -4 1024.96 338.987   4
 -25   3  -4 1000.04 418.337   2
 -25   3  -5 8289.19 1043.91   2
 -25  -3  -5 7321.16 719.223   4
 -25  -3  -5 7706.11 1020.54   1
 -25  -3  -6 207.594 162.744   4
 -25   3  -6 197.005 293.917   2
 -25  -3  -6-347.439 262.409   1
 -25  -3  -7 1983.71 394.960   4
 -25  -3  -7 2125.30 565.885   1
 -25   3  -7 1649.73 473.812   2
 -25  -3  -8 587.247 386.702   1
 -25  -3  -8 237.316 274.188   4
 -25   3  -8 84.1595 211.533   2
 -25  -3  -9 7168.39 1076.50   1
 -25   3  -9 7628.35 1052.74   2
 -25  -3  -9 7425.90 787.688   4
 -25  -3 -10 330.851 373.285   4
 -25   3 -10 235.272 254.269   2
 -25  -3 -11 49.9505 137.592   4
 -25   3 -11-71.3318 215.438   2
 -25  -3 -12 38.4767 189.167   4
 -25   3 -12 15.8020 278.472   2
 -25   3 -13 7561.29 1081.22   2
 -25  -3 -13 7996.20 860.701   4
 -25  -3 -14 383.857 223.828   4
 -25   3 -14 77.3322 203.993   2
 -25  -3 -15 419.279 260.464   4
 -25  -3 -16 301.219 193.493   4
 -25  -5  29 914.963 441.457   5
 -25  -5  28 587.848 367.649   5
  25   5 -27 2091.50 529.697   3
 -25  -5  27 2540.72 662.461   5
 -25  -5  26 390.000 435.267   5
  25   5 -26 671.251 395.982   3
  25   5 -25 7704.27 1000.59   3
 -25  -5  25 9160.69 1292.36   5
 -25  -5  24-72.8973 290.480   5
  25   5 -24 278.011 301.924   3
 -25  -5  23 1150.87 482.470   5
  25   5 -23 1873.74 512.765   3
 -25  -5  22 427.664 442.663   5
  25   5 -22 453.630 439.538   3
 -25  -5  21 5795.08 1006.88   5
  25   5 -21 6141.49 859.814   3
 -25  -5  20-371.650 345.776   5
  25   5 -20 325.931 390.944   3
 -25  -5  20 23.2587 142.060   1
 -25  -5  19 381.216 283.719   5
  25   5 -19 479.385 312.841   3
 -25  -5  19 274.032 172.009   1
 -25  -5  18 101.636 300.024   5
 -25  -5  18 481.730 241.890   1
  25   5 -18 769.032 398.695   3
 -25  -5  17 8370.61 832.021   1
  25   5 -17 8079.36 997.143   3
 -25  -5  17 6662.15 1055.74   5
 -25  -5  16 103.989 384.586   5
 -25  -5  16 112.001 139.877   1
  25   5 -16 806.955 558.658   3
 -25  -5  15-142.123 212.098   5
 -25  -5  15-67.8240 195.233   1
  25   5 -15-107.887 217.717   3
 -25  -5  14 466.353 449.395   5
 -25  -5  14 318.403 191.125   1
  25   5 -14 348.978 342.157   3
  25   5 -13 2160.84 549.079   3
 -25  -5  13 2252.13 643.817   5
 -25  -5  13 1731.17 376.352   1
  25   5 -12 856.008 399.965   3
 -25  -5  12 387.069 352.004   5
 -25  -5  12 1009.10 316.822   1
  25   5 -11 18.8184 258.605   3
 -25  -5  11-121.585 295.041   5
 -25  -5  11 411.952 241.271   1
 -25  -5  10 1845.93 621.337   5
 -25  -5  10 1451.41 450.286   1
 -25  -5   9 16294.0 1502.57   5
 -25  -5   9 14962.4 1190.21   1
 -25  -5   8 1626.60 713.440   5
 -25  -5   8 1299.49 423.243   1
 -25  -5   7 3234.58 630.215   5
 -25  -5   7 3173.38 581.013   1
 -25  -5   6 213.800 268.875   1
 -25  -5   6 5.08208 408.632   5
 -25  -5   5 4957.79 724.770   1
 -25  -5   5 4480.83 799.230   5
 -25  -5   4 773.237 374.931   1
 -25  -5   4 1334.50 615.184   5
 -25  -5   3 5614.88 849.695   5
 -25  -5   3 5784.32 817.447   1
 -25  -5   2 208.428 243.277   1
 -25  -5   2 758.706 596.393   5
 -25  -5   1 7350.91 974.311   5
 -25  -5   1 7755.60 967.458   1
 -25  -5   0 922.977 492.220   5
 -25  -5   0 74.4228 186.267   1
 -25  -5  -1 2897.88 626.586   5
 -25  -5  -1 2669.42 558.483   1
 -25  -5  -2 173.701 228.576   1
 -25  -5  -3 143.504 186.849   1
 -25  -5  -4 411.913 282.647   1
 -25  -5  -5 5182.72 893.837   1
 -25  -5  -6 110.518 200.889   4
 -25  -5  -6 510.436 320.149   1
 -25  -5  -7 1023.59 449.063   1
 -25  -5  -7 1561.01 401.720   4
 -25  -5  -8 1235.54 460.265   1
 -25  -5  -8 471.529 251.064   4
 -25  -5  -9 8460.84 899.646   4
 -25  -5  -9 8097.93 1186.45   1
 -25  -5 -10 764.723 344.627   4
 -25  -5 -11 496.819 299.333   4
  25   7 -21 3045.78 646.164   3
 -25  -7  20-216.427 244.958   5
  25   7 -20 100.670 270.155   3
 -25  -7  19 1123.30 527.011   5
  25   7 -19 337.033 286.042   3
 -25  -7  18 528.881 264.757   1
  25   7 -18 1602.64 577.088   3
 -25  -7  17 8702.21 931.855   1
  25   7 -17 8123.35 1067.44   3
 -25  -7  17 10869.5 1540.20   5
 -25  -7  16 527.419 294.514   1
 -25  -7  16 864.133 596.243   5
 -25  -7  15 217.905 183.785   1
  25   7 -15 68.8697 220.746   3
 -25  -7  15 279.553 399.249   5
 -25  -7  14 171.684 232.799   1
  25   7 -14 931.815 527.036   3
 -25  -7  14 674.612 597.942   5
 -25  -7  13 3766.82 652.532   1
  25   7 -13 4386.33 770.182   3
 -25  -7  13 4596.14 954.304   5
 -25  -7  12 504.191 306.410   1
 -25  -7  12 1335.11 691.531   5
 -25  -7  11 3.03423 212.966   5
 -25  -7  11 123.460 184.384   1
 -25  -7  10 444.902 502.929   5
 -25  -7  10 858.657 369.121   1
 -25  -7   9 8690.57 1242.77   5
 -25  -7   9 9057.50 1018.84   1
 -25  -7   8 613.309 570.641   5
 -25  -7   8 837.526 385.351   1
 -25  -7   7 780.398 463.329   5
 -25  -7   7 954.537 397.953   1
 -25  -7   6 1205.83 504.818   5
 -25  -7   6 444.550 295.149   1
 -25  -7   5 1961.16 712.531   5
 -25  -7   5 2302.10 551.648   1
 -25  -7   4 1426.44 727.810   5
 -25  -7   4 290.591 263.429   1
 -25  -7   3 3745.63 836.701   5
 -25  -7   3 4059.25 738.330   1
 -25  -7   2 1483.36 739.184   5
 -25  -7   2 381.708 349.092   1
 -25  -7   1 7048.16 984.214   1
 -25  -7   1 6162.23 1017.33   5
 -25  -7   0 1918.13 635.346   5
 -25  -7   0 953.442 413.760   1
  26   0 -37 16.6926 188.109   4
  26   0 -36 4105.79 623.083   4
  26   0 -35-32.2826 136.620   4
  26   0 -34 789.769 286.974   4
  26   0 -33 153.957 127.132   4
  26   0 -32 7616.05 798.877   4
  26   0 -31-51.9394 132.514   4
  26   0 -30 7667.70 778.317   4
  26   0 -29-166.452 136.605   4
  26   0 -24 4853.00 701.844   3
  26   0 -23-72.9237 243.933   3
  26   0 -22 5780.39 752.280   3
  26   0 -21 26.7722 252.367   3
 -26   0  20 3416.20 410.205   2
  26   0 -20 3275.61 565.705   3
 -26   0  19 291.820 162.542   2
  26   0 -19 271.990 291.032   3
 -26   0  19 261.581 218.801   5
 -26   0  18 6057.98 577.558   2
  26   0 -18 6094.20 774.507   3
 -26   0  18 5707.66 654.132   5
 -26   0  17 24.1637 129.278   5
 -26   0  17 156.225 129.065   2
  26   0 -17 270.416 307.262   3
 -26   0  16-83.6628 178.699   5
 -26   0  16 328.993 197.837   2
  26   0 -16-19.0621 203.471   3
 -26   0  15 802.118 390.285   5
  26   0 -15 1455.29 461.469   3
  26   0 -14 20290.9 1320.15   3
 -26   0  14 20017.9 1229.47   5
  26   0 -13 693.972 599.504   3
 -26   0  13-42.2992 227.718   5
 -26   0  12 136.877 170.794   5
 -26   0  11 182.864 171.347   5
 -26   0  10 6184.04 661.960   5
 -26   0   9-20.4447 157.109   5
 -26   0   8 181.857 150.557   5
 -26   0   7 907.757 349.808   5
 -26   0   6 20234.7 1114.03   5
 -26   0   5 435.198 298.283   5
 -26   0   4 5630.89 588.804   5
 -26   0  -5 284.936 159.422   4
 -26   0  -6 467.959 173.779   4
 -26   0  -7-40.7287 91.2551   4
 -26   0 -14 130.149 252.295   2
  26   2 -35 463.714 280.568   4
  26  -2 -34 713.830 251.416   4
  26  -2 -33-29.6806 146.721   4
  26  -2 -32 6894.89 760.108   4
  26  -2 -31-18.8665 116.161   4
  26  -2 -30 2130.76 400.836   4
  26  -2 -29 461.883 254.025   4
  26  -2 -28 3866.96 501.622   4
  26  -2 -27 81.4950 144.523   4
  26  -2 -26 2587.51 380.178   4
  26  -2 -26 1834.61 403.619   3
  26  -2 -25 224.911 160.956   4
  26  -2 -25 18.3840 165.797   3
 -26  -2  25 538.325 286.695   5
  26  -2 -24 3519.05 427.508   4
  26   2 -24 3618.58 652.786   3
  26  -2 -24 3655.53 554.078   3
 -26  -2  24 4386.34 730.012   5
  26  -2 -23 173.180 139.708   4
  26   2 -23 472.951 383.696   3
  26  -2 -23 18.5543 231.809   3
 -26  -2  23 930.523 401.548   5
  26  -2 -22 13488.2 784.422   4
  26   2 -22 12960.9 1201.90   3
  26  -2 -22 14052.3 1041.26   3
 -26  -2  22 13584.1 1291.70   5
 -26  -2  21 365.545 344.322   5
  26  -2 -21 118.713 141.920   4
  26   2 -21 655.521 385.534   3
  26  -2 -21 133.912 219.451   3
 -26  -2  20 2139.26 568.873   5
  26  -2 -20 1692.91 260.470   4
  26   2 -20 826.070 322.061   3
  26  -2 -20 1863.15 375.663   3
 -26  -2  19 131.416 182.838   5
  26  -2 -19 252.905 149.351   4
  26   2 -19 376.816 379.975   3
  26  -2 -19-144.603 205.604   3
  26   2 -18 7009.88 862.109   3
  26  -2 -18 6936.61 704.863   3
 -26  -2  18 7014.13 930.939   5
 -26  -2  17 63.0578 320.608   5
 -26   2  17 402.635 149.205   2
  26  -2 -17 286.512 232.761   3
  26  -2 -16 291.222 177.627   3
 -26  -2  16 486.858 253.888   5
 -26   2  16 586.998 247.769   2
  26   2 -16 254.966 180.143   3
 -26  -2  15 294.673 408.695   5
 -26   2  15 538.146 294.568   2
  26   2 -15 1101.38 433.009   3
 -26   2  14 19370.0 1195.16   2
  26   2 -14 16605.4 1291.43   3
 -26  -2  14 17695.7 1133.23   1
 -26  -2  14 17080.3 1371.45   5
 -26  -2  13 177.037 191.952   1
 -26  -2  13 830.227 417.547   5
 -26   2  13 586.972 256.021   2
  26   2 -12-86.7206 221.810   3
 -26  -2  12 50.6086 198.904   5
 -26   2  12 476.355 249.001   2
 -26  -2  12-53.0108 125.750   1
  26   2 -11 162.681 323.676   3
 -26  -2  11-81.9069 187.439   5
 -26   2  11 187.580 150.108   2
 -26  -2  11 237.743 175.575   1
 -26  -2  10 4734.70 673.721   5
 -26   2  10 5346.69 665.129   2
 -26  -2  10 4952.50 644.614   1
 -26  -2   9 249.219 242.449   5
 -26  -2   9 100.543 181.723   1
 -26   2   9 327.561 257.954   2
 -26  -2   8 1035.86 506.879   5
 -26   2   8 928.742 313.914   2
 -26  -2   8 593.997 247.774   1
 -26  -2   7 796.347 395.053   5
 -26   2   7 757.124 417.818   2
 -26  -2   7 718.248 359.287   1
 -26  -2   6 13145.7 1064.66   5
 -26   2   6 13021.7 1093.00   2
 -26  -2   6 11700.5 1047.62   1
 -26  -2   5 546.294 274.158   5
 -26   2   5 505.988 326.018   2
 -26  -2   5 200.643 264.806   1
 -26  -2   4 1652.27 499.874   1
 -26  -2   4 2134.49 419.671   5
 -26   2   4 2303.14 502.936   2
 -26  -2   3 421.624 338.560   5
 -26   2   3 567.873 341.306   2
 -26  -2   3 173.313 253.472   1
 -26  -2   2 4659.11 721.015   1
 -26   2   2 4296.42 672.026   2
 -26   2   1 102.397 189.265   2
 -26  -2   1 17.9877 203.788   1
 -26   2   0 3294.11 628.801   2
 -26   2  -1 930.525 440.130   2
 -26   2  -2 11056.6 1151.29   2
 -26   2  -3 810.724 406.500   2
 -26   2  -4 12897.8 1259.22   2
 -26  -2  -4 11742.8 863.704   4
 -26  -2  -5 34.9286 161.446   4
 -26   2  -5-31.8782 277.721   2
 -26  -2  -6 1057.61 288.813   4
 -26   2  -6 364.494 256.734   2
 -26  -2  -7 490.165 229.900   4
 -26   2  -7-231.457 345.194   2
 -26   2  -8 11804.9 1278.07   2
 -26  -2  -8 12887.7 969.475   4
 -26  -2  -9 156.623 181.649   4
 -26   2  -9 478.686 331.699   2
 -26  -2 -10 3178.87 508.982   4
 -26   2 -10 2160.55 603.577   2
 -26  -2 -11 593.099 260.320   4
 -26   2 -11 85.0702 232.917   2
 -26   2 -12 6257.44 1010.54   2
 -26  -2 -12 6300.76 741.560   4
 -26  -2 -13 100.811 178.693   4
 -26   2 -13-30.2567 208.951   2
 -26  -2 -14-123.308 169.968   4
 -26  -2 -15-251.045 156.775   4
 -26  -2 -16 7196.03 807.827   4
 -26  -4  28 4239.09 819.547   5
 -26  -4  27 535.994 341.858   5
  26   4 -26 1817.47 470.240   3
 -26  -4  26 1737.79 519.429   5
 -26  -4  25 342.189 342.708   5
  26   4 -25 73.4880 216.534   3
 -26  -4  24 3689.40 785.869   5
  26   4 -24 3636.55 682.383   3
 -26  -4  23 381.305 361.552   5
  26   4 -23 1103.83 466.264   3
  26   4 -22 8375.91 1013.49   3
 -26  -4  22 6061.05 1017.77   5
 -26  -4  21 55.6714 360.436   5
  26   4 -21 803.547 459.704   3
 -26  -4  20 1762.90 523.342   5
 -26  -4  20 2207.54 402.970   1
  26   4 -20 1903.75 485.505   3
 -26  -4  19 349.045 347.549   5
 -26  -4  19 390.834 241.296   1
 -26  -4  18 6025.94 957.268   5
 -26  -4  18 6075.22 695.126   1
  26   4 -18 5864.70 841.043   3
 -26  -4  17 38.4307 280.537   5
 -26  -4  17 60.4545 139.241   1
  26   4 -17 159.843 400.431   3
 -26  -4  16-102.437 253.364   5
 -26  -4  16 331.645 184.151   1
  26   4 -16-14.6913 225.444   3
 -26  -4  15 1467.27 531.678   5
 -26  -4  15 972.615 344.873   1
  26   4 -15 2370.25 661.297   3
 -26  -4  14 16005.9 1160.59   1
  26   4 -14 16822.8 1386.19   3
 -26  -4  14 16191.4 1516.11   5
  26   4 -13 1265.66 590.369   3
 -26  -4  13 743.312 703.626   5
 -26  -4  13 61.9121 197.188   1
  26   4 -12-101.729 239.584   3
 -26  -4  12 412.254 266.436   5
 -26  -4  12 52.0341 120.889   1
  26   4 -11 338.049 374.240   3
 -26  -4  11-207.111 318.413   5
 -26  -4  11 46.1480 169.454   1
 -26  -4  10 2522.77 555.942   5
 -26  -4  10 2889.03 534.381   1
 -26  -4   9 93.9299 233.359   5
 -26  -4   9-155.908 229.373   1
 -26  -4   8 304.547 234.271   5
 -26  -4   8 175.977 218.120   1
 -26  -4   7 1585.30 712.712   5
 -26  -4   7 582.688 333.072   1
 -26  -4   6 12001.5 1187.39   5
 -26  -4   6 11626.2 1085.91   1
 -26   4   6 12633.7 1178.51   2
 -26  -4   5 751.814 427.194   5
 -26  -4   5 791.802 310.620   1
 -26   4   5 475.524 401.069   2
 -26  -4   4 2102.58 505.253   5
 -26  -4   4 2209.57 498.809   1
 -26   4   4 2033.71 516.655   2
 -26  -4   3 666.210 382.574   5
 -26  -4   3 134.316 237.800   1
 -26   4   3 306.409 363.652   2
 -26  -4   2 3992.73 695.546   5
 -26  -4   2 4060.68 683.524   1
 -26   4   2 4276.27 726.057   2
 -26  -4   1 731.681 431.656   5
 -26   4   1 552.922 323.984   2
 -26  -4   1 600.448 316.320   1
 -26  -4   0 4615.53 766.162   1
 -26   4   0 4950.33 813.508   2
 -26  -4  -1 340.847 331.236   1
 -26   4  -1 469.009 428.782   2
 -26   4  -2 6100.13 908.802   2
 -26  -4  -2 6872.36 958.756   1
 -26  -4  -3 816.458 376.042   1
 -26   4  -3 700.816 317.346   2
 -26  -4  -4 5673.49 920.189   1
 -26   4  -4 6280.55 929.535   2
 -26  -4  -5 118.411 223.751   4
 -26  -4  -5 522.271 342.631   1
 -26   4  -5 456.032 338.388   2
 -26  -4  -6 847.680 454.641   4
 -26   4  -6 822.684 275.830   2
 -26  -4  -6 571.264 350.232   1
 -26  -4  -7 407.532 321.869   1
 -26  -4  -7 28.2567 181.582   4
 -26   4  -7 582.100 379.566   2
 -26   4  -8 8587.81 1127.24   2
 -26  -4  -8 7339.86 809.448   4
 -26  -4  -8 7659.75 1097.83   1
 -26  -4  -9 395.764 284.662   4
 -26  -4  -9 350.210 312.082   1
 -26  -4 -10 4127.16 618.609   4
 -26  -4 -10 3369.66 794.730   1
 -26   4 -10 3115.80 704.395   2
 -26  -4 -11 629.205 313.419   4
 -26  -4 -12 7166.37 851.291   4
 -26  -6  26 2219.20 735.259   5
 -26  -6  25 586.437 440.418   5
 -26  -6  24 2249.70 704.937   5
  26   6 -24 2231.28 556.234   3
 -26  -6  23 357.414 488.784   5
  26   6 -23 447.046 443.832   3
 -26  -6  22 6586.34 1168.46   5
  26   6 -22 5364.08 830.919   3
 -26  -6  21 377.896 479.199   5
  26   6 -21 345.586 303.218   3
 -26  -6  20 1817.68 599.294   5
  26   6 -20 1270.35 439.856   3
 -26  -6  19 320.114 430.961   5
 -26  -6  19 1008.84 345.319   1
  26   6 -19 1683.58 557.235   3
 -26  -6  18 4911.53 986.845   5
 -26  -6  18 3775.62 602.535   1
  26   6 -18 3824.00 717.267   3
 -26  -6  17 365.633 558.040   5
 -26  -6  17 253.639 237.282   1
  26   6 -17 393.934 335.497   3
 -26  -6  16-299.369 235.228   5
 -26  -6  16 210.577 193.544   1
  26   6 -16 685.582 382.610   3
 -26  -6  15 2104.71 743.452   5
 -26  -6  15 1119.65 394.222   1
 -26  -6  14 11776.0 1077.99   1
  26   6 -14 13394.0 1302.19   3
 -26  -6  14 12454.3 1510.70   5
  26   6 -13 1418.37 677.112   3
 -26  -6  13 766.114 619.847   5
 -26  -6  13 146.213 251.196   1
 -26  -6  12-198.276 337.289   5
 -26  -6  12-195.114 182.596   1
 -26  -6  11-112.102 315.028   5
 -26  -6  11-146.814 214.679   1
 -26  -6  10 2016.63 606.051   5
 -26  -6  10 1886.39 469.418   1
 -26  -6   9 432.340 517.371   5
 -26  -6   9 468.859 251.815   1
 -26  -6   8 962.176 451.400   5
 -26  -6   8 591.860 297.778   1
 -26  -6   7 1459.59 925.233   5
 -26  -6   7 654.842 382.280   1
 -26  -6   6 12861.2 1434.21   5
 -26  -6   6 12546.4 1211.69   1
 -26  -6   5 1925.18 803.003   5
 -26  -6   5 554.496 393.600   1
 -26  -6   4 1288.52 419.303   1
 -26  -6   4 1639.52 522.570   5
 -26  -6   3 232.964 338.341   1
 -26  -6   3 140.670 387.783   5
 -26  -6   2 2101.65 528.395   1
 -26  -6   2 1544.64 526.992   5
 -26  -6   1 136.542 189.134   1
 -26  -6   1 844.762 560.888   5
 -26  -6   0 3523.58 710.337   1
 -26  -6   0 4725.08 841.944   5
 -26  -6  -1 503.672 369.064   1
 -26  -6  -1 1324.30 573.513   5
 -26  -6  -2 6519.84 993.684   5
 -26  -6  -2 5750.32 941.169   1
 -26  -6  -3 1961.89 652.012   5
 -26  -6  -3 935.573 422.437   1
 -26  -6  -4 4074.50 1078.02   1
 -26  -6  -4 3169.95 710.999   5
 -26  -8  16 52.6514 161.009   1
 -26  -8  15 1029.83 434.064   1
 -26  -8  14 10596.1 1128.44   1
 -26  -8  13 95.5607 215.694   1
  27  -1 -37 2474.61 492.167   4
  27  -1 -36 157.880 188.121   4
  27   1 -36-12.6315 160.075   4
  27  -1 -35 955.963 327.623   4
  27   1 -35 871.250 291.455   4
  27  -1 -34 108.183 163.779   4
  27   1 -34 348.519 202.111   4
  27  -1 -33 4101.27 580.206   4
  27   1 -33 4501.62 646.806   4
  27  -1 -32 213.409 135.430   4
  27  -1 -31-34.4093 138.013   4
  27  -1 -30 135.324 160.476   4
  27  -1 -29 5761.19 631.465   4
  27  -1 -28 282.293 197.169   4
  27  -1 -27 8067.80 717.939   4
  27  -1 -26 358.117 199.149   4
  27  -1 -26 57.2724 207.955   3
  27  -1 -25 7376.18 660.994   4
  27   1 -25 7298.01 930.104   3
  27  -1 -25 6775.31 815.609   3
  27  -1 -24 78.2686 141.849   4
  27   1 -24 382.233 348.233   3
  27  -1 -24-25.6773 169.580   3
  27   1 -23 3446.46 614.381   3
  27  -1 -23 3775.64 604.067   3
 -27  -1  23 4373.43 665.677   5
  27   1 -22-299.572 210.146   3
  27  -1 -22 107.690 239.050   3
 -27  -1  22 394.418 308.398   5
  27   1 -21 2961.01 602.383   3
  27  -1 -21 2153.41 443.435   3
 -27  -1  21 2876.20 527.900   5
 -27  -1  20 60.3011 278.563   5
 -27   1  20 117.252 131.240   2
  27   1 -20 794.150 444.297   3
  27  -1 -20-18.3562 290.353   3
 -27   1  19 10755.2 794.062   2
  27   1 -19 10263.6 1050.02   3
  27  -1 -19 11910.6 1033.38   3
 -27  -1  19 10270.1 1037.17   5
 -27  -1  18 193.324 325.391   5
 -27   1  18 66.6899 119.166   2
  27   1 -18 616.854 477.440   3
  27  -1 -18 211.071 439.290   3
 -27  -1  17 714.714 268.747   5
 -27   1  17 1235.72 296.248   2
  27   1 -17 618.608 280.863   3
  27  -1 -17 534.187 211.790   3
  27  -1 -16 713.227 319.188   3
 -27  -1  16 445.985 291.529   5
 -27   1  16 17.6557 186.542   2
  27   1 -16 1.60636 254.688   3
 -27   1  15 7334.65 720.488   2
  27   1 -15 6077.00 787.162   3
  27  -1 -15 6530.61 727.927   3
 -27  -1  15 7453.53 858.073   5
  27   1 -14 643.564 401.782   3
 -27  -1  14-189.370 165.275   5
 -27   1  14 553.117 272.179   2
  27   1 -13 695.469 362.394   3
 -27  -1  13 725.551 294.480   5
 -27   1  13 483.951 239.346   2
 -27  -1  12 840.042 437.439   5
 -27   1  12 884.849 335.845   2
 -27  -1  11 12983.5 1089.00   5
 -27   1  11 13778.7 1041.73   2
 -27  -1  10 531.517 414.761   5
 -27   1  10 467.694 306.292   2
 -27  -1   9 1004.55 310.592   5
 -27   1   9 1101.15 327.819   2
 -27  -1   8 472.975 273.497   5
 -27   1   8 784.342 337.409   2
 -27  -1   7 6392.37 722.405   5
 -27   1   7 6206.50 742.568   2
 -27  -1   6 81.9370 187.977   5
 -27   1   6 399.101 321.694   2
 -27   1   5 1116.07 339.535   2
 -27  -1   5 1713.17 393.120   5
 -27   1   4 557.896 202.645   5
 -27  -1   4 473.742 331.024   5
 -27   1   3 12744.0 1131.50   2
 -27   1   2 1120.88 459.196   2
 -27   1   1 3688.71 646.615   2
 -27   1   0 598.533 373.789   2
 -27   1  -1 2717.46 575.926   2
 -27   1  -2 252.101 326.072   2
 -27   1  -3 5692.37 876.711   2
 -27   1  -4 439.417 373.702   2
 -27   1  -5 6503.15 927.293   2
 -27  -1  -5 6676.70 633.778   4
 -27   1  -6 36.7859 294.375   2
 -27  -1  -6 247.937 200.212   4
 -27   1  -7 11302.6 1235.50   2
 -27  -1  -7 9193.95 761.488   4
 -27   1  -8-146.124 278.468   2
 -27  -1  -8 131.427 193.898   4
 -27   1  -9 506.143 367.963   2
 -27  -1  -9-103.919 151.656   4
 -27   1 -10 265.022 251.997   2
 -27  -1 -10 393.678 243.189   4
 -27   1 -11 5174.97 885.345   2
 -27   1 -12-197.550 343.312   2
 -27   1 -13 1148.68 468.609   2
  27   3 -27 4607.72 771.428   3
 -27  -3  27 4424.10 798.371   5
  27   3 -26 347.317 292.796   3
 -27  -3  26 144.698 214.296   5
  27   3 -25 5997.20 867.795   3
 -27  -3  25 6807.00 998.797   5
 -27  -3  24 30.6224 257.040   5
  27   3 -24 808.983 534.109   3
 -27  -3  23 3629.16 705.926   5
  27   3 -23 3436.13 658.477   3
 -27  -3  22-510.543 361.642   5
  27   3 -22 355.877 350.194   3
 -27  -3  21 1982.21 552.711   5
  27   3 -21 1771.55 470.751   3
  27  -3 -20 850.062 337.048   3
 -27  -3  20 102.023 260.506   5
 -27  -3  20 633.024 266.252   1
 -27  -3  19 14224.8 1012.52   1
  27  -3 -19 12663.6 863.408   3
 -27  -3  19 11483.8 1279.33   5
 -27  -3  18 422.330 412.594   5
 -27  -3  18 233.010 174.738   1
 -27  -3  17 16.4007 215.986   5
  27   3 -17 609.707 311.194   3
 -27  -3  17 693.682 264.135   1
 -27  -3  16 426.257 280.122   5
 -27  -3  16 1210.15 491.561   1
  27   3 -16 1195.22 548.207   3
 -27  -3  15 6862.54 750.543   1
  27   3 -15 6950.88 884.943   3
 -27  -3  15 6751.30 948.578   5
  27   3 -14 746.799 493.533   3
 -27  -3  14 298.861 431.210   5
 -27  -3  14-44.0760 145.721   1
  27   3 -13 306.680 240.220   3
 -27  -3  13 755.385 352.789   5
 -27  -3  13 684.668 239.254   1
 -27   3  13 588.256 232.224   2
  27   3 -12 1581.99 556.391   3
 -27  -3  12 1070.13 497.945   5
 -27  -3  12 600.689 314.167   1
 -27   3  12 709.118 322.888   2
 -27  -3  11 11231.6 1155.44   5
 -27   3  11 12241.5 1061.23   2
 -27  -3  11 10867.7 988.265   1
 -27  -3  10 451.357 501.932   5
 -27  -3  10 134.811 215.188   1
 -27   3  10 199.042 267.649   2
 -27  -3   9-252.322 257.110   5
 -27  -3   9 482.355 484.273   1
 -27   3   9-372.553 321.059   2
 -27  -3   8 422.484 315.616   5
 -27  -3   8 182.018 236.980   1
 -27   3   8 148.363 237.365   2
 -27  -3   7 2830.52 573.807   5
 -27  -3   7 2626.81 542.067   1
 -27   3   7 2988.25 551.932   2
 -27  -3   6 575.431 312.509   5
 -27  -3   6 200.259 170.676   1
 -27   3   6 438.667 306.305   2
 -27  -3   5 973.536 369.037   5
 -27   3   5 675.021 331.891   2
 -27  -3   5 358.370 252.105   1
 -27  -3   4 1221.07 508.667   5
 -27   3   4 778.627 427.763   2
 -27  -3   4 726.998 403.133   1
 -27  -3   3 12685.1 1143.48   5
 -27   3   3 13298.0 1226.67   2
 -27  -3   3 11927.9 1146.41   1
 -27  -3   2 1537.34 471.926   1
 -27  -3   2 796.349 431.349   5
 -27   3   2 1337.70 501.481   2
 -27  -3   1 3630.68 670.942   1
 -27   3   1 4524.58 756.498   2
 -27  -3   0 134.890 227.461   1
 -27   3   0-210.350 202.789   2
 -27   3  -1 3265.38 681.965   2
 -27  -3  -1 3472.42 664.095   1
 -27  -3  -2 352.535 280.175   1
 -27   3  -2 313.189 311.290   2
 -27   3  -3 7811.98 1011.62   2
 -27  -3  -3 7261.44 995.006   1
 -27  -3  -4-197.769 211.596   1
 -27   3  -4 458.668 328.470   2
 -27   3  -5 8252.06 1070.31   2
 -27  -3  -5 7478.86 1076.16   1
 -27  -3  -6 32.3014 171.652   4
 -27  -3  -6 18.6765 332.567   1
 -27   3  -6 225.326 324.619   2
 -27   3  -7 7656.85 1069.81   2
 -27  -3  -7 6055.32 691.029   4
 -27  -3  -8 225.377 212.191   4
 -27   3  -8 514.571 422.850   2
 -27  -3  -9 29.5276 163.088   4
 -27   3  -9 61.9437 239.762   2
 -27  -3 -10 332.847 252.567   4
 -27   3 -10-499.287 304.808   2
 -27  -3 -11 4925.52 667.346   4
 -27  -3 -12 450.850 266.399   4
 -27  -3 -13 1548.11 401.434   4
 -27  -3 -14 137.273 210.415   4
 -27  -5  29 5634.47 1002.25   5
 -27  -5  28 1007.90 465.620   5
  27   5 -27 4740.50 794.180   3
 -27  -5  27 5858.33 1028.61   5
 -27  -5  26-23.3428 248.925   5
  27   5 -26 428.405 320.219   3
 -27  -5  25 3155.01 787.922   5
  27   5 -25 2129.36 538.740   3
 -27  -5  24 665.383 399.719   5
  27   5 -24 364.549 349.534   3
 -27  -5  23 2767.22 787.948   5
  27   5 -23 2579.23 587.588   3
 -27  -5  22-27.6502 295.301   5
  27   5 -22-94.4508 230.421   3
 -27  -5  21 1796.28 606.516   5
  27   5 -21 1541.39 514.176   3
 -27  -5  20 823.094 563.269   5
  27   5 -20 2369.88 648.016   3
 -27  -5  19 7068.00 790.667   1
  27   5 -19 7010.98 948.822   3
 -27  -5  19 6719.52 1115.17   5
 -27  -5  18 399.567 385.995   5
 -27  -5  18 196.069 207.475   1
  27   5 -18 1117.50 573.294   3
 -27  -5  17 983.176 463.172   5
 -27  -5  17 1450.91 358.474   1
  27   5 -17 922.726 357.355   3
 -27  -5  16-443.024 224.396   5
 -27  -5  16 370.603 219.109   1
  27   5 -16 470.758 394.752   3
  27   5 -15 3201.12 643.702   3
 -27  -5  15 2689.89 671.845   5
 -27  -5  15 3390.90 573.213   1
  27   5 -14 434.087 480.914   3
 -27  -5  14-32.5432 273.797   5
 -27  -5  14 114.397 176.987   1
  27   5 -13-23.0775 245.479   3
 -27  -5  13 327.076 390.323   5
 -27  -5  13 140.752 198.746   1
 -27  -5  12 1949.98 724.858   5
 -27  -5  12 1091.67 406.006   1
 -27  -5  11 15549.8 1563.38   5
 -27  -5  11 14608.8 1216.50   1
 -27  -5  10 1159.22 658.417   5
 -27  -5  10 336.058 280.905   1
 -27  -5   9 347.024 234.906   5
 -27  -5   9 183.254 186.769   1
 -27  -5   8 305.608 440.067   5
 -27  -5   8 138.824 238.851   1
 -27  -5   7 4376.76 807.372   5
 -27  -5   7 4807.73 738.828   1
 -27  -5   6 545.960 480.327   5
 -27  -5   6 86.3667 177.536   1
 -27  -5   5 343.908 295.246   5
 -27  -5   5 553.701 268.720   1
 -27  -5   4 1160.87 708.850   5
 -27  -5   4 399.745 333.193   1
 -27  -5   3 10055.5 1183.36   5
 -27  -5   3 9834.95 1089.75   1
 -27  -5   2 774.961 529.140   5
 -27  -5   2 131.939 203.541   1
 -27  -5   1 874.080 399.532   5
 -27  -5   1 778.669 334.015   1
 -27  -5   0-65.6511 169.733   5
 -27  -5   0 15.1952 221.360   1
 -27  -5  -1 1069.65 419.775   5
 -27  -5  -1 866.658 333.802   1
 -27  -5  -2 737.611 391.379   5
 -27  -5  -2 130.099 256.132   1
 -27  -5  -3 6430.03 968.846   1
 -27  -5  -4 159.819 260.949   1
 -27  -5  -5 8140.91 1180.45   1
 -27  -7  17 614.362 249.013   1
 -27  -7  16-283.984 225.881   1
  27   7 -15 2938.00 637.407   3
 -27  -7  15 4427.21 992.104   5
 -27  -7  15 2904.00 589.523   1
 -27  -7  14 429.958 489.570   5
 -27  -7  14-23.0695 166.743   1
 -27  -7  13 739.890 428.919   5
 -27  -7  13 61.5752 148.489   1
 -27  -7  12 1613.88 892.527   5
 -27  -7  12 793.011 377.161   1
 -27  -7  11 7969.21 1300.48   5
 -27  -7  11 7556.18 971.326   1
 -27  -7  10 2395.16 933.463   5
 -27  -7  10-74.7701 164.770   1
 -27  -7   9 63.4638 348.394   5
 -27  -7   9 161.069 143.730   1
 -27  -7   8-422.067 358.104   5
 -27  -7   8 273.925 198.300   1
 -27  -7   7 1817.87 604.347   5
 -27  -7   7 2592.79 575.859   1
 -27  -7   6-116.688 166.884   1
 -27  -7   5 977.730 397.230   1
  28   0 -37 182.421 197.429   4
  28   0 -36 1316.87 359.733   4
  28   0 -35 81.7607 155.057   4
  28   0 -34 6512.06 747.052   4
  28   0 -33 132.360 202.973   4
  28   0 -32 3739.44 566.152   4
  28   0 -31-401.668 183.983   4
  28   0 -30 7459.51 764.608   4
  28   0 -29-112.812 119.064   4
  28   0 -27 8.38840 177.273   3
  28   0 -26 3163.01 599.848   3
  28   0 -25-221.601 244.949   3
  28   0 -24 3082.59 576.719   3
  28   0 -23 651.640 309.903   3
  28   0 -22 1466.93 412.583   3
  28   0 -21 15.9005 201.535   3
  28   0 -20 2412.72 505.776   3
 -28   0  19 360.338 202.180   2
  28   0 -19 145.676 295.782   3
 -28   0  18 3192.56 457.169   2
  28   0 -18 2514.12 510.872   3
 -28   0  17 764.635 290.444   2
  28   0 -17 794.334 603.888   3
 -28   0  16 14850.7 997.184   2
  28   0 -16 14022.5 1153.84   3
  28   0 -15 62.2953 573.200   3
 -28   0  15 304.190 366.545   5
 -28   0  15 266.349 238.921   2
  28   0 -14 522.906 242.787   3
 -28   0  14 660.000 195.213   5
 -28   0  13-276.146 154.520   5
 -28   0  12 6315.02 704.563   5
 -28   0  11 189.633 243.147   5
 -28   0  10 345.295 202.973   5
 -28   0   9 955.637 357.189   5
 -28   0   8 18018.9 1133.69   5
 -28   0   7 655.516 309.368   5
 -28   0   6 1722.34 352.135   5
 -28   0   5 1868.76 357.691   5
 -28   0   4 4857.60 584.174   5
 -28   0   3 248.442 197.682   5
  28  -2 -30 2925.64 523.353   3
  28  -2 -29-109.333 181.498   3
  28   2 -28 196.061 193.739   3
  28  -2 -28 228.662 199.859   3
  28   2 -27 47.0895 169.520   3
  28  -2 -27 145.113 124.557   3
  28  -2 -26 4196.94 585.554   3
  28   2 -26 4864.50 767.677   3
  28   2 -25-217.624 195.024   3
  28  -2 -25 297.998 246.188   3
 -28  -2  25 345.073 314.440   5
  28   2 -24 8813.86 1019.79   3
  28  -2 -24 8349.10 827.174   3
 -28  -2  24 10036.6 1102.37   5
 -28  -2  23 137.658 279.945   5
  28   2 -23 247.729 381.659   3
  28  -2 -23-172.927 172.805   3
 -28  -2  22 2831.47 618.948   5
  28   2 -22 2649.56 570.697   3
  28  -2 -22 3325.74 518.588   3
 -28  -2  21 38.7942 294.925   5
  28  -2 -21 44.8097 215.970   3
  28   2 -20 5749.54 818.867   3
  28  -2 -20 4573.29 602.598   3
 -28  -2  20 5443.42 844.362   5
  28  -2 -19 62.3176 262.560   3
 -28  -2  19 228.321 314.994   5
  28   2 -19 479.571 466.901   3
  28  -2 -18 2783.37 461.274   3
 -28  -2  18 2647.55 569.404   5
  28   2 -18 1866.12 457.516   3
 -28   2  18 2257.44 408.927   2
 -28  -2  17 141.868 296.818   5
 -28   2  17 360.961 234.444   2
  28   2 -17 508.521 522.884   3
 -28   2  16 12232.9 987.934   2
  28   2 -16 9375.93 1025.52   3
 -28  -2  16 10595.3 1138.02   5
 -28  -2  15-183.024 251.386   5
 -28   2  15 274.697 197.599   2
  28   2 -14 1455.31 421.781   3
 -28  -2  14 830.724 356.365   5
 -28   2  14 1263.12 332.786   2
  28   2 -13 714.908 385.230   3
 -28  -2  13 586.876 394.951   5
 -28   2  13 264.552 262.385   2
 -28  -2  12 7107.26 905.703   5
 -28   2  12 7254.13 784.323   2
 -28  -2  11-104.712 152.204   5
 -28   2  11 297.366 212.486   2
 -28  -2  10-72.3628 239.993   5
 -28   2  10 390.315 231.820   2
 -28  -2   9 1467.01 550.042   5
 -28   2   9 1448.37 472.608   2
 -28  -2   8 15862.6 1254.46   5
 -28   2   8 16357.8 1241.08   2
 -28  -2   7 1084.59 505.000   5
 -28   2   7 733.017 402.105   2
 -28  -2   6 1048.32 344.048   5
 -28   2   6 385.839 215.929   2
 -28  -2   5 181.714 317.132   5
 -28   2   5 61.4152 169.896   2
 -28  -2   4 3370.65 565.091   5
 -28   2   4 2661.08 508.107   2
 -28  -2   3-86.5210 177.795   5
 -28   2   3-222.128 308.677   2
 -28  -2   2 1764.92 420.923   5
 -28   2   2 1036.00 332.868   2
 -28   2   1 503.927 355.543   2
 -28   2   0 10134.1 1106.65   2
 -28   2  -1 489.335 384.803   2
 -28   2  -2 4945.60 803.073   2
 -28   2  -3 301.722 208.754   2
 -28   2  -4 1571.52 519.108   2
 -28   2  -5 348.457 230.472   2
 -28  -2  -6 5203.19 620.573   4
 -28   2  -6 5622.33 940.145   2
 -28  -2  -7 170.143 174.746   4
 -28   2  -7 287.354 278.074   2
 -28  -2  -8 5003.17 620.740   4
 -28   2  -8 4315.94 820.416   2
 -28  -2  -9 196.402 176.549   4
 -28   2  -9 409.089 336.046   2
 -28  -2 -10 3390.85 525.295   4
 -28   2 -10 4016.11 804.389   2
 -28  -2 -11-305.787 186.764   4
  28   4 -29 188.792 170.046   3
 -28  -4  29 496.092 347.590   5
  28   4 -28 302.221 234.816   3
 -28  -4  28 588.637 341.650   5
  28   4 -27-316.860 238.694   3
 -28  -4  27 515.816 336.684   5
 -28  -4  26 4657.25 883.546   5
  28   4 -26 4279.74 801.527   3
 -28  -4  25 55.9691 248.082   5
  28   4 -25 336.618 374.379   3
 -28  -4  24 4387.81 863.345   5
  28   4 -24 4680.79 794.080   3
 -28  -4  23-281.355 242.170   5
  28   4 -23 70.2454 286.928   3
 -28  -4  22 2411.24 662.300   5
  28   4 -22 2284.61 531.897   3
 -28  -4  21 205.697 369.943   5
  28   4 -21 516.193 419.120   3
 -28  -4  20 3096.14 737.006   5
  28   4 -20 3070.98 638.694   3
 -28  -4  19 416.193 370.636   5
 -28  -4  19 313.596 175.168   1
  28   4 -19-246.333 211.582   3
 -28  -4  18 1447.76 374.942   1
 -28  -4  18 1184.05 471.197   5
  28   4 -18 1559.39 455.973   3
 -28  -4  17 435.814 293.580   1
 -28  -4  17 566.583 557.577   5
 -28  -4  16 11976.6 1043.07   1
  28   4 -16 11739.1 1195.47   3
 -28  -4  16 11720.9 1354.83   5
  28   4 -15 1810.14 674.051   3
 -28  -4  15 957.235 537.235   5
 -28  -4  15 389.500 269.262   1
  28   4 -14 1075.04 397.650   3
 -28  -4  14 541.429 322.835   5
 -28  -4  14 911.202 330.965   1
  28   4 -13 506.634 636.907   3
 -28  -4  13 390.993 491.455   5
 -28  -4  13 468.521 290.854   1
 -28  -4  12 6166.72 952.749   5
 -28  -4  12 6328.31 794.364   1
 -28  -4  11-132.257 201.010   5
 -28  -4  11 395.687 314.874   1
 -28  -4  10-358.702 302.652   5
 -28  -4  10 98.4660 209.248   1
 -28  -4   9 1805.29 759.165   5
 -28  -4   9 686.141 371.510   1
 -28  -4   8 13622.2 1335.67   5
 -28  -4   8 12638.9 1160.72   1
 -28  -4   7 598.670 282.265   1
 -28  -4   7 1259.91 513.117   5
 -28  -4   6 783.522 367.712   1
 -28  -4   6 944.524 390.580   5
 -28   4   6 136.578 202.799   2
 -28  -4   5 359.057 340.021   1
 -28  -4   5 801.835 463.248   5
 -28   4   5 670.779 348.870   2
 -28  -4   4 4057.57 695.822   1
 -28  -4   4 3573.09 711.256   5
 -28   4   4 4039.85 725.351   2
 -28  -4   3 602.796 318.877   1
 -28  -4   3 417.150 343.943   5
 -28   4   3 418.010 245.641   2
 -28  -4   2 875.286 387.970   5
 -28  -4   2 1610.56 465.776   1
 -28   4   2 1023.21 309.152   2
 -28  -4   1 1197.37 500.270   5
 -28  -4   1 596.889 405.284   1
 -28   4   1 122.835 222.365   2
 -28  -4   0 7597.48 985.027   5
 -28   4   0 8297.67 1070.58   2
 -28  -4   0 8098.11 1062.11   1
 -28  -4  -1 374.932 350.500   1
 -28   4  -1 278.786 305.396   2
 -28   4  -2 2520.36 624.269   2
 -28  -4  -2 1791.71 568.627   1
 -28  -4  -3 346.838 253.565   1
 -28   4  -3 299.766 230.775   2
 -28  -4  -4 846.754 378.320   1
 -28   4  -4 1263.60 440.649   2
 -28  -4  -5 139.108 252.021   1
 -28   4  -5 467.395 313.226   2
 -28  -4  -6 2561.91 674.183   1
 -28   4  -6 4032.74 803.889   2
 -28   4  -7 313.488 285.224   2
 -28  -4  -8 4073.37 626.510   4
 -28  -4  -9 195.825 218.575   4
 -28  -4 -10 6143.12 782.415   4
 -28  -6  23-220.088 374.187   5
 -28  -6  22 2274.80 669.397   5
 -28  -6  21-36.3574 300.771   5
  28   6 -21 601.692 407.597   3
 -28  -6  20 1674.19 632.828   5
  28   6 -20 1510.23 512.703   3
 -28  -6  19 575.436 449.736   5
  28   6 -19 893.198 451.935   3
  28   6 -18 822.059 365.784   3
 -28  -6  18 1119.72 344.702   1
 -28  -6  18 772.596 467.109   5
 -28  -6  17 567.776 316.708   1
 -28  -6  17 277.919 566.536   5
 -28  -6  16 9706.17 1019.19   1
  28   6 -16 8812.07 1093.27   3
 -28  -6  16 9833.74 1376.64   5
 -28  -6  15 617.216 363.383   1
  28   6 -15 2148.14 684.574   3
 -28  -6  15 1314.63 750.418   5
 -28  -6  14 619.442 288.762   1
 -28  -6  14 399.973 376.319   5
 -28  -6  13 841.538 351.379   1
 -28  -6  13 1870.14 848.616   5
 -28  -6  12 6263.48 1113.05   5
 -28  -6  12 4520.39 722.126   1
 -28  -6  11 179.058 233.111   1
 -28  -6  11 928.699 667.961   5
 -28  -6  10-25.6754 156.070   1
 -28  -6  10-430.556 406.865   5
 -28  -6   9 1786.78 559.503   1
 -28  -6   9 2614.90 1022.56   5
 -28  -6   8 12740.0 1497.56   5
 -28  -6   8 10832.5 1149.76   1
 -28  -6   7 925.307 396.172   1
 -28  -6   7 3126.60 920.359   5
 -28  -6   6 474.580 273.750   1
 -28  -6   6-196.359 293.023   5
 -28  -6   5-19.5800 311.076   5
 -28  -6   5 458.542 307.771   1
 -28  -6   4 3532.46 807.288   5
 -28  -6   4 3626.14 721.271   1
 -28  -6   3 935.046 549.384   5
 -28  -6   3 332.542 170.069   1
 -28  -6   2 1493.47 524.601   5
 -28  -6   2 743.023 303.373   1
 -28  -6   1 663.043 516.725   5
 -28  -6   1-153.022 331.237   1
 -28  -6   0 4324.07 857.223   5
  29   1 -35 7000.04 825.219   4
  29   1 -34 53.3862 157.536   4
  29   1 -33 338.058 163.484   4
  29  -1 -30-255.621 231.680   3
  29   1 -29 3036.40 645.490   3
  29  -1 -29 2637.51 535.057   3
  29   1 -28-15.4974 212.059   3
  29  -1 -28 134.423 198.791   3
  29   1 -27 4259.10 728.093   3
  29  -1 -27 3652.66 622.061   3
  29   1 -26 157.817 200.028   3
  29  -1 -26 195.326 230.917   3
  29   1 -25 1435.39 427.996   3
  29  -1 -25 1189.50 357.394   3
  29   1 -24-260.089 239.238   3
  29  -1 -24-117.077 147.705   3
  29   1 -23 3324.90 618.949   3
  29  -1 -23 3663.21 609.097   3
  29   1 -22 377.928 411.539   3
  29  -1 -22 416.510 356.064   3
  29   1 -21 8759.90 1001.92   3
  29  -1 -21 8215.56 881.394   3
 -29  -1  21 8515.44 925.395   5
 -29  -1  20-76.0650 252.149   5
  29   1 -20 494.043 483.380   3
  29  -1 -20 126.127 381.372   3
 -29  -1  19 3431.38 613.551   5
 -29   1  19 2976.81 459.341   2
  29   1 -19 2985.04 605.198   3
  29  -1 -19 2785.60 508.733   3
  29  -1 -18 123.984 348.024   3
 -29  -1  18 9.11716 216.063   5
 -29   1  18 329.999 202.981   2
  29   1 -18 312.087 482.523   3
  29  -1 -17 3953.03 576.797   3
 -29  -1  17 3675.39 638.341   5
 -29   1  17 4579.58 570.130   2
  29   1 -17 3769.46 641.125   3
  29   1 -16 13.3576 342.801   3
 -29  -1  16 294.206 256.984   5
 -29   1  16 110.570 146.110   2
  29   1 -15 973.982 361.249   3
 -29  -1  15 540.026 246.623   5
 -29   1  15 940.741 266.692   2
  29   1 -14 1109.71 489.626   3
 -29  -1  14 1093.42 473.385   5
 -29   1  14 1532.71 430.970   2
 -29   1  13 13690.1 1057.64   2
 -29  -1  13 13845.6 1171.40   5
 -29  -1  12 922.907 466.589   5
 -29   1  12 456.862 270.880   2
 -29  -1  11 96.8301 152.781   5
 -29   1  11 11.7945 161.755   2
 -29  -1  10 248.976 226.949   5
 -29   1  10 645.655 307.842   2
 -29  -1   9 6778.16 782.806   5
 -29   1   9 5444.83 711.721   2
 -29  -1   8 185.906 296.749   5
 -29   1   8 316.777 271.574   2
 -29  -1   7 268.238 161.363   5
 -29   1   7 365.359 237.828   2
 -29  -1   6 945.633 394.150   5
 -29   1   6 1435.43 472.051   2
 -29   1   5 11875.5 1099.76   2
 -29  -1   5 11248.7 967.550   5
 -29  -1   4 735.281 356.181   5
 -29   1   4 543.567 369.955   2
 -29  -1   3 294.274 214.211   5
 -29   1   3 410.469 267.079   2
 -29   1   2 349.232 286.457   2
 -29   1   1 3742.46 684.767   2
 -29   1   0 230.816 259.888   2
 -29   1  -1 3583.22 708.819   2
 -29   1  -2 677.911 472.973   2
 -29   1  -3 11575.7 1230.83   2
 -29   1  -4 398.681 347.758   2
 -29   1  -5 3114.13 682.265   2
 -29   1  -6 110.617 265.513   2
 -29   1  -7 1247.06 472.059   2
 -29   1  -8-81.4771 212.951   2
 -29   1  -9 3371.60 721.122   2
  29   3 -30-209.663 280.001   3
  29   3 -29 1850.58 490.947   3
  29   3 -28-36.8744 244.533   3
  29   3 -27 4279.81 762.646   3
 -29  -3  27 5607.04 882.407   5
  29   3 -26 134.327 245.656   3
 -29  -3  26-83.6059 208.836   5
  29   3 -25 727.065 326.202   3
 -29  -3  25 1087.90 405.121   5
 -29  -3  24-159.287 259.963   5
  29   3 -24 375.029 323.096   3
 -29  -3  23 5531.80 930.762   5
  29   3 -23 4558.63 758.297   3
 -29  -3  22 82.3133 414.648   5
  29   3 -22 2401.49 647.083   3
  29   3 -21 13057.4 1282.48   3
 -29  -3  21 12430.0 1377.86   5
 -29  -3  20 67.0592 436.254   5
  29   3 -20 1615.66 717.378   3
 -29  -3  19 1166.59 466.633   5
  29   3 -19 1126.24 393.866   3
 -29  -3  18 431.121 376.772   5
 -29  -3  18 285.772 174.444   1
  29   3 -18 892.528 478.900   3
 -29  -3  17 5567.90 696.362   1
 -29  -3  17 6014.89 944.391   5
  29   3 -17 5504.74 808.992   3
  29   3 -16-9.21266 437.775   3
 -29  -3  16 88.6597 414.725   5
 -29  -3  16-180.336 193.781   1
  29   3 -15-34.2989 303.123   3
 -29  -3  15 608.471 250.603   1
 -29  -3  15 777.590 329.333   5
 -29  -3  14 623.919 506.123   5
 -29  -3  14 277.526 254.807   1
 -29  -3  13 7376.13 993.216   5
 -29   3  13 7520.38 836.784   2
 -29  -3  13 6100.43 755.727   1
 -29  -3  12 65.1310 361.320   5
 -29  -3  12 335.042 271.786   1
 -29   3  12-16.8547 173.711   2
 -29  -3  11 139.133 170.585   5
 -29  -3  11 438.965 250.112   1
 -29   3  11-122.789 219.470   2
 -29  -3  10 381.024 333.292   5
 -29  -3  10 812.163 336.045   1
 -29   3  10 130.994 167.975   2
 -29  -3   9 5860.71 837.757   5
 -29  -3   9 4385.20 690.938   1
 -29   3   9 4434.84 687.931   2
 -29  -3   8 394.544 400.963   5
 -29  -3   8-181.734 226.365   1
 -29   3   8-90.0025 241.420   2
 -29  -3   7-409.921 291.573   5
 -29   3   7-185.451 216.637   2
 -29  -3   7-39.8182 149.774   1
 -29  -3   6 1569.87 649.303   5
 -29   3   6 1327.43 492.696   2
 -29  -3   6 487.413 349.004   1
 -29  -3   5 12448.0 1206.85   5
 -29   3   5 14377.2 1295.83   2
 -29  -3   5 13214.7 1218.23   1
 -29  -3   4 647.209 284.487   1
 -29  -3   4 863.856 515.714   5
 -29   3   4 1370.57 455.586   2
 -29  -3   3 1459.77 425.311   5
 -29  -3   3 1813.40 488.758   1
 -29   3   3 1636.51 477.575   2
 -29  -3   2 975.348 441.984   5
 -29   3   2 188.120 275.918   2
 -29  -3   2 347.252 308.183   1
 -29  -3   1 4720.04 747.813   5
 -29   3   1 6500.53 930.138   2
 -29  -3   1 5968.72 868.385   1
 -29  -3   0 19.3994 251.550   1
 -29   3   0 44.5988 187.274   2
 -29   3  -1 1621.20 503.994   2
 -29  -3  -1 1052.84 353.580   1
 -29   3  -2 487.917 371.934   2
 -29   3  -3 9326.70 1168.34   2
 -29   3  -4 142.004 280.854   2
 -29   3  -5 3652.62 767.303   2
 -29   3  -6 244.790 228.117   2
 -29   3  -7 805.099 388.796   2
 -29  -3  -8 159.866 230.091   4
 -29  -3  -9 3691.51 582.365   4
 -29  -3 -10 128.286 178.681   4
 -29  -3 -11 2573.42 500.826   4
 -29  -5  27 3910.43 884.469   5
 -29  -5  26 126.512 207.976   5
 -29  -5  25 1016.75 487.149   5
 -29  -5  24 410.223 306.325   5
  29   5 -24-306.617 226.933   3
 -29  -5  23 1224.85 509.308   5
  29   5 -23 1864.16 531.518   3
 -29  -5  22 436.744 468.292   5
  29   5 -22 813.472 484.779   3
 -29  -5  21 3903.94 851.038   5
  29   5 -21 3937.18 740.811   3
 -29  -5  20-214.754 247.183   5
  29   5 -20 492.792 390.987   3
 -29  -5  19 2575.82 703.839   5
  29   5 -19 1654.97 502.127   3
 -29  -5  18-84.4154 252.522   5
 -29  -5  18 356.039 265.567   1
  29   5 -18 339.584 415.038   3
  29   5 -17 2440.83 589.666   3
 -29  -5  17 2855.06 729.781   5
 -29  -5  17 2636.71 528.001   1
  29   5 -16 343.533 406.233   3
 -29  -5  16-363.533 348.955   5
 -29  -5  16-312.554 266.216   1
  29   5 -15 1043.73 410.091   3
 -29  -5  15 776.758 454.422   5
 -29  -5  15 542.919 291.533   1
 -29  -5  14 3420.19 1009.47   5
 -29  -5  14 928.025 407.125   1
 -29  -5  13 12670.9 1498.09   5
 -29  -5  13 13089.9 1197.35   1
 -29  -5  12 2017.35 746.303   5
 -29  -5  12 1031.17 376.930   1
 -29  -5  11-336.729 249.071   5
 -29  -5  11-236.787 170.382   1
 -29  -5  10 193.790 380.908   5
 -29  -5  10 380.351 312.434   1
 -29  -5   9 6437.01 996.106   5
 -29  -5   9 6272.60 858.184   1
 -29  -5   8 524.182 422.033   5
 -29  -5   8 391.545 301.070   1
 -29  -5   7-213.225 284.577   5
 -29  -5   7-222.235 171.502   1
 -29  -5   6 1015.13 502.219   5
 -29  -5   6 889.989 393.174   1
 -29  -5   5 9257.37 1182.08   5
 -29  -5   5 8155.30 1050.38   1
 -29  -5   4 454.931 405.541   5
 -29  -5   4 224.578 254.987   1
 -29  -5   3 146.425 250.656   5
 -29  -5   3 65.3022 207.241   1
 -29  -5   2 339.351 290.721   1
 -29  -5   2 587.179 386.255   5
 -29  -5   1 4252.88 786.278   1
 -29  -5   1 4029.72 774.187   5
 -29  -5   0 105.356 250.975   1
 -29  -5   0 719.630 478.095   5
 -29  -5  -1 1986.26 564.925   5
 -29  -5  -1 3464.94 938.231   1
 -29  -5  -2 107.013 266.195   5
 -29  -5  -3 4379.37 815.547   5
 -29  -7  16 255.121 245.358   1
 -29  -7  15 284.112 217.755   1
 -29  -7  14 577.438 313.391   1
 -29  -7  13 5479.73 828.238   1
 -29  -7  12 878.786 362.703   1
 -29  -7  11 37.7593 268.082   1
  30   0 -35-458.376 226.700   4
  30   0 -34 1561.90 369.685   4
  30   0 -33 33.1825 152.824   4
  30   0 -32 7588.00 801.605   4
  30   0 -32 7847.36 997.080   3
  30   0 -31 28.6157 138.567   4
  30   0 -31-282.486 216.545   3
  30   0 -30 323.337 203.425   4
  30   0 -30-115.336 251.224   3
  30   0 -29 193.709 203.738   4
  30   0 -29-359.223 274.005   3
  30   0 -28 7103.50 906.256   3
  30   0 -27 41.3704 226.411   3
  30   0 -26 2400.20 507.424   3
  30   0 -25-86.4200 169.164   3
  30   0 -24 4439.30 716.737   3
  30   0 -23 544.056 405.266   3
  30   0 -22 743.380 327.849   3
  30   0 -21 360.854 334.656   3
  30   0 -20 3872.22 660.891   3
  30   0 -19 571.586 496.816   3
 -30   0  18 8201.07 760.102   2
  30   0 -18 9429.04 989.752   3
  30   0 -17 1117.70 517.526   3
 -30   0  17 279.231 235.408   2
  30   0 -16 2912.60 561.286   3
 -30   0  16 3524.93 524.577   2
 -30   0  15 506.817 259.515   2
 -30   0  14 4444.53 602.100   2
  30   2 -31-220.576 293.079   3
  30   2 -30-468.173 322.198   3
  30   2 -29 322.504 320.561   3
  30   2 -28 6620.70 923.975   3
  30   2 -27 447.539 349.037   3
  30   2 -26 5194.51 828.405   3
  30  -2 -26 4164.94 599.528   3
  30   2 -25 491.666 359.392   3
  30  -2 -25 132.661 222.273   3
 -30  -2  25 549.349 342.324   5
  30  -2 -24 6128.89 725.237   3
  30   2 -24 4687.62 768.177   3
 -30  -2  24 5785.24 867.712   5
 -30  -2  23 109.241 258.703   5
  30   2 -23-71.6070 329.470   3
  30  -2 -23-21.3061 161.178   3
 -30  -2  22 1034.11 393.780   5
  30   2 -22 1508.40 462.477   3
  30  -2 -22 1189.33 337.744   3
  30  -2 -21 492.734 334.318   3
 -30  -2  21 71.3735 255.356   5
  30   2 -21 602.609 394.056   3
  30   2 -20 6093.21 884.484   3
  30  -2 -20 5841.59 681.141   3
 -30  -2  20 5325.96 853.211   5
 -30  -2  19 94.6928 401.452   5
  30   2 -19 1186.82 616.046   3
 -30   2  18 8329.37 807.047   2
  30   2 -18 6073.81 863.286   3
 -30  -2  18 6057.64 884.510   5
  30   2 -17 634.690 470.769   3
 -30  -2  17 364.680 427.044   5
 -30   2  17-66.5210 184.486   2
  30   2 -16 1628.08 454.109   3
 -30  -2  16 1346.93 429.537   5
 -30   2  16 2195.26 439.890   2
 -30  -2  15 59.6084 234.121   5
 -30   2  15 257.422 172.313   2
 -30  -2  14 3578.26 657.407   5
 -30   2  14 3995.77 621.024   2
 -30  -2  13 387.444 371.772   5
 -30   2  13 498.185 433.289   2
 -30  -2  12 1002.70 369.077   5
 -30   2  12 678.429 278.651   2
 -30  -2  11 2116.19 694.160   5
 -30   2  11 1347.19 445.768   2
 -30  -2  10 12998.5 1213.19   5
 -30   2  10 14450.2 1191.67   2
 -30  -2   9 263.247 469.239   5
 -30   2   9 717.954 370.650   2
 -30  -2   8 313.334 224.761   5
 -30   2   8 724.297 365.216   2
 -30  -2   7 249.594 256.322   5
 -30   2   7 519.005 341.797   2
 -30  -2   6 4713.81 710.006   5
 -30   2   6 5413.96 764.484   2
 -30  -2   5 100.372 256.043   5
 -30   2   5 442.764 253.847   2
 -30  -2   4 425.615 242.637   5
 -30   2   4 276.743 237.743   2
 -30  -2   3 946.117 440.342   5
 -30   2   3 1265.17 483.502   2
 -30  -2   2 14168.7 1200.10   5
 -30   2   2 15126.7 1367.72   2
 -30  -2   1 297.858 265.807   5
 -30   2   1 671.007 391.600   2
 -30   2   0 1109.68 451.647   2
 -30   2  -1 189.001 199.862   2
 -30   2  -2 2646.55 638.638   2
 -30   2  -3-355.226 237.341   2
 -30   2  -4 2186.01 569.556   2
 -30   2  -5-160.350 317.011   2
 -30   2  -6 8851.08 1147.07   2
 -30  -4  29 407.965 454.131   5
 -30  -4  28 4000.33 800.811   5
 -30  -4  27 368.974 339.014   5
 -30  -4  26 2374.05 660.997   5
  30   4 -26 2802.16 615.416   3
 -30  -4  25 22.2882 268.082   5
  30   4 -25-181.221 240.230   3
 -30  -4  24 4316.29 874.187   5
  30   4 -24 4367.27 774.305   3
 -30  -4  23 252.889 291.863   5
  30   4 -23 286.252 333.183   3
 -30  -4  22 2063.27 639.638   5
  30   4 -22 1497.92 486.730   3
 -30  -4  21-108.832 274.717   5
  30   4 -21 455.926 490.181   3
 -30  -4  20 4486.58 906.687   5
  30   4 -20 4850.60 815.024   3
 -30  -4  19 431.796 365.440   5
  30   4 -19 2529.64 751.035   3
 -30  -4  18 5249.29 937.243   5
 -30  -4  18 5554.33 726.057   1
  30   4 -18 5708.34 869.319   3
  30   4 -17 703.826 557.926   3
 -30  -4  17 302.888 506.355   5
 -30  -4  17 180.429 221.893   1
  30   4 -16 1744.14 517.166   3
 -30  -4  16 1722.66 552.908   5
 -30  -4  16 1681.90 420.286   1
  30   4 -15 1088.46 579.362   3
 -30  -4  15 313.592 387.044   5
 -30  -4  15 723.506 308.281   1
 -30  -4  14 2720.45 649.493   5
 -30  -4  14 2965.37 581.469   1
 -30  -4  13-37.3609 223.108   5
 -30  -4  13 41.2478 166.273   1
 -30  -4  12 1159.97 468.515   5
 -30  -4  12 1030.98 366.975   1
 -30  -4  11 656.592 537.129   5
 -30  -4  11 868.719 406.880   1
 -30  -4  10 11418.9 1291.21   5
 -30  -4  10 11757.1 1150.57   1
 -30  -4   9 651.048 494.061   5
 -30  -4   9 703.110 344.337   1
 -30  -4   8 75.9378 181.530   5
 -30  -4   8 37.0894 177.680   1
 -30  -4   7 961.108 619.266   5
 -30  -4   7 694.786 345.487   1
 -30  -4   6 5668.27 914.949   5
 -30  -4   6 5472.92 815.322   1
 -30   4   6 6956.16 949.413   2
 -30  -4   5 432.913 396.762   5
 -30  -4   5-101.693 208.764   1
 -30   4   5 124.555 282.206   2
 -30  -4   4 552.669 309.550   5
 -30   4   4 339.603 265.021   2
 -30  -4   4 401.883 283.180   1
 -30  -4   3 756.015 413.909   1
 -30  -4   3 936.298 545.058   5
 -30   4   3 1720.16 574.353   2
 -30  -4   2 8450.51 1080.93   5
 -30   4   2 10095.5 1179.60   2
 -30  -4   2 9227.56 1138.67   1
 -30  -4   1 739.015 417.015   5
 -30  -4   1-27.2016 170.109   1
 -30   4   1 693.922 375.014   2
 -30  -4   0 801.257 408.001   5
 -30  -4   0 637.125 388.778   1
 -30   4   0 833.798 379.528   2
 -30   4  -1-232.337 309.049   2
 -30  -4  -1-223.847 300.468   1
 -30  -4  -2 3994.22 768.281   5
 -30  -4  -2 3129.43 661.628   1
 -30   4  -2 3617.40 872.944   2
 -30  -6  18 3718.53 892.068   5
 -30  -6  17-300.858 352.102   5
 -30  -6  16 2030.88 597.698   5
 -30  -6  16 1390.80 413.472   1
 -30  -6  15 375.727 535.038   5
 -30  -6  15 414.894 275.313   1
 -30  -6  14 2858.66 811.959   5
 -30  -6  14 3161.97 616.078   1
 -30  -6  13 1018.80 600.502   5
 -30  -6  13 93.2085 192.683   1
 -30  -6  12 1064.33 604.761   5
 -30  -6  12 401.502 238.455   1
 -30  -6  11 4001.70 1146.18   5
 -30  -6  11 283.830 261.990   1
 -30  -6  10 9578.69 1339.95   5
 -30  -6  10 8227.84 1044.06   1
 -30  -6   9 2693.73 886.584   5
 -30  -6   9 883.513 335.534   1
 -30  -6   8-33.4084 265.126   5
 -30  -6   8 90.3426 176.899   1
 -30  -6   7 1116.53 527.826   5
 -30  -6   7-198.742 328.699   1
 -30  -6   6 4358.42 772.272   1
  31   1 -34-2.40682 147.748   4
  31   1 -33 6316.94 756.512   4
  31  -1 -33 4803.33 737.543   3
  31   1 -32-68.8798 192.895   3
  31  -1 -32-209.104 162.318   3
  31   1 -31 38.7181 169.540   3
  31  -1 -31 17.8928 148.750   3
  31   1 -30-135.466 266.291   3
  31  -1 -30 138.168 190.977   3
  31   1 -29 5837.39 883.307   3
  31  -1 -29 4270.76 684.494   3
  31   1 -28 221.777 274.200   3
  31  -1 -28-287.929 226.548   3
  31   1 -27-154.924 258.550   3
  31  -1 -27-385.140 218.561   3
  31   1 -26 126.094 248.362   3
  31  -1 -26 78.5348 212.504   3
  31   1 -25 8422.29 1023.12   3
  31  -1 -25 9314.04 972.866   3
  31   1 -24 423.556 445.272   3
  31  -1 -24 293.786 343.323   3
  31   1 -23 2406.39 570.617   3
  31  -1 -23 1714.95 417.912   3
  31   1 -22 349.532 388.323   3
  31  -1 -22 572.733 421.390   3
  31   1 -21 6056.55 873.314   3
  31  -1 -21 6023.88 791.960   3
  31  -1 -20 974.252 409.708   3
  31   1 -20 311.687 512.181   3
  31   1 -19 1515.17 443.029   3
  31  -1 -19 1493.45 382.411   3
  31   1 -18 96.7197 332.821   3
 -31   1  18 260.393 187.755   2
  31   1 -17 4453.97 747.124   3
 -31   1  17 5219.26 643.645   2
 -31   1  16 1162.66 387.161   2
 -31   1  15 12920.4 1043.31   2
 -31   1  14-89.5869 198.827   2
 -31   1  13 2110.75 450.105   2
 -31   1  12 600.460 273.616   2
 -31   1  11 3938.53 613.395   2
 -31   1  10 131.826 225.324   2
 -31   1   9 233.566 240.771   2
 -31   1   8 1826.27 546.072   2
 -31   1   7 12445.3 1163.91   2
 -31   1   6 264.765 279.327   2
 -31   1   5 268.038 307.413   2
 -31   1   4 1521.56 614.143   2
 -31   1   3 6132.97 859.287   2
 -31  -1   2 222.935 258.093   5
 -31   1   2 667.763 356.944   2
 -31  -1   1 75.3324 215.793   5
 -31   1   1 164.506 281.531   2
 -31   1   0 142.932 334.354   2
 -31   1  -1 9495.21 1124.77   2
 -31   1  -2 118.562 233.066   2
 -31   1  -3 1325.70 467.015   2
 -31   1  -4 707.331 376.344   2
 -31   1  -5 3514.74 747.669   2
  31   3 -28 425.939 305.040   3
  31   3 -27-67.2678 209.287   3
 -31  -3  27-104.956 172.287   5
  31   3 -26 701.282 476.496   3
 -31  -3  26 706.746 376.114   5
  31   3 -25 7099.24 968.989   3
 -31  -3  25 7228.52 1045.40   5
 -31  -3  24 79.8259 352.637   5
  31   3 -24 386.531 468.105   3
 -31  -3  23 3715.13 775.749   5
  31   3 -23 5132.69 845.409   3
 -31  -3  22 457.734 521.873   5
  31   3 -22 1907.98 650.198   3
  31   3 -21 7915.57 1029.16   3
 -31  -3  21 7392.04 1082.43   5
 -31  -3  20 257.633 372.272   5
  31   3 -20 1387.53 651.717   3
  31   3 -19 2145.89 545.643   3
 -31  -3  19 1934.69 598.909   5
  31   3 -18 468.100 437.603   3
 -31  -3  18 315.368 401.839   5
  31   3 -17 3384.74 726.808   3
 -31  -3  17 3088.98 688.772   5
  31   3 -16 3482.38 768.894   3
 -31  -3  16 680.514 553.227   5
 -31  -3  15 5969.02 942.473   5
 -31  -3  14 307.290 407.342   5
 -31  -3  13 1872.74 523.885   5
 -31   3  13 1209.03 341.323   2
 -31  -3  12-161.094 274.286   5
 -31   3  12-67.5091 193.391   2
 -31  -3  11 997.276 384.137   5
 -31   3  11 1020.49 304.925   2
 -31  -3  10 273.221 346.420   5
 -31   3  10-88.3640 248.398   2
 -31  -3   9 1306.56 484.388   5
 -31   3   9 160.287 172.961   2
 -31  -3   8 893.548 504.783   5
 -31   3   8 1119.34 461.076   2
 -31  -3   7 11590.3 1217.49   5
 -31   3   7 12749.5 1222.03   2
 -31  -3   6 188.333 381.814   5
 -31   3   6 407.807 354.531   2
 -31  -3   5-103.067 195.907   5
 -31   3   5 26.6582 223.000   2
 -31  -3   4 650.071 485.353   5
 -31   3   4 406.034 368.888   2
 -31  -3   3 5774.70 830.741   5
 -31   3   3 6798.88 962.741   2
 -31  -3   2 25.1204 275.662   5
 -31   3   2 373.875 264.099   2
 -31  -3   1 538.017 305.265   5
 -31   3   1 230.508 226.497   2
 -31  -3   0 570.997 325.178   5
 -31   3   0 587.688 352.722   2
 -31  -3  -1 8151.88 1023.27   5
 -31   3  -1 11143.0 1287.28   2
 -31   3  -2 627.094 422.838   2
 -31   3  -3 1025.08 446.810   2
 -31  -5  25 3046.25 791.400   5
 -31  -5  24 294.225 218.361   5
 -31  -5  23 2359.41 691.890   5
 -31  -5  22 232.390 469.232   5
 -31  -5  21 4758.59 979.853   5
 -31  -5  20 841.609 480.100   5
 -31  -5  19 782.144 466.214   5
  31   5 -18 752.161 471.110   3
 -31  -5  18 253.986 368.139   5
  31   5 -17 1609.80 497.466   3
 -31  -5  17 1926.38 652.285   5
 -31  -5  16 830.090 354.858   1
 -31  -5  16 1299.93 806.464   5
 -31  -5  15 9229.05 1039.59   1
 -31  -5  15 9558.75 1334.89   5
 -31  -5  14 383.729 306.082   1
 -31  -5  14 1514.98 855.515   5
 -31  -5  13 975.514 355.278   1
 -31  -5  13 638.343 349.119   5
 -31  -5  12 1018.07 415.702   1
 -31  -5  12 393.546 459.581   5
 -31  -5  11 3457.86 673.956   1
 -31  -5  11 3938.91 845.260   5
 -31  -5  10 289.014 273.631   1
 -31  -5  10-605.826 358.881   5
 -31  -5   9 482.646 325.255   1
 -31  -5   9-58.0001 342.109   5
 -31  -5   8 333.445 322.169   1
 -31  -5   8 1174.52 604.757   5
 -31  -5   7 4831.66 904.557   5
 -31  -5   7 5864.47 898.075   1
 -31  -5   6 415.877 552.660   5
 -31  -5   6 831.398 425.340   1
 -31  -5   5-104.356 186.111   5
 -31  -5   5 624.713 358.961   1
 -31  -5   4 454.114 363.871   5
 -31  -5   4 367.027 349.818   1
 -31  -5   3 3182.05 717.277   5
 -31  -5   2 337.189 479.125   5
 -31  -5   1 836.034 450.783   5
  32   0 -32-71.7016 139.334   3
  32   0 -31-331.828 241.038   3
  32   0 -30 5693.52 826.314   3
  32   0 -29 103.946 174.923   3
  32   0 -28 783.165 370.263   3
  32   0 -27 161.806 273.682   3
  32   0 -26 5355.22 808.424   3
  32   0 -25 284.245 319.478   3
  32   0 -24-396.466 283.997   3
  32   0 -23 47.5176 160.319   3
  32   0 -22 3602.63 643.155   3
  32   0 -21 431.341 502.585   3
  32   0 -20 7310.15 908.465   3
  32   0 -19 808.421 521.973   3
 -32   0  17 287.903 185.538   2
 -32   0  16 2091.25 432.841   2
 -32   0  15 317.914 235.418   2
 -32   0  14 4441.76 642.019   2
 -32   0  13 1422.62 450.050   2
 -32   0  12 13691.4 1126.76   2
 -32   0  11 471.924 313.355   2
  32   2 -29 440.355 348.282   3
  32   2 -28 3595.04 706.237   3
  32   2 -27 145.164 411.267   3
  32   2 -26 6342.69 929.511   3
  32   2 -25 395.404 360.702   3
  32   2 -24 552.552 385.605   3
  32   2 -23 92.0372 345.016   3
  32   2 -22 4738.12 804.290   3
  32   2 -21 965.234 580.889   3
  32   2 -20 5011.93 821.967   3
  32   2 -19 547.289 552.673   3
  32   2 -18 3287.42 664.761   3
  32   2 -17 517.763 577.331   3
 -32   2  17 173.922 215.654   2
 -32   2  16 2997.65 531.001   2
 -32   2  15 840.456 303.903   2
 -32   2  14 2329.30 482.008   2
 -32  -2  13 891.629 582.296   5
 -32   2  13 957.057 366.480   2
 -32  -2  12 9640.65 1110.61   5
 -32   2  12 9977.34 1030.65   2
 -32  -2  11 955.131 497.359   5
 -32   2  11 875.229 387.550   2
 -32  -2  10 313.597 263.256   5
 -32   2  10 808.973 322.011   2
 -32  -2   9 306.659 299.800   5
 -32   2   9 305.478 220.253   2
 -32  -2   8 1960.83 483.034   5
 -32   2   8 1901.04 470.009   2
 -32  -2   7-222.646 178.098   5
 -32   2   7 416.014 266.356   2
 -32  -2   6 811.953 374.746   5
 -32   2   6 974.909 364.034   2
 -32  -2   5 1284.45 498.696   5
 -32   2   5 1198.35 464.813   2
 -32  -2   4 10311.2 1095.13   5
 -32   2   4 10899.3 1169.71   2
 -32  -2   3 584.988 356.274   5
 -32   2   3 20.7590 217.282   2
 -32  -2   2 416.504 312.784   5
 -32   2   2-126.306 267.704   2
 -32  -2   1 433.329 236.002   5
 -32   2   1 91.5845 213.989   2
 -32  -2   0 5347.83 778.333   5
 -32   2   0 5482.09 912.398   2
 -32   2  -1 281.334 289.671   2
 -32   2  -2 625.646 274.814   2
 -32  -4  27 304.556 367.610   5
 -32  -4  26 4874.22 927.231   5
 -32  -4  25 331.137 349.629   5
 -32  -4  24-590.607 362.883   5
 -32  -4  23 726.397 442.123   5
 -32  -4  22 2790.43 699.245   5
  32   4 -22 3094.48 704.298   3
 -32  -4  21 524.700 469.459   5
  32   4 -21 1609.89 603.036   3
  32   4 -20 4825.63 846.812   3
 -32  -4  20 4689.73 941.616   5
  32   4 -19 1910.28 695.290   3
 -32  -4  19 464.732 501.712   5
  32   4 -18 2942.28 644.364   3
 -32  -4  18 2145.07 638.497   5
  32   4 -17 1037.98 587.579   3
 -32  -4  17 826.620 511.444   5
 -32  -4  16 1950.52 463.509   1
 -32  -4  16 1646.37 526.844   5
 -32  -4  15 582.419 413.123   5
 -32  -4  15 360.204 261.254   1
 -32  -4  14 2987.57 729.572   5
 -32  -4  14 3346.27 645.178   1
 -32  -4  13 992.571 551.692   5
 -32  -4  13 616.532 312.801   1
 -32  -4  12 8052.90 1154.54   5
 -32  -4  12 7285.18 927.313   1
 -32  -4  11 1098.79 583.249   5
 -32  -4  11-8.92671 156.125   1
 -32  -4  10 332.299 255.967   5
 -32  -4  10 1005.06 380.455   1
 -32  -4   9 517.021 437.546   5
 -32  -4   9 315.274 256.888   1
 -32  -4   8 2488.81 666.959   5
 -32  -4   8 2082.31 541.378   1
 -32  -4   7 553.498 441.581   5
 -32  -4   7 220.659 154.510   1
 -32  -4   6-58.1695 200.563   1
 -32  -4   6 466.656 297.764   5
 -32   4   6 667.513 294.201   2
 -32  -4   5 2120.87 771.845   5
 -32  -4   5 1121.06 528.737   1
 -32   4   5 1435.57 522.501   2
 -32  -4   4 8153.47 1113.44   5
 -32  -4   4 7778.57 1047.59   1
 -32   4   4 8118.50 1063.86   2
 -32  -4   3 376.948 377.774   5
 -32   4   3 426.774 254.063   2
 -32  -4   3 395.749 319.145   1
 -32  -4   2 85.7810 238.469   5
 -32  -4   2 64.3223 251.623   1
 -32   4   2 411.868 294.299   2
 -32  -4   1 140.161 254.753   5
 -32  -4   0 3028.72 670.828   5
 -32  -4  -1 392.467 281.216   5
 -32  -6  14 2755.08 615.208   1
 -32  -6  13 214.355 318.978   1
  33   1 -29 119.572 164.095   3
  33  -1 -29 448.982 275.475   3
  33   1 -28 35.1452 222.219   3
  33  -1 -28 214.587 268.810   3
  33   1 -27 5956.75 955.750   3
  33  -1 -27 3967.18 643.536   3
  33   1 -26 683.014 416.359   3
  33  -1 -26-28.3734 174.118   3
  33   1 -25 2542.43 602.378   3
  33  -1 -25 2469.02 503.047   3
  33  -1 -24 278.192 279.491   3
  33   1 -24 269.738 421.164   3
  33   1 -23 6872.68 923.499   3
  33  -1 -23 6689.28 824.559   3
  33  -1 -22 640.432 424.210   3
  33   1 -22 743.929 510.086   3
  33   1 -21 569.757 360.403   3
  33   1 -20 860.689 478.279   3
  33   1 -19 4227.68 756.641   3
 -33   1  16 479.541 262.211   2
 -33   1  15 4059.00 627.404   2
 -33   1  14 99.9758 220.802   2
 -33   1  13 3161.03 572.536   2
 -33   1  12-4.52430 150.205   2
 -33   1  11 2225.30 483.269   2
 -33   1  10 838.394 409.836   2
 -33   1   9 10456.2 1065.75   2
 -33   1   8-58.5329 190.897   2
 -33   1   7 34.3709 189.731   2
 -33   1   6 371.072 328.981   2
 -33   1   5 1848.50 497.137   2
 -33   1   4-363.567 278.168   2
 -33   1   3-168.492 297.980   2
 -33   1   2 438.628 335.734   2
 -33   1   1 7632.18 1026.43   2
 -33   1   0 268.529 303.827   2
 -33   1  -1 588.878 372.082   2
  33   3 -24 812.369 482.682   3
  33   3 -23 5728.84 914.114   3
  33   3 -22 1131.33 534.750   3
  33   3 -21 707.848 408.231   3
  33   3 -20 296.545 553.833   3
  33   3 -19 4125.83 768.969   3
  33   3 -18 1256.13 657.902   3
 -33  -3  17 3286.99 741.597   5
 -33  -3  16 184.017 426.357   5
 -33  -3  15 2061.65 560.782   5
 -33  -3  14 221.724 361.176   5
 -33  -3  13 2049.13 634.882   5
 -33   3  13 1737.14 427.226   2
 -33  -3  12 519.347 438.308   5
 -33   3  12-223.535 239.227   2
 -33  -3  11 930.810 429.162   5
 -33   3  11 1106.66 357.752   2
 -33  -3  10 1081.57 701.572   5
 -33   3  10 1220.07 446.523   2
 -33  -3   9 12113.2 1294.07   5
 -33   3   9 12121.3 1215.84   2
 -33  -3   8 1231.66 697.726   5
 -33   3   8 572.072 332.890   2
 -33  -3   7 715.159 315.167   5
 -33   3   7 661.387 399.650   2
 -33  -3   6-58.7393 150.526   5
 -33   3   6 930.797 513.367   2
 -33  -3   5 3336.20 683.739   5
 -33   3   5 2659.44 623.362   2
 -33  -3   4 261.091 315.158   5
 -33   3   4 678.980 331.114   2
 -33  -3   3 542.268 286.403   5
 -33   3   3 117.448 257.962   2
 -33  -3   2 1037.40 497.753   5
 -33   3   2 285.927 295.191   2
 -33  -3   1 7060.74 962.931   5
 -33  -3   0 219.456 335.295   5
 -33  -3  -1 6.08930 278.000   5
 -33  -3  -2-290.140 251.949   5
 -33  -5  20 123.462 425.974   5
 -33  -5  19 3373.09 820.536   5
 -33  -5  18 1226.39 678.532   5
 -33  -5  17 6333.50 1092.70   5
 -33  -5  16 284.294 445.922   5
 -33  -5  15 3238.13 809.141   5
 -33  -5  15 2597.19 598.900   1
 -33  -5  14 747.056 635.689   5
 -33  -5  14 706.974 332.620   1
 -33  -5  13 2166.67 664.727   5
 -33  -5  13 2503.78 560.724   1
 -33  -5  12 567.797 560.085   5
 -33  -5  12 373.243 295.768   1
 -33  -5  11 2932.51 765.875   5
 -33  -5  11 1895.10 539.376   1
 -33  -5  10 717.455 540.593   5
 -33  -5  10 1248.29 492.474   1
 -33  -5   9 6257.42 1060.23   5
 -33  -5   9 6841.47 969.644   1
 -33  -5   8 617.861 484.752   5
  34   0 -30 322.930 202.396   3
  34   0 -29-52.3268 161.405   3
  34   0 -28 2895.39 617.048   3
  34   0 -27-583.327 280.822   3
  34   0 -26 457.523 247.589   3
  34   0 -25 12.1186 276.700   3
  34   0 -24 5448.95 815.142   3
  34   0 -23 717.806 478.232   3
  34   0 -22 3457.35 652.454   3
  34   0 -21 1744.47 607.510   3
 -34   0  16 5647.82 731.586   2
 -34   0  15 321.395 232.088   2
 -34   0  14 3869.43 633.105   2
 -34   0  13 587.313 324.259   2
 -34   0  12 3197.10 576.765   2
 -34   0  11 380.604 308.186   2
 -34   0  10 2590.22 546.711   2
 -34   0   9-72.0848 218.111   2
 -34   0   8 2405.11 612.711   2
 -34   0   7 851.666 420.958   2
 -34   0   6 11233.5 1167.37   2
 -34   0   5-129.881 163.897   2
 -34   0   4 0.79594 210.475   2
 -34   0   3 322.543 260.544   2
 -34   0   2 5071.37 826.736   2
 -34   0   1 511.856 309.672   2
  34   2 -25 827.648 481.363   3
  34   2 -24 5342.41 863.164   3
  34   2 -23 632.682 436.976   3
  34   2 -22 3193.23 667.718   3
  34   2 -21 1347.03 646.757   3
  34   2 -20 6501.42 945.274   3
 -34   2  15 464.364 253.070   2
 -34   2  14 3804.91 627.221   2
 -34   2  13 49.4449 160.143   2
 -34   2  12 2639.63 556.474   2
 -34   2  11 127.696 242.424   2
 -34   2  10 1361.43 420.178   2
 -34   2   9 367.050 270.299   2
 -34   2   8 2325.40 542.000   2
 -34   2   7 1626.65 532.238   2
 -34   2   6 16444.8 1440.12   2
 -34   2   5 740.197 391.684   2
 -34   2   4 342.828 264.330   2
 -34   2   3 536.118 296.456   2
 -34   2   2 6317.34 940.469   2
 -34  -4  18-501.534 350.584   5
 -34  -4  17-308.496 254.698   5
 -34  -4  16 2014.12 611.441   5
 -34  -4  15 566.697 513.616   5
 -34  -4  14 3984.28 834.766   5
 -34  -4  13 980.123 512.965   5
 -34  -4  12 2433.78 661.125   5
 -34  -4  11 558.009 452.951   5
 -34  -4  10 2344.68 660.967   5
 -34  -4   9 189.835 364.861   5
 -34  -4   8 2411.81 667.818   5
 -34  -4   7 1639.28 767.632   5
 -34  -4   6 10305.4 1270.95   5
 -34  -4   5 805.282 570.578   5
 -34  -4   4 397.004 272.698   5
 -34  -4   3 391.594 394.449   5
  35   1 -26 308.582 320.830   3
  35   1 -25 5562.76 867.545   3
  35   1 -24 460.421 364.769   3
  35   1 -23-201.143 253.040   3
  35   1 -22 563.047 469.621   3
 -35   1  15 954.875 343.497   2
 -35   1  14 123.677 214.037   2
 -35   1  13 2506.47 553.293   2
 -35   1  12 255.179 217.572   2
 -35   1  11 4284.29 696.742   2
 -35   1  10-90.9097 159.608   2
 -35   1   9 1879.92 491.017   2
 -35   1   8 217.232 269.141   2
 -35   1   7 1858.10 477.059   2
 -35   1   6 236.338 205.076   2
 -35   1   5 795.706 385.356   2
 -35   1   4 1312.16 479.857   2
 -35   3  13 2962.54 605.206   2
 -35   3  12 629.905 327.329   2
 -35   3  11 6701.17 913.513   2
 -35   3  10 364.138 319.504   2
 -35   3   9 1152.93 394.733   2
 -35   3   8 125.296 257.898   2
 -35   3   7 2286.15 567.958   2
  36   0 -26 5760.82 835.013   3
  36   0 -25 275.367 330.286   3
  36   0 -24 300.269 211.476   3
 -36   0  14 5860.53 794.155   2
 -36   0  13 75.2465 146.070   2
 -36   0  12 2711.67 557.324   2
 -36   0  11 335.717 236.297   2
 -36   0  10 2332.90 540.016   2
 -36   0   9 1285.34 431.832   2
 -36   0   8 2468.37 522.239   2
 -36   0   7 505.112 301.925   2
 -36   0   6 1697.49 498.115   2
 -36   2  14 5236.82 762.617   2
 -36   2  13 610.171 328.523   2
 -36   2  12 1472.36 415.067   2
 -36   2  11-11.6465 211.205   2
 -36   2  10 2686.81 571.547   2
 -36   2   9 1327.98 503.830   2
 -36   2   8 8069.21 1045.03   2
 -37  -1  13 2717.43 590.560   2
 -37   1  13 2840.81 581.383   2
 -37   1  12 465.928 391.313   2
 -37   1  11 5635.34 1088.12   2
 -37   1  10 122.324 270.203   2
 -37   1   9 1707.61 449.176   2
   0   0   0    0.00    0.00   0
TITL exp_222 in C2/c
REM C2/c (#15 in standard setting)
CELL 0.71073  24.952050   7.396353  27.129121  90.0000 111.2637  90.0000
ZERR    8.00   0.001933   0.000525   0.002088   0.0000   0.0088   0.0000
LATT  7
SYMM -x, y,-z+1/2
SFAC C H N O Fe Pt
UNIT 144.00 144.00 96.00 24.00 8.00 8.00
TREF
HKLF 4
END
;
_shelx_hkl_checksum              85993
loop_
_space_group_symop_operation_xyz
'x, y, z'
'-x, y, -z+1/2'
'x+1/2, y+1/2, z'
'-x+1/2, y+1/2, -z+1/2'
'-x, -y, -z'
'x, -y, z-1/2'
'-x+1/2, -y+1/2, -z'
'x+1/2, -y+1/2, z-1/2'
loop_
_atom_site_label
_atom_site_type_symbol
_atom_site_fract_x
_atom_site_fract_y
_atom_site_fract_z
_atom_site_U_iso_or_equiv
_atom_site_adp_type
_atom_site_occupancy
_atom_site_site_symmetry_order
_atom_site_calc_flag
_atom_site_refinement_flags_posn
_atom_site_refinement_flags_adp
_atom_site_refinement_flags_occupancy
Pt1 Pt 0.36033(2) 0.74401(4) 0.63410(2) 0.00498(8) Uani 1 1 d . . .
Fe2 Fe 0.5000 1.2402(2) 0.7500 0.0045(3) Uani 1 2 d S T P
Fe1 Fe 0.2500 0.2500 0.5000 0.0052(3) Uani 1 2 d S . P
N7 N 0.1135(2) 0.2196(9) 0.5597(2) 0.0074(13) Uani 1 1 d . . .
N12 N 0.5551(3) 1.1520(9) 0.5518(3) 0.0066(13) Uani 1 1 d . . .
C9 C 0.1021(3) 0.2840(10) 0.6901(3) 0.0109(16) Uani 1 1 d . . .
H9 H 0.1233 0.3249 0.7240 0.013 Uiso 1 1 calc R U .
C1 C 0.3080(3) 0.5582(10) 0.5873(3) 0.0055(16) Uani 1 1 d . U .
N8 N 0.0402(3) 0.1499(8) 0.5900(3) 0.0074(13) Uani 1 1 d . . .
C8 C 0.1255(3) 0.2914(9) 0.6510(3) 0.0060(15) Uani 1 1 d . . .
H8 H 0.1616 0.3411 0.6572 0.007 Uiso 1 1 calc R U .
N10 N 0.6121(2) 1.2700(9) 0.7253(2) 0.0082(12) Uani 1 1 d . U .
N3 N 0.4451(3) 1.0370(9) 0.7022(3) 0.0067(14) Uani 1 1 d . U .
C3 C 0.4130(3) 0.9310(10) 0.6773(3) 0.0052(16) Uani 1 1 d . U .
N4 N 0.4431(3) 0.4434(9) 0.7029(3) 0.0085(15) Uani 1 1 d . . .
C17 C 0.6104(3) 1.1799(10) 0.4959(3) 0.0080(15) Uani 1 1 d . . .
H17 H 0.6127 1.1616 0.4628 0.010 Uiso 1 1 calc R U .
N6 N 0.1156(3) 0.1870(8) 0.4791(2) 0.0070(13) Uani 1 1 d . U .
C18 C 0.5613(4) 1.1300(11) 0.5052(3) 0.0123(17) Uani 1 1 d . . .
H18 H 0.5311 1.0785 0.4776 0.015 Uiso 1 1 calc R U .
N1 N 0.2801(3) 0.4542(9) 0.5589(3) 0.0071(14) Uani 1 1 d . U .
C11 C 0.0170(3) 0.1507(10) 0.6279(3) 0.0104(16) Uani 1 1 d . . .
H11 H -0.0201 0.1068 0.6198 0.013 Uiso 1 1 calc R U .
C12 C 0.5422(3) 1.2187(10) 0.6500(3) 0.0067(15) Uani 1 1 d . . .
H12 H 0.5062 1.1951 0.6245 0.008 Uiso 1 1 calc R U .
C10 C 0.0469(3) 0.2154(10) 0.6787(3) 0.0097(15) Uani 1 1 d . U .
H10 H 0.0304 0.2128 0.7044 0.012 Uiso 1 1 calc R U .
C15 C 0.6511(3) 1.2812(10) 0.5853(3) 0.0099(15) Uani 1 1 d . U .
H15 H 0.6808 1.3330 0.6134 0.012 Uiso 1 1 calc R U .
C13 C 0.6337(3) 1.2725(10) 0.6880(3) 0.0070(14) Uani 1 1 d . . .
H13 H 0.6722 1.2938 0.6935 0.008 Uiso 1 1 calc R U .
C5 C 0.1669(3) 0.2567(11) 0.5611(3) 0.0071(12) Uani 1 1 d . U .
H5 H 0.1977 0.2898 0.5913 0.009 Uiso 1 1 calc R U .
C14 C 0.5998(3) 1.2239(10) 0.5906(3) 0.0062(14) Uani 1 1 d . U .
C6 C 0.0824(3) 0.1751(10) 0.5075(3) 0.0041(14) Uani 1 1 d . U .
H6 H 0.0439 0.1417 0.4944 0.005 Uiso 1 1 calc R U .
N2 N 0.2862(3) 1.0473(9) 0.5596(3) 0.0083(15) Uani 1 1 d . . .
N11 N 0.5920(2) 1.2395(9) 0.6399(2) 0.0069(11) Uani 1 1 d . . .
C7 C 0.0921(3) 0.2206(10) 0.6019(3) 0.0056(14) Uani 1 1 d . U .
N5 N 0.1694(2) 0.2398(10) 0.5142(2) 0.0106(13) Uani 1 1 d . . .
C16 C 0.6555(3) 1.2568(12) 0.5362(3) 0.0080(13) Uani 1 1 d . . .
H16 H 0.6886 1.2921 0.5305 0.010 Uiso 1 1 calc R U .
N9 N 0.5527(2) 1.2366(10) 0.7002(2) 0.0102(12) Uani 1 1 d . . .
C4 C 0.4123(4) 0.5514(11) 0.6793(3) 0.0079(16) Uani 1 1 d . U .
C2 C 0.3120(4) 0.9357(11) 0.5880(4) 0.0097(17) Uani 1 1 d . U .
O1 O 0.6948(2) 1.2451(9) 0.8264(2) 0.0099(10) Uani 1 1 d . . .
H1A H 0.662(3) 1.270(12) 0.799(3) 0.012 Uiso 1 1 d . U .
H1B H 0.681(3) 1.249(13) 0.850(3) 0.012 Uiso 1 1 d . U .
O2 O 0.7496(3) 1.5444(8) 0.8005(2) 0.0089(12) Uani 1 1 d . . .
H2A H 0.726(4) 1.470(12) 0.811(4) 0.011 Uiso 1 1 d . U .
H2B H 0.737(4) 1.638(12) 0.807(4) 0.011 Uiso 1 1 d . U .
O3 O 0.7366(3) 0.9233(8) 0.7920(3) 0.0109(13) Uani 1 1 d D . .
H3A H 0.750(4) 0.978(12) 0.776(4) 0.013 Uiso 1 1 d . U .
H3B H 0.7091(13) 0.984(6) 0.796(2) 0.013 Uiso 1 1 d D U .
loop_
_atom_site_aniso_label
_atom_site_aniso_U_11
_atom_site_aniso_U_22
_atom_site_aniso_U_33
_atom_site_aniso_U_23
_atom_site_aniso_U_13
_atom_site_aniso_U_12
Pt1 0.00625(12) 0.00356(13) 0.00407(11) -0.00071(14) 0.00061(8) 0.00018(15)
Fe2 0.0061(6) 0.0022(6) 0.0042(6) 0.000 0.0007(4) 0.000
Fe1 0.0062(6) 0.0042(6) 0.0043(6) 0.0013(7) 0.0008(4) 0.0000(7)
N7 0.008(3) 0.009(4) 0.007(3) -0.001(3) 0.005(2) -0.003(3)
N12 0.008(3) 0.007(3) 0.004(3) -0.001(2) 0.002(2) 0.002(2)
C9 0.015(4) 0.005(4) 0.011(3) -0.004(3) 0.002(3) 0.002(3)
C1 0.0055(16) 0.0055(16) 0.0055(16) -0.0001(5) 0.0021(7) 0.0001(5)
N8 0.009(3) 0.006(3) 0.006(3) 0.002(2) 0.001(2) -0.001(2)
C8 0.007(3) 0.002(4) 0.009(3) 0.000(3) 0.003(3) -0.002(3)
N10 0.0082(13) 0.0081(13) 0.0083(13) 0.0001(5) 0.0029(6) 0.0002(5)
N3 0.0068(15) 0.0066(15) 0.0067(15) -0.0002(5) 0.0024(7) 0.0002(5)
C3 0.0053(16) 0.0051(16) 0.0053(16) -0.0001(5) 0.0020(7) 0.0002(5)
N4 0.011(3) 0.004(3) 0.011(3) 0.000(3) 0.005(3) -0.004(3)
C17 0.010(4) 0.006(3) 0.007(3) 0.002(3) 0.001(3) 0.002(3)
N6 0.0069(13) 0.0070(13) 0.0069(13) -0.0002(5) 0.0023(6) 0.0001(5)
C18 0.016(4) 0.011(4) 0.006(4) -0.001(3) -0.002(3) 0.005(3)
N1 0.0070(15) 0.0071(15) 0.0072(15) -0.0001(5) 0.0026(7) 0.0001(5)
C11 0.008(4) 0.008(4) 0.016(4) 0.002(3) 0.005(3) 0.005(3)
C12 0.005(3) 0.010(4) 0.006(3) 0.001(3) 0.003(2) 0.002(3)
C10 0.0098(16) 0.0096(16) 0.0097(16) 0.0001(5) 0.0036(7) 0.0001(5)
C15 0.0100(16) 0.0098(16) 0.0099(16) 0.0000(5) 0.0036(7) -0.0001(5)
C13 0.008(3) 0.006(4) 0.006(3) -0.003(3) 0.002(2) 0.003(3)
C5 0.0070(13) 0.0070(13) 0.0072(13) 0.0000(5) 0.0024(6) 0.0001(5)
C14 0.0063(14) 0.0061(14) 0.0062(14) 0.0000(5) 0.0023(7) 0.0000(5)
C6 0.0041(14) 0.0041(14) 0.0042(14) 0.0001(5) 0.0014(7) 0.0000(5)
N2 0.007(3) 0.008(3) 0.009(3) -0.001(3) 0.001(2) -0.002(3)
N11 0.009(3) 0.007(3) 0.003(2) -0.001(3) 0.0007(19) 0.005(3)
C7 0.0057(14) 0.0056(15) 0.0056(14) 0.0001(5) 0.0022(7) 0.0001(5)
N5 0.005(3) 0.016(3) 0.008(3) -0.006(3) -0.001(2) 0.005(3)
C16 0.006(3) 0.011(4) 0.010(3) 0.005(4) 0.006(2) 0.006(4)
N9 0.007(3) 0.015(3) 0.009(3) 0.000(3) 0.003(2) -0.001(3)
C4 0.0079(17) 0.0078(17) 0.0079(17) 0.0000(5) 0.0029(7) -0.0001(5)
C2 0.0096(18) 0.0096(18) 0.0097(18) -0.0001(5) 0.0033(8) 0.0000(5)
O1 0.011(2) 0.011(3) 0.008(2) 0.001(3) 0.0028(18) -0.002(3)
O2 0.009(3) 0.008(3) 0.008(3) 0.001(2) 0.001(2) 0.002(2)
O3 0.008(3) 0.011(3) 0.015(3) -0.001(2) 0.005(2) 0.001(2)
loop_
_atom_type_symbol
_atom_type_description
_atom_type_scat_dispersion_real
_atom_type_scat_dispersion_imag
_atom_type_scat_source
C C 0.0033 0.0016 'International Tables Vol C Tables 4.2.6.8 and 6.1.1.4'
H H 0.0000 0.0000 'International Tables Vol C Tables 4.2.6.8 and 6.1.1.4'
Fe Fe 0.3463 0.8444 'International Tables Vol C Tables 4.2.6.8 and 6.1.1.4'
N N 0.0061 0.0033 'International Tables Vol C Tables 4.2.6.8 and 6.1.1.4'
O O 0.0106 0.0060 'International Tables Vol C Tables 4.2.6.8 and 6.1.1.4'
Pt Pt -1.7033 8.3905 'International Tables Vol C Tables 4.2.6.8 and 6.1.1.4'
loop_
_geom_angle_atom_site_label_1
_geom_angle_atom_site_label_2
_geom_angle_atom_site_label_3
_geom_angle
_geom_angle_site_symmetry_1
_geom_angle_site_symmetry_3
C3 Pt1 C2 89.7(3) . .
C3 Pt1 C1 177.2(3) . .
C2 Pt1 C1 89.1(3) . .
C3 Pt1 C4 89.5(3) . .
C2 Pt1 C4 177.2(4) . .
C1 Pt1 C4 91.6(3) . .
N3 Fe2 N3 90.1(4) 2_656 .
N3 Fe2 N4 89.5(2) 2_656 2_666
N3 Fe2 N4 178.5(3) . 2_666
N3 Fe2 N4 178.5(3) 2_656 1_565
N3 Fe2 N4 89.5(2) . 1_565
N4 Fe2 N4 90.9(4) 2_666 1_565
N3 Fe2 N9 88.3(3) 2_656 .
N3 Fe2 N9 90.8(3) . .
N4 Fe2 N9 87.7(3) 2_666 .
N4 Fe2 N9 93.2(3) 1_565 .
N3 Fe2 N9 90.8(3) 2_656 2_656
N3 Fe2 N9 88.3(3) . 2_656
N4 Fe2 N9 93.2(3) 2_666 2_656
N4 Fe2 N9 87.7(3) 1_565 2_656
N9 Fe2 N9 178.6(4) . 2_656
N1 Fe1 N1 180.0(3) 7_556 .
N1 Fe1 N2 89.6(2) 7_556 7_566
N1 Fe1 N2 90.4(2) . 7_566
N1 Fe1 N2 90.4(2) 7_556 1_545
N1 Fe1 N2 89.6(2) . 1_545
N2 Fe1 N2 180.0(3) 7_566 1_545
N1 Fe1 N5 89.3(3) 7_556 7_556
N1 Fe1 N5 90.7(3) . 7_556
N2 Fe1 N5 90.3(3) 7_566 7_556
N2 Fe1 N5 89.7(3) 1_545 7_556
N1 Fe1 N5 90.7(3) 7_556 .
N1 Fe1 N5 89.3(3) . .
N2 Fe1 N5 89.7(3) 7_566 .
N2 Fe1 N5 90.3(3) 1_545 .
N5 Fe1 N5 180.0 7_556 .
C5 N7 C6 105.0(6) . .
C5 N7 C7 129.0(6) . .
C6 N7 C7 126.0(6) . .
C14 N12 C18 116.3(7) . .
C8 C9 C10 120.0(7) . .
C8 C9 H9 120.0 . .
C10 C9 H9 120.0 . .
N1 C1 Pt1 176.0(8) . .
C7 N8 C11 117.7(7) . .
C9 C8 C7 116.6(7) . .
C9 C8 H8 121.7 . .
C7 C8 H8 121.7 . .
C13 N10 N9 106.5(5) . .
C3 N3 Fe2 176.1(7) . .
N3 C3 Pt1 177.8(7) . .
C4 N4 Fe2 177.7(8) . 1_545
C16 C17 C18 119.1(7) . .
C16 C17 H17 120.4 . .
C18 C17 H17 120.4 . .
C6 N6 N5 105.7(6) . .
N12 C18 C17 123.6(7) . .
N12 C18 H18 118.2 . .
C17 C18 H18 118.2 . .
C1 N1 Fe1 162.9(7) . .
N8 C11 C10 122.0(7) . .
N8 C11 H11 119.0 . .
C10 C11 H11 119.0 . .
N9 C12 N11 110.1(6) . .
N9 C12 H12 124.9 . .
N11 C12 H12 124.9 . .
C11 C10 C9 118.6(8) . .
C11 C10 H10 120.7 . .
C9 C10 H10 120.7 . .
C16 C15 C14 116.8(7) . .
C16 C15 H15 121.6 . .
C14 C15 H15 121.6 . .
N10 C13 N11 110.6(6) . .
N10 C13 H13 124.7 . .
N11 C13 H13 124.7 . .
N5 C5 N7 110.4(6) . .
N5 C5 H5 124.8 . .
N7 C5 H5 124.8 . .
N12 C14 C15 124.8(7) . .
N12 C14 N11 114.4(6) . .
C15 C14 N11 120.8(6) . .
N6 C6 N7 110.1(6) . .
N6 C6 H6 124.9 . .
N7 C6 H6 124.9 . .
C2 N2 Fe1 169.4(7) . 1_565
C13 N11 C12 105.1(6) . .
C13 N11 C14 126.6(6) . .
C12 N11 C14 128.2(6) . .
N8 C7 C8 125.0(7) . .
N8 C7 N7 114.8(6) . .
C8 C7 N7 120.1(6) . .
C5 N5 N6 108.8(6) . .
C5 N5 Fe1 122.9(4) . .
N6 N5 Fe1 127.6(5) . .
C17 C16 C15 119.4(7) . .
C17 C16 H16 120.3 . .
C15 C16 H16 120.3 . .
C12 N9 N10 107.6(6) . .
C12 N9 Fe2 135.0(5) . .
N10 N9 Fe2 117.3(4) . .
N4 C4 Pt1 176.3(8) . .
N2 C2 Pt1 175.7(8) . .
H1A O1 H1B 97(7) . .
H2A O2 H2B 96(8) . .
H3A O3 H3B 110(8) . .
loop_
_geom_bond_atom_site_label_1
_geom_bond_atom_site_label_2
_geom_bond_distance
_geom_bond_site_symmetry_2
Pt1 C3 1.974(8) .
Pt1 C2 1.983(9) .
Pt1 C1 2.000(8) .
Pt1 C4 2.015(8) .
Fe2 N3 2.127(7) 2_656
Fe2 N3 2.127(7) .
Fe2 N4 2.143(7) 2_666
Fe2 N4 2.143(7) 1_565
Fe2 N9 2.201(6) .
Fe2 N9 2.201(6) 2_656
Fe1 N1 2.128(7) 7_556
Fe1 N1 2.128(7) .
Fe1 N2 2.148(7) 7_566
Fe1 N2 2.148(7) 1_545
Fe1 N5 2.183(6) 7_556
Fe1 N5 2.183(6) .
N7 C5 1.348(8) .
N7 C6 1.384(9) .
N7 C7 1.428(9) .
N12 C14 1.335(8) .
N12 C18 1.339(10) .
C9 C8 1.384(11) .
C9 C10 1.393(10) .
C9 H9 0.9300 .
C1 N1 1.133(10) .
N8 C7 1.323(9) .
N8 C11 1.351(11) .
C8 C7 1.392(9) .
C8 H8 0.9300 .
N10 C13 1.308(9) .
N10 N9 1.411(8) .
N3 C3 1.150(10) .
N4 C4 1.132(10) .
N4 Fe2 2.143(7) 1_545
C17 C16 1.376(10) .
C17 C18 1.386(11) .
C17 H17 0.9300 .
N6 C6 1.323(9) .
N6 N5 1.391(8) .
C18 H18 0.9300 .
C11 C10 1.391(10) .
C11 H11 0.9300 .
C12 N9 1.298(9) .
C12 N11 1.376(9) .
C12 H12 0.9300 .
C10 H10 0.9300 .
C15 C16 1.387(10) .
C15 C14 1.405(10) .
C15 H15 0.9300 .
C13 N11 1.364(8) .
C13 H13 0.9300 .
C5 N5 1.301(9) .
C5 H5 0.9300 .
C14 N11 1.423(9) .
C6 H6 0.9300 .
N2 C2 1.154(10) .
N2 Fe1 2.148(7) 1_565
C16 H16 0.9300 .
O1 H1A 0.91(8) .
O1 H1B 0.83(9) .
O2 H2A 0.92(9) .
O2 H2B 0.81(9) .
O3 H3A 0.75(9) .
O3 H3B 0.8600(10) .
