#------------------------------------------------------------------------------
#$Date: 2019-11-23 11:19:58 +0200 (Sat, 23 Nov 2019) $
#$Revision: 233060 $
#$URL: file:///home/coder/svn-repositories/cod/cif/4/34/85/4348531.cif $
#------------------------------------------------------------------------------
#
# This file is available in the Crystallography Open Database (COD),
# http://www.crystallography.net/
#
# All data on this site have been placed in the public domain by the
# contributors.
#
data_4348531
loop_
_publ_author_name
'Yao, Ru-Xin'
'Cui, Xin'
'Jia, Xiao-Xia'
'Zhang, Fu-Qiang'
'Zhang, Xian-Ming'
_publ_section_title
;
 A Luminescent Zinc(II) Metal-Organic Framework (MOF) with Conjugated
 \p-Electron Ligand for High Iodine Capture and Nitro-Explosive Detection.
;
_journal_issue                   18
_journal_name_full               'Inorganic chemistry'
_journal_page_first              9270
_journal_page_last               9275
_journal_paper_doi               10.1021/acs.inorgchem.6b01312
_journal_volume                  55
_journal_year                    2016
_chemical_formula_moiety         '0.11(C230.97 H124.11 N17.98 O77.07 Zn18)'
_chemical_formula_sum            'C25.66 H13.79 N1.99 O8.57 Zn2'
_chemical_formula_weight         617.74
_space_group_crystal_system      trigonal
_space_group_IT_number           166
_space_group_name_Hall           '-R 3 2"'
_space_group_name_H-M_alt        'R -3 m :H'
_atom_sites_solution_hydrogens   mixed
_audit_creation_date             2016-07-19
_audit_creation_method
;
Olex2 1.2
(compiled 2016.02.19 svn.r3266 for OlexSys, GUI svn.r5155)
;
_cell_angle_alpha                90
_cell_angle_beta                 90
_cell_angle_gamma                120
_cell_formula_units_Z            9
_cell_length_a                   18.8317(10)
_cell_length_b                   18.8317(10)
_cell_length_c                   38.5698(13)
_cell_measurement_reflns_used    3700
_cell_measurement_temperature    293(2)
_cell_measurement_theta_max      25.1750
_cell_measurement_theta_min      2.9180
_cell_volume                     11845.6(10)
_computing_cell_refinement
;
CrysAlisPro, Agilent Technologies,
Version 1.171.37.35 (release 13-08-2014 CrysAlis171 .NET)
(compiled Aug 13 2014,18:06:01)
;
_computing_data_collection
;
CrysAlisPro, Agilent Technologies,
Version 1.171.37.35 (release 13-08-2014 CrysAlis171 .NET)
(compiled Aug 13 2014,18:06:01)
;
_computing_data_reduction
;
CrysAlisPro, Agilent Technologies,
Version 1.171.37.35 (release 13-08-2014 CrysAlis171 .NET)
(compiled Aug 13 2014,18:06:01)
;
_computing_molecular_graphics    'Olex2 (Dolomanov et al., 2009)'
_computing_publication_material  'Olex2 (Dolomanov et al., 2009)'
_computing_structure_refinement  'ShelXL (Sheldrick, 2015)'
_diffrn_ambient_temperature      293(2)
_diffrn_detector                 'CCD plate'
_diffrn_detector_area_resol_mean 16.0710
_diffrn_detector_type            Eos
_diffrn_measured_fraction_theta_full 0.998
_diffrn_measured_fraction_theta_max 0.998
_diffrn_measurement_details
;
#__ type_ start__ end____ width___ exp.time_
  1 omega  -52.00   70.00   1.0000   24.3900
omega____ theta____ kappa____ phi______ frames
    -       18.2711    0.0000 -180.0000 122

#__ type_ start__ end____ width___ exp.time_
  2 omega   -6.00   47.00   1.0000   24.3900
omega____ theta____ kappa____ phi______ frames
    -       18.2711  -77.0000  -90.0000 53

#__ type_ start__ end____ width___ exp.time_
  3 omega  -25.00   16.00   1.0000   24.3900
omega____ theta____ kappa____ phi______ frames
    -      -18.5836  -99.0000   60.0000 41

#__ type_ start__ end____ width___ exp.time_
  4 omega   -4.00   23.00   1.0000   24.3900
omega____ theta____ kappa____ phi______ frames
    -      -18.5836  -99.0000  -30.0000 27
;
_diffrn_measurement_device       'four-circle diffractometer'
_diffrn_measurement_device_type  'Xcalibur, Eos, Gemini'
_diffrn_measurement_method       '\w scans'
_diffrn_orient_matrix_UB_11      0.0411146667
_diffrn_orient_matrix_UB_12      0.0082157333
_diffrn_orient_matrix_UB_13      0.0000622333
_diffrn_orient_matrix_UB_21      -0.0141308333
_diffrn_orient_matrix_UB_22      -0.0423865667
_diffrn_orient_matrix_UB_23      0.0022296333
_diffrn_orient_matrix_UB_31      -0.0015632333
_diffrn_orient_matrix_UB_32      -0.0051617667
_diffrn_orient_matrix_UB_33      -0.0182463667
_diffrn_radiation_monochromator  graphite
_diffrn_radiation_probe          x-ray
_diffrn_radiation_type           MoK\a
_diffrn_radiation_wavelength     0.71073
_diffrn_reflns_av_R_equivalents  0.0519
_diffrn_reflns_av_unetI/netI     0.0455
_diffrn_reflns_Laue_measured_fraction_full 0.998
_diffrn_reflns_Laue_measured_fraction_max 0.998
_diffrn_reflns_limit_h_max       14
_diffrn_reflns_limit_h_min       -23
_diffrn_reflns_limit_k_max       23
_diffrn_reflns_limit_k_min       -14
_diffrn_reflns_limit_l_max       52
_diffrn_reflns_limit_l_min       -51
_diffrn_reflns_number            18212
_diffrn_reflns_point_group_measured_fraction_full 0.998
_diffrn_reflns_point_group_measured_fraction_max 0.998
_diffrn_reflns_theta_full        25.242
_diffrn_reflns_theta_max         26.364
_diffrn_reflns_theta_min         2.681
_diffrn_source                   'Enhance (Mo) X-ray Source'
_exptl_absorpt_coefficient_mu    0.938
_exptl_absorpt_correction_T_max  1.00000
_exptl_absorpt_correction_T_min  0.74545
_exptl_absorpt_correction_type   multi-scan
_exptl_absorpt_process_details
;
CrysAlisPro, Agilent Technologies,
Version 1.171.37.35 (release 13-08-2014 CrysAlis171 .NET)
(compiled Aug 13 2014,18:06:01)
Empirical absorption correction using spherical harmonics,
 implemented in SCALE3 ABSPACK scaling algorithm.
;
_exptl_crystal_colour            'clear colourless'
_exptl_crystal_density_diffrn    0.779
_exptl_crystal_description       block
_exptl_crystal_F_000             2792
_exptl_crystal_size_max          0.28
_exptl_crystal_size_mid          0.26
_exptl_crystal_size_min          0.22
_refine_diff_density_max         1.037
_refine_diff_density_min         -0.501
_refine_diff_density_rms         0.088
_refine_ls_extinction_method     none
_refine_ls_goodness_of_fit_ref   1.066
_refine_ls_hydrogen_treatment    mixed
_refine_ls_matrix_type           full
_refine_ls_number_parameters     125
_refine_ls_number_reflns         2961
_refine_ls_number_restraints     19
_refine_ls_restrained_S_all      4.238
_refine_ls_R_factor_all          0.0829
_refine_ls_R_factor_gt           0.0646
_refine_ls_shift/su_max          0.001
_refine_ls_shift/su_mean         0.000
_refine_ls_structure_factor_coef Fsqd
_refine_ls_weighting_details
'w=1/[\s^2^(Fo^2^)+(0.1264P)^2^] where P=(Fo^2^+2Fc^2^)/3'
_refine_ls_weighting_scheme      calc
_refine_ls_wR_factor_gt          0.1808
_refine_ls_wR_factor_ref         0.1939
_reflns_Friedel_coverage         0.000
_reflns_number_gt                2093
_reflns_number_total             2961
_reflns_threshold_expression     'I > 2\s(I)'
_cod_data_source_file            ic6b01312_si_002.cif
_cod_data_source_block           a
_cod_original_cell_volume        11845.6(13)
_cod_original_sg_symbol_H-M      'R -3 m'
_cod_database_code               4348531
_chemical_oxdiff_formula         'C H N O Zn'
_shelx_space_group_comment
;
The symmetry employed for this shelxl refinement is uniquely defined
by the following loop, which should always be used as a source of
symmetry information in preference to the above space-group names.
They are only intended as comments.
;
_shelx_estimated_absorpt_t_max   0.820
_shelx_estimated_absorpt_t_min   0.779
_reflns_odcompleteness_completeness 99.80
_reflns_odcompleteness_iscentric 1
_reflns_odcompleteness_theta     26.32
_olex2_refinement_description
;
1. Fixed Uiso
 At 1.2 times of:
  All C(H) groups
2. Shared sites
{N1, O13}
3. Restrained distances
 N2-N2
 2.1 with sigma of 0.01
4. Restrained planarity
 N1, C9, C9_$1, C10, C8, C8_$1
 with sigma of 0.1
 N1, C9, C10, C8
 with sigma of 0.01
5. Rigid bond restraints
 O2, C7
 with sigma for 1-2 distances of 0.001 and sigma for 1-3 distances of 0.002
 N1, C8
 with sigma for 1-2 distances of 0.001 and sigma for 1-3 distances of 0.002
6. Uiso/Uaniso restraints and constraints
Uanis(C8) \\sim Ueq: with sigma of 0.01 and sigma for terminal atoms of 0.01
Uanis(O13) \\sim Ueq: with sigma of 0.01 and sigma for terminal atoms of 0.02
Uanis(C10) = Uanis(C9)
Uanis(N1) = Uanis(O13)
7. Others
 Sof(H5)=Sof(C6B)=Sof(H6B)=1-FVAR(1)
 Sof(O13)=0.5*(1-FVAR(2))
 Sof(C6A)=Sof(H6A)=FVAR(1)
 Sof(N2)=0.25*FVAR(3)
 Sof(C10)=0.375*FVAR(3)
 Sof(N1)=Sof(C9)=Sof(H9)=Sof(C8)=Sof(H8)=0.5*FVAR(3)
8.a Ternary CH refined with riding coordinates:
 C5(H5), C6A(H6A)
8.b Aromatic/amide H refined with riding coordinates:
 C3(H3), C1(H1), C9(H9), C8(H8)
;
_shelx_res_file
;
    exp_9437.res created by SHELXL-2014/7

TITL CF solution in R-3m
CELL 0.71073 18.831744 18.831744 38.56977 90 90 120
ZERR 9 0.001024 0.001024 0.001259 0 0 0
LATT 3
SYMM -Y,+X-Y,+Z
SYMM +Y,+X,-Z
SYMM +Y-X,-X,+Z
SYMM -Y+X,-Y,-Z
SYMM -X,-X+Y,-Z
SFAC C H N O Zn
UNIT 230.9 124.1 17.94 77.09 18
EQIV $1 +X,1+X-Y,+Z
DFIX 2.1 0.01 N2 N2
FLAT N1 C9 C9_$1 C10 C8 C8_$1
FLAT 0.01 N1 C9 C10 C8
DELU 0.001 0.002 O2 C7
DELU 0.001 0.002 N1 C8
ISOR 0.01 0.01 C8
ISOR 0.01 0.02 O13
EADP C10 C9
EADP N1 O13
EXYZ N1 O13

L.S. 20
PLAN  25
SIZE 0.28 0.26 0.22
FREE C9 C9_$1
BIND O13 Zn1
FREE C8 C8_$1
BOND
MORE -1
BOND $H
CONF
fmap 2
acta
SHEL 999 0.8
REM <olex2.extras>
REM <HklSrc "%.\\exp_9437-mask.hkl">
REM </olex2.extras>

WGHT    0.126400
FVAR       4.21947   0.71855   0.66610
ZN1   5    0.614067    0.807033    0.301463    10.50000    0.03243    0.04849 =
         0.02508   -0.00035   -0.00070    0.01622
O1    4    0.555525    0.703063    0.330017    11.00000    0.07243    0.06050 =
         0.05313    0.02495    0.00514    0.01651
O2    4    0.632816    0.742153    0.377189    11.00000    0.04589    0.05634 =
         0.06477    0.01260   -0.00791   -0.00407
C7    1    0.571453    0.693361    0.360811    11.00000    0.03307    0.04749 =
         0.04584    0.01219    0.00042    0.00337
C3    1    0.528277    0.598728    0.411261    11.00000    0.05518    0.06602 =
         0.04675    0.00909   -0.01159    0.00203
AFIX  43
H3    2    0.576313    0.636385    0.422419    11.00000   -1.20000
AFIX   0
C2    1    0.513925    0.613598    0.377444    11.00000    0.05053    0.05508 =
         0.04173    0.01203   -0.00395    0.01593
C1    1    0.443440    0.556560    0.360896    10.50000    0.05318    0.05318 =
         0.04542    0.00456   -0.00456    0.01859
AFIX  43
H1    2    0.434177    0.565822    0.338091    10.50000   -1.20000
AFIX   0
C4    1    0.471732    0.528268    0.428622    10.50000    0.06247    0.06247 =
         0.03624    0.01300   -0.01300    0.00556
C5    1    0.486501    0.513499    0.465461    10.50000    0.07289    0.07289 =
         0.04438    0.01871   -0.01871    0.00527
PART 2
AFIX  13
H5    2    0.516496    0.483503    0.466923   -21.00000   -1.20000
AFIX   0
PART 0
PART 1
N1    3    0.548552    0.774276    0.257129    30.50000    0.08103    0.09364 =
         0.04084   -0.00970   -0.01941    0.04052
C9    1    0.511739    0.698193    0.203754    30.50000    0.27509    0.13169 =
         0.03114   -0.03089   -0.03751    0.11975
AFIX  43
H9    2    0.505137    0.652844    0.191420    30.50000   -1.20000
AFIX   0
N2    3    0.450961    0.725480    0.156176    30.25000    0.15063    0.09913 =
         0.03197   -0.02731   -0.05462    0.07532
C10   1    0.497609    0.748804    0.190447    30.37500    0.27509    0.13169 =
         0.03114   -0.03089   -0.03751    0.11975
C8    1    0.537646    0.710913    0.237503    30.50000    0.13175    0.11015 =
         0.09376   -0.03751   -0.04468    0.06901
AFIX  43
H8    2    0.548538    0.672525    0.247610    30.50000   -1.20000
AFIX   0
C6A   1    0.454139    0.442084    0.479405    21.00000    0.15268    0.09324 =
         0.08220    0.04203   -0.05593   -0.05020
AFIX  13
H6A   2    0.443159    0.391070    0.468004    21.00000   -1.20000
AFIX   0
PART 0
PART 2
C6B   1    0.419137    0.482839    0.489900   -21.00000    0.03808    0.05922 =
         0.03244    0.01922    0.00060    0.00977
H6B   2    0.362054    0.458620    0.502998   -21.00000   -1.20000
O13   4    0.548552    0.774276    0.257129   -20.50000    0.08103    0.09364 =
         0.04084   -0.00970   -0.01941    0.04052
HKLF 4

REM  CF solution in R-3m
REM R1 =  0.0646 for    2093 Fo > 4sig(Fo)  and  0.0829 for all    2961 data
REM    125 parameters refined using     19 restraints

END

WGHT      0.1266      0.0000

REM Highest difference peak  1.037,  deepest hole -0.501,  1-sigma level  0.088
Q1    1   0.5689  0.7845  0.2272  10.50000  0.05    1.03
Q2    1   0.4695  0.7131  0.2621  11.00000  0.05    0.75
Q3    1   0.6667  0.7513  0.4278  11.00000  0.05    0.74
Q4    1   0.4459  0.6609  0.2042  11.00000  0.05    0.58
Q5    1   0.5136  0.7568  0.2045  10.50000  0.05    0.54
Q6    1   0.6683  0.8044  0.3756  11.00000  0.05    0.53
Q7    1   0.5066  0.7533  0.2405  10.50000  0.05    0.52
Q8    1   0.5327  0.7375  0.2653  11.00000  0.05    0.43
Q9    1   0.6159  0.7038  0.3638  11.00000  0.05    0.40
Q10   1   0.6736  0.7459  0.3776  11.00000  0.05    0.34
Q11   1   0.4666  0.5941  0.4252  11.00000  0.05    0.31
Q12   1   0.5255  0.6853  0.3393  11.00000  0.05    0.31
Q13   1   0.4165  0.6414  0.2370  11.00000  0.05    0.31
Q14   1   0.5183  0.7591  0.2773  10.50000  0.05    0.31
Q15   1   0.5745  0.7643  0.3014  11.00000  0.05    0.30
Q16   1   0.6679  0.7625  0.3920  11.00000  0.05    0.29
Q17   1   0.6657  0.8329  0.3172  10.50000  0.05    0.29
Q18   1   0.6184  0.7251  0.4049  11.00000  0.05    0.27
Q19   1   0.5016  0.6408  0.3788  11.00000  0.05    0.26
Q20   1   0.5572  0.6313  0.2455  11.00000  0.05    0.26
Q21   1   0.4876  0.6630  0.2994  11.00000  0.05    0.26
Q22   1   0.4942  0.6512  0.3276  11.00000  0.05    0.25
Q23   1   0.3333  0.6667  0.1667  10.08333  0.05    0.25
Q24   1   0.4767  0.5233  0.4528  10.50000  0.05    0.24
Q25   1   0.5111  0.4889  0.4183  10.50000  0.05    0.24
;
_shelx_res_checksum              19334
_shelx_hkl_file
;
   0   0   6 177954514585.00
   0   0   9 105379818669.00
   0   0  12 208495526258.21
   0   0  15 263191727612.43
   0   0  18 526932255412.50
   0   0  2135200.46 5519.74
   0   0  24 117553325286.66
   0   0  27 190179633110.28
   0   0  30 155595132881.23
   0   0  33498319.220572.68
   0   0  36184922.912845.09
   0   0  39241478.820844.00
   0   0  42 8878.00 9885.00
   0   0  4591576.0512192.40
   0   0  48190945.816573.48
   1   0 -4712803.73 5193.56
   1   0 -4419974.54 4861.26
   1   0 -4132494.67 4553.59
   1   0 -38 5049.16 4311.82
   1   0 -35 1761.89 3744.44
   1   0 -3237820.07 3935.63
   1   0 -29278679.6 7865.06
   1   0 -26351531.5 8713.78
   1   0 -23110680.5 4966.64
   1   0 -20109240.1 5032.10
   1   0 -17907196.1 9884.48
   1   0 -14376501.9 9689.09
   1   0 -11223889.2 2492.45
   1   0  -823487.29 1756.20
   1   0  -5 1386211 6168.92
   1   0   723805.11 1646.41
   1   0  1078425.12 1447.65
   1   0  13211364.1 3582.30
   1   0  16106675.1 2945.16
   1   0  1924354.12 1740.11
   1   0  22 2620.87 2345.42
   1   0  2543056.06 3312.11
   1   0  2882522.03 4062.92
   1   0  31245260.2 7980.97
   1   0  34163092.4 8165.86
   1   0  37130858.2 8464.52
   1   0  4061300.77 5798.80
   1   0  43  137.16 5179.08
   1   0  4617686.97 4753.24
   1   1   3997033.810610.59
   1   1   639728.75 1944.47
   1   1   9145438.1 2226.87
   1   1  12352817.5 3804.73
   1   1  15412100.5 2929.15
   1   1  18232077.0 3626.98
   1   1  21 1908.66  734.77
   1   1  2434801.15 1753.56
   1   1  2783438.34 3738.03
   1   1  3049204.04 2676.18
   1   1  3318882.18 2577.01
   1   1  3611134.28 2803.95
   1   1  39 1295.00 2750.46
   1   1  42 2363.06 2980.93
   1   1  4510864.97 3550.76
   1   1  4810893.82 3789.04
   2   0 -46181036.3 9362.95
   2   0 -43110944.3 7027.90
   2   0 -40 4270.66 4149.83
   2   0 -37240576.6 8571.06
   2   0 -34361090.910220.37
   2   0 -31645630.613709.99
   2   0 -28919091.317147.73
   2   0 -25416647.011316.55
   2   0 -22 5847.09 1048.94
   2   0 -1973156.53 2593.80
   2   0 -16 302363714041.05
   2   0 -13 277392013349.02
   2   0 -10741590.8 6319.85
   2   0  -741139.64 1059.30
   2   0  -4 305324914401.35
   2   0   22770654841152.00
   2   0   5 300845031878.00
   2   0   8112243.3 3626.54
   2   0  11 179210811418.90
   2   0  14 229628719108.34
   2   0  17878541.610791.46
   2   0  20 126190813176.32
   2   0  23 3606.27 1367.18
   2   0  26552977.512959.25
   2   0  29 100922814647.17
   2   0  32640311.412751.85
   2   0  35243652.8 8146.75
   2   0  38 7912.76 3769.17
   2   0  41 9653.09 4446.28
   2   0  4495491.66 7499.33
   2   0  47108543.9 8052.31
   2   1 -4717741.71 3962.48
   2   1 -44 4354.14 3610.39
   2   1 -4131408.35 3263.38
   2   1 -3879377.19 4107.94
   2   1 -35206079.6 5862.24
   2   1 -32166536.3 5062.82
   2   1 -2927285.84 2296.68
   2   1 -2665700.05 2314.17
   2   1 -23208928.3 4563.03
   2   1 -20297264.9 3819.85
   2   1 -1731566.99 1102.94
   2   1 -14 6294.73  838.79
   2   1 -11  652.51  492.28
   2   1  -854469.23  737.92
   2   1  -5231794.0 3111.78
   2   1  -2361564.5 4280.52
   2   1   1720953.5 1916.72
   2   1   445467.64 1923.79
   2   1   753106.19 2502.08
   2   1  10493152.3 3015.52
   2   1  13628533.8 4422.21
   2   1  16363379.7 3765.36
   2   1  19 3397.31  700.25
   2   1  2224267.57 1506.74
   2   1  25140033.1 2999.84
   2   1  28297439.6 7062.86
   2   1  3116922.68 2475.02
   2   1  34  858.37 2478.28
   2   1  3745273.54 3555.56
   2   1  40159401.2 5903.60
   2   1  43100707.7 5463.94
   2   1  4627274.72 4051.51
   2   2   0 261811532546.90
   2   2   393223.35 2130.98
   2   2   637389.59  822.51
   2   2   9396449.2 3558.15
   2   2  12 1482195 6414.34
   2   2  15 1651888 7323.80
   2   2  18 1221665 9422.61
   2   2  2196777.28 2624.96
   2   2  24  531.02 1095.75
   2   2  27152318.4 4892.23
   2   2  30355185.9 8505.21
   2   2  33205880.9 6534.25
   2   2  3644071.63 3772.79
   2   2  39 1575.13 2995.45
   2   2  4253619.10 4234.36
   2   2  45102765.1 5610.08
   3   0 -45111787.6 8259.07
   3   0 -42219016.2 9289.30
   3   0 -3967647.98 6296.57
   3   0 -36  996.54 3352.67
   3   0 -33 6020.60 3540.12
   3   0 -30260751.0 8459.01
   3   0 -27612718.424916.09
   3   0 -24931889.0 9980.45
   3   0 -21527451.8 7005.91
   3   0 -18121255.4 3409.11
   3   0 -15 1316161 7123.20
   3   0 -12991875.2 6545.11
   3   0  -9520679.1 5039.26
   3   0  -6692478.0 3941.46
   3   0  -3 235092816396.88
   3   0   0 590647728768.43
   3   0   3 997727533722.39
   3   0   6 202093116897.66
   3   0   9789230.7 8325.70
   3   0  12241566.3 3792.30
   3   0  1565269.16 2690.65
   3   0  18 109865513248.99
   3   0  21 119691622602.42
   3   0  24458668.8 7500.77
   3   0  2716582.76 2956.42
   3   0  30222306.812499.62
   3   0  33342801.510502.75
   3   0  36171444.1 8030.17
   3   0  39302198.412852.66
   3   0  4273306.36 7779.63
   3   0  45 1011.82 5102.04
   3   1 -46 1810.25 3324.53
   3   1 -43 9096.68 3186.37
   3   1 -40 2092.06 2962.21
   3   1 -3713540.61 3008.61
   3   1 -34 1313.09 2803.12
   3   1 -31  370.41 1818.00
   3   1 -2849105.49 2115.94
   3   1 -2510040.00 1141.45
   3   1 -2222100.44 1016.37
   3   1 -19 5549.33  786.23
   3   1 -16429723.5 3359.54
   3   1 -13154164.6 1984.49
   3   1 -1016075.57  647.35
   3   1  -7 1294.87  714.10
   3   1  -4815930.7 7763.26
   3   1  -1 5656.45 1961.59
   3   1   2731671.1 6149.36
   3   1   5 1837.65 1361.41
   3   1   8435162.4 4907.08
   3   1  11745105.4 4861.23
   3   1  14875595.0 5196.67
   3   1  17 8493.18  911.91
   3   1  2021767.40 1332.56
   3   1  2355205.49 2458.44
   3   1  2654643.67 2466.54
   3   1  29  610.93  728.68
   3   1  32  843.51 2834.33
   3   1  35 6199.91 2871.17
   3   1  3843738.95 3761.05
   3   1  4113831.25 3135.54
   3   1  44 2090.35 3561.20
   3   1  47 2555.86 3780.97
   3   2 -4720856.33 4302.73
   3   2 -44125307.2 5980.77
   3   2 -41205002.4 6874.38
   3   2 -38136105.0 5758.41
   3   2 -3511548.86 2852.16
   3   2 -3257259.49 3664.37
   3   2 -29238995.3 4957.29
   3   2 -26 1006257 8120.28
   3   2 -23600324.1 5259.92
   3   2 -20 9809.86  835.31
   3   2 -17220747.2 2610.29
   3   2 -14557434.7 4170.98
   3   2 -11690099.2 4749.31
   3   2  -8 1284969 6375.17
   3   2  -5 1362405 7852.81
   3   2  -2441522.2 6143.24
   3   2   1571656.7 4417.19
   3   2   4452693.5 3821.37
   3   2   7758415.6 4383.75
   3   2  10465745.3 3947.24
   3   2  13198367.2 2803.86
   3   2  16430114.8 4130.21
   3   2  19933371.3 6913.28
   3   2  22 1070292 6910.55
   3   2  25609871.9 5553.99
   3   2  28 2561.58  876.11
   3   2  3182439.75 3579.19
   3   2  34125279.3 5370.55
   3   2  37399573.5 8993.21
   3   2  40189593.9 6448.73
   3   2  4313660.87 3208.89
   3   2  4635388.03 4474.58
   3   3   024697.21 2337.51
   3   3   3131730.0 2838.19
   3   3   686887.16 1454.41
   3   3   9  756.91  894.65
   3   3  12 1821.51  792.55
   3   3  15215809.4 3091.76
   3   3  18230776.4 3442.88
   3   3  21167753.1 3111.67
   3   3  2411683.31 1187.59
   3   3  2727510.33 1425.87
   3   3  3091688.64 2996.52
   3   3  3316910.99 2822.91
   3   3  3635593.21 4076.35
   3   3  39 2623.51 3194.94
   3   3  42 3054.67 3177.54
   3   3  4526106.72 4954.26
   4   0 -4764525.73 7654.16
   4   0 -4499439.75 8008.02
   4   0 -4147102.22 5561.71
   4   0 -38  700.76 5107.25
   4   0 -35185838.6 8811.18
   4   0 -32315995.510124.70
   4   0 -2995813.50 3450.00
   4   0 -26191843.5 4715.82
   4   0 -2364885.32 4140.54
   4   0 -2027489.74 1665.46
   4   0 -17502811.7 5002.57
   4   0 -14 216678612299.91
   4   0 -11933753.4 6401.04
   4   0  -8856319.3 5905.57
   4   0  -5487719.410480.21
   4   0  -225390.63 2406.02
   4   0   1137104.3 5583.34
   4   0   4 503736032330.58
   4   0   7957749.111355.45
   4   0  10388026.4 6018.27
   4   0  13 177056010804.49
   4   0  16 149857510576.15
   4   0  19645438.6 6869.98
   4   0  22767134.2 9427.23
   4   0  2538648.15 1657.32
   4   0  28165577.0 9144.36
   4   0  31244691.3 7018.16
   4   0  34101049.3 6146.67
   4   0  37 3936.30 4496.30
   4   0  4011598.88 5045.91
   4   0  4329249.64 5028.74
   4   0  4678289.75 7105.38
   4   1 -45 2091.40 3589.15
   4   1 -4216347.72 3314.69
   4   1 -3949464.37 5370.58
   4   1 -3619072.35 3090.78
   4   1 -3370598.56 4076.24
   4   1 -30 5415.59 1816.69
   4   1 -2799914.59 2777.64
   4   1 -24478782.5 7728.16
   4   1 -21370762.1 3980.50
   4   1 -18399808.0 3668.35
   4   1 -1519231.55 1062.61
   4   1 -1220629.73 1105.47
   4   1  -926699.36 1307.66
   4   1  -6108389.4 2167.09
   4   1  -3 6920.94 1060.65
   4   1   0481149.6 4583.24
   4   1   3 191747314404.77
   4   1   6646242.6 6667.94
   4   1   9531517.1 5787.57
   4   1  12 1015208 8048.14
   4   1  15228019.7 3391.16
   4   1  18 2644.50 1071.96
   4   1  2178359.71 1949.62
   4   1  24145792.1 3327.78
   4   1  2741741.56 2846.84
   4   1  3046239.50 2576.63
   4   1  33 9000.60 2825.87
   4   1  3665156.28 4576.82
   4   1  39170438.8 5904.21
   4   1  4290030.28 5181.85
   4   1  4530820.28 4110.20
   4   2 -4626646.68 5276.00
   4   2 -4329988.07 4183.69
   4   2 -4010272.67 3352.94
   4   2 -37   88.40 3461.41
   4   2 -3421849.96 3073.47
   4   2 -3111566.23 2099.53
   4   2 -28106953.7 2992.44
   4   2 -2561078.72 2354.73
   4   2 -22 5176.11 1126.78
   4   2 -1976693.25 1830.13
   4   2 -16437933.6 3823.38
   4   2 -13153450.6 2420.91
   4   2 -10508546.7 4615.48
   4   2  -7293816.7 2753.02
   4   2  -424280.74 1889.47
   4   2  -114692.60 1440.62
   4   2   2220837.3 2473.96
   4   2   563186.23 2517.25
   4   2   8121557.9 1815.52
   4   2  1155118.79 1635.74
   4   2  14354705.3 5679.95
   4   2  17254002.7 3409.20
   4   2  20476642.5 4905.60
   4   2  2370228.39 2046.66
   4   2  2610613.20 1445.51
   4   2  29 3816.57 1409.29
   4   2  3229308.91 2734.61
   4   2  3518490.27 3044.86
   4   2  38  885.50 3050.88
   4   2  41 3096.71 3390.99
   4   2  4425242.62 4347.84
   4   3 -44 4202.48 4431.65
   4   3 -4166573.59 4724.39
   4   3 -38190978.4 7167.70
   4   3 -35262892.5 7763.74
   4   3 -32 2371.99 2371.39
   4   3 -29105118.0 6270.83
   4   3 -26170890.5 3502.40
   4   3 -23653274.1 5817.11
   4   3 -20792609.5 6226.68
   4   3 -17488483.9 4896.21
   4   3 -14  870.90 1109.07
   4   3 -11783190.1 7094.20
   4   3  -8351743.3 3886.82
   4   3  -5369537.8 5535.51
   4   3  -216528.01 1498.10
   4   3   1 1570.43 1061.92
   4   3   4147390.5 3928.01
   4   3   7 1762679 9755.92
   4   3  10 300856215293.44
   4   3  13 1021546 8033.57
   4   3  1674431.81 2161.37
   4   3  19 5850.67 1335.41
   4   3  2270251.32 2087.98
   4   3  25417956.9 4760.66
   4   3  28621683.5 7344.24
   4   3  3115924.60 2445.12
   4   3  3418630.20 2935.69
   4   3  37187075.9 6695.70
   4   3  40168585.1 7527.28
   4   3  43120434.5 7332.13
   4   3  4636530.64 5373.76
   4   4   058681.74 5086.17
   4   4   314289.21 1532.99
   4   4   629895.75 2101.44
   4   4   977537.51 3547.61
   4   4  12 1307.90 1511.93
   4   4  15  744.98 1145.06
   4   4  18113615.6 2741.34
   4   4  2178752.30 2265.99
   4   4  2448547.90 1740.70
   4   4  2711530.02 1719.42
   4   4  30 8566.00 2271.27
   4   4  3318801.04 3333.04
   4   4  36 5814.15 3012.91
   4   4  39 1822.41 3991.11
   4   4  42 2412.24 4911.90
   4   4  45 2760.29 4584.25
   5   0 -4650974.55 7330.39
   5   0 -43261330.711887.43
   5   0 -40219440.712135.00
   5   0 -3710615.95 7364.00
   5   0 -3480384.17 6221.80
   5   0 -31278581.5 8092.31
   5   0 -28 103064812649.33
   5   0 -25 159991421108.51
   5   0 -22767205.012236.72
   5   0 -19248428.6 4672.19
   5   0 -1635332.10 2246.13
   5   0 -13736399.8 7534.21
   5   0 -10 1045521 8545.45
   5   0  -7 1387749 8965.39
   5   0  -4190534.5 7418.11
   5   0  -1 9839.98 1787.59
   5   0   2 235806919183.94
   5   0   5 624183535722.47
   5   0   8 388792118839.11
   5   0  11 159343813221.36
   5   0  1440319.50 1743.80
   5   0  17720074.3 8338.98
   5   0  20 191681012965.88
   5   0  23 200073816025.25
   5   0  26315004.0 8345.94
   5   0  29  766.21  974.45
   5   0  32153164.0 8543.76
   5   0  35432154.414318.19
   5   0  38378083.313514.73
   5   0  4198211.23 8466.18
   5   0  44   82.18 4874.43
   5   1 -4423786.20 4120.08
   5   1 -4121819.65 4122.64
   5   1 -38  877.36 3702.20
   5   1 -35   40.53 3655.94
   5   1 -3268275.49 6288.34
   5   1 -2970561.63 3348.80
   5   1 -26235815.8 3484.57
   5   1 -23 8176.21 1092.29
   5   1 -20 8812.09 1046.82
   5   1 -17123249.6 2317.16
   5   1 -14 3015.72  908.73
   5   1 -11 1433.89  932.10
   5   1  -861704.09 1551.77
   5   1  -5 2669.31  942.61
   5   1  -272518.38 2678.25
   5   1   121739.79 1616.20
   5   1   4106629.8 3631.35
   5   1   764279.00 2675.46
   5   1  10102156.6 2455.68
   5   1  1327198.07 1948.38
   5   1  1658372.97 2165.47
   5   1  19135918.4 4052.96
   5   1  22205015.6 3688.58
   5   1  2569000.18 2305.66
   5   1  28  115.20 1193.56
   5   1  3116462.21 2394.89
   5   1  3420361.56 3512.70
   5   1  3773797.82 4450.08
   5   1  40 6874.74 3178.79
   5   1  43 2461.39 4033.78
   5   1  4613898.99 4034.29
   5   2 -4598153.12 8834.58
   5   2 -42213952.5 8393.47
   5   2 -39151239.5 7205.86
   5   2 -3632453.77 4171.23
   5   2 -3338226.71 3600.75
   5   2 -30736773.2 9066.45
   5   2 -27927238.5 8352.09
   5   2 -24761188.5 6829.62
   5   2 -21303722.7 3834.79
   5   2 -18 2435.46 1179.58
   5   2 -15644907.3 6610.28
   5   2 -12 1575678 9238.68
   5   2  -9880463.5 6330.52
   5   2  -6518970.3 5500.65
   5   2  -3 2951.68 1147.44
   5   2   0527537.6 5737.79
   5   2   3 165636512550.83
   5   2   6 193750015056.85
   5   2   9 270599017545.91
   5   2  12619667.3 9315.29
   5   2  15184278.9 4504.54
   5   2  18 1049175 8646.35
   5   2  21 151667810330.64
   5   2  24828440.8 7416.97
   5   2  27445094.310425.30
   5   2  3013349.96 2541.66
   5   2  33303601.4 7812.68
   5   2  36497824.010106.37
   5   2  39275779.0 8540.40
   5   2  4239620.69 4741.23
   5   2  45 1305.82 3998.83
   5   3 -4376370.43 7589.49
   5   3 -40 3320.70 3977.82
   5   3 -37 2773.56 3436.02
   5   3 -3437226.84 3511.18
   5   3 -3180021.05 3567.75
   5   3 -28332195.6 5728.97
   5   3 -25185019.4 3748.17
   5   3 -2226207.20 1602.66
   5   3 -19280815.4 3859.83
   5   3 -16628488.3 6389.52
   5   3 -13869815.9 8426.53
   5   3 -10523296.3 6267.77
   5   3  -791767.37 3343.73
   5   3  -4101099.7 2880.36
   5   3  -1415722.2 6520.30
   5   3   2196193.5 2940.79
   5   3   5 9436.09 2433.27
   5   3   8300083.7 6642.98
   5   3  11296133.3 5673.10
   5   3  14400886.1 7479.03
   5   3  17497186.9 6794.49
   5   3  20285917.2 5632.77
   5   3  2316826.13 3172.17
   5   3  2623449.88 1952.31
   5   3  2925991.02 2094.89
   5   3  3219789.50 2969.03
   5   3  3545262.91 4966.84
   5   3  38 8775.62 4183.55
   5   3  4115310.47 4004.04
   5   3  4433573.64 5882.51
   5   4 -4468820.95 7123.89
   5   4 -4181048.67 7700.83
   5   4 -3858640.94 6159.67
   5   4 -3514612.94 2985.01
   5   4 -3218823.17 2582.00
   5   4 -2927811.25 2553.03
   5   4 -26232954.9 4503.89
   5   4 -23128487.1 3393.25
   5   4 -2022545.82 1988.08
   5   4 -1724868.71 3208.15
   5   4 -14281614.6 6079.09
   5   4 -11514975.1 8220.91
   5   4  -8 135033117278.90
   5   4  -5332161.4 6731.80
   5   4  -2 1219.51 1711.10
   5   4   1489523.3 6133.60
   5   4   4633350.6 6413.85
   5   4   7 160825719404.71
   5   4  10127016.3 3796.24
   5   4  1310330.95 2579.37
   5   4  16482043.6 8545.76
   5   4  19806565.611590.63
   5   4  22356714.9 5206.92
   5   4  25165530.4 3931.99
   5   4  2842217.42 2525.25
   5   4  3176586.66 3351.48
   5   4  34167757.8 6707.09
   5   4  37154204.3 7666.74
   5   4  4042370.49 6590.95
   5   4  43 5937.99 5168.96
   5   5   0 124210918430.42
   5   5   3995051.1 9824.33
   5   5   6296618.1 7069.72
   5   5   9  520.11 1117.26
   5   5  12542462.9 8705.96
   5   5  15 119110712899.85
   5   5  18539968.5 9843.31
   5   5  2164872.18 2805.27
   5   5  24  707.92 1956.28
   5   5  27106698.5 3562.67
   5   5  30439629.8 7180.99
   5   5  33354233.1 9288.80
   5   5  3663898.14 6293.73
   5   5  39 3608.58 5038.00
   5   5  4220222.12 5516.73
   6   0 -4521770.49 6454.02
   6   0 -4243712.82 7325.83
   6   0 -3919170.53 6021.33
   6   0 -36  113.34 6163.38
   6   0 -3350513.09 6773.63
   6   0 -30183795.0 7560.01
   6   0 -2745243.20 5318.90
   6   0 -24145960.2 4359.10
   6   0 -21166956.0 4789.05
   6   0 -1891867.70 3719.05
   6   0 -15 7365.32 1798.85
   6   0 -12634009.1 7381.87
   6   0  -9261173.9 4452.87
   6   0  -6296112.8 4733.60
   6   0  -3681111.6 8832.58
   6   0   078314.22 4168.63
   6   0   3487388.0 8089.58
   6   0   6 157321214189.46
   6   0   9 217600018955.62
   6   0  1243456.24 2508.08
   6   0  15  832.04 1332.06
   6   0  18258646.4 5446.32
   6   0  21195250.4 4703.96
   6   0  2491905.68 5287.03
   6   0  27257603.4 7054.54
   6   0  3024103.12 3224.00
   6   0  3386127.21 8482.96
   6   0  3615024.53 5635.35
   6   0  39  799.28 5322.20
   6   0  42   45.52 5622.52
   6   0  45  218.23 5847.60
   6   1 -43 9051.93 4085.87
   6   1 -4024485.10 4486.97
   6   1 -3710749.82 3583.62
   6   1 -34 7797.33 3284.85
   6   1 -3139571.36 3405.52
   6   1 -28117730.9 3592.68
   6   1 -2574591.12 2282.26
   6   1 -22155005.7 3476.01
   6   1 -1976240.65 2182.53
   6   1 -16 2730.41 1404.33
   6   1 -13320111.6 4392.18
   6   1 -10177686.5 3259.90
   6   1  -734772.22 1433.53
   6   1  -443076.73 1928.18
   6   1  -136916.20 1832.87
   6   1   2363084.5 4057.25
   6   1   5 160517910394.51
   6   1   8 109542012915.07
   6   1  11344701.2 5800.80
   6   1  14 1538.96 1343.50
   6   1  1718232.59 1381.35
   6   1  20152886.9 4107.28
   6   1  23317021.8 8651.06
   6   1  26102465.8 8106.41
   6   1  29   38.47 1625.63
   6   1  32 8170.80 2413.65
   6   1  35148583.2 5820.09
   6   1  3872902.03 5257.78
   6   1  4156150.76 4882.24
   6   1  44 5447.52 3988.36
   6   2 -44 3664.59 6237.13
   6   2 -4110537.24 4481.91
   6   2 -38 2477.75 3693.14
   6   2 -35 4341.50 3389.98
   6   2 -32 6668.63 2663.13
   6   2 -29 7094.54 1945.58
   6   2 -26 1495.40 2006.72
   6   2 -2383079.28 2536.20
   6   2 -2073911.47 2701.08
   6   2 -1742842.91 2329.49
   6   2 -14 1261.01 1424.50
   6   2 -1169166.15 2754.85
   6   2  -8 2275.70 1702.17
   6   2  -5309063.8 5221.68
   6   2  -2200905.2 3942.70
   6   2   1101955.1 2581.30
   6   2   4874532.513233.89
   6   2   7 167235621984.40
   6   2  10186657.5 5682.12
   6   2  13133389.4 5296.49
   6   2  1617648.52 1634.56
   6   2  1999598.60 2763.40
   6   2  22150711.3 3879.04
   6   2  25248736.4 8667.57
   6   2  2827896.64 1950.10
   6   2  3171905.85 3305.37
   6   2  3428124.49 3777.39
   6   2  3714673.93 4027.99
   6   2  4020774.23 4808.45
   6   2  4319951.97 4436.55
   6   3 -42 5024.11 5571.53
   6   3 -3920056.51 5294.11
   6   3 -3665963.84 4908.95
   6   3 -33106136.5 5756.00
   6   3 -3012625.53 2561.14
   6   3 -2718337.75 3244.93
   6   3 -2430703.91 2172.62
   6   3 -21285733.7 5728.31
   6   3 -18291909.4 5219.83
   6   3 -15118895.2 4189.86
   6   3 -12  809.54 1789.85
   6   3  -9621862.5 8231.16
   6   3  -6141974.1 3785.71
   6   3  -3158327.4 3817.99
   6   3   023815.58 1616.71
   6   3   360322.61 4182.28
   6   3   6188506.311613.62
   6   3   9193965.3 5015.78
   6   3  12212430.4 6100.49
   6   3  15 7054.90 2606.41
   6   3  18 9724.62 1685.60
   6   3  2116568.36 1965.01
   6   3  24 3877.76 2065.82
   6   3  27 1167.15 1701.10
   6   3  3059132.19 2731.69
   6   3  33 4012.82 3421.31
   6   3  3610111.77 4039.62
   6   3  3931179.83 5208.17
   6   3  42 9704.60 4602.99
   6   4 -43  740.99 5502.00
   6   4 -40 7837.78 4973.38
   6   4 -3711105.90 4771.49
   6   4 -3452326.99 4821.31
   6   4 -3149917.07 3380.38
   6   4 -28  886.96 2291.79
   6   4 -25 4332.97 2469.65
   6   4 -22 8545.70 2321.83
   6   4 -1916208.10 1847.74
   6   4 -1636815.85 2759.33
   6   4 -1348259.40 2807.13
   6   4 -1047308.82 2682.82
   6   4  -7219218.4 5815.10
   6   4  -4246969.0 6330.32
   6   4  -1118115.8 5401.60
   6   4   212814.21 1712.72
   6   4   515571.16 1752.46
   6   4   816547.52 2910.17
   6   4  11197670.2 5277.95
   6   4  14141942.1 5732.39
   6   4  1717186.63 2620.01
   6   4  2011152.91 2490.96
   6   4  2389780.38 3797.94
   6   4  26 3973.32 1762.48
   6   4  2932098.75 2233.67
   6   4  3217932.68 3030.35
   6   4  35 1082.10 4477.12
   6   4  38 7830.44 4537.64
   6   4  4136736.04 5894.77
   6   5 -41 1617.83 5060.90
   6   5 -3819154.63 6260.74
   6   5 -3567232.67 7824.69
   6   5 -3291535.95 5671.49
   6   5 -2921512.54 3413.60
   6   5 -2617054.74 2354.87
   6   5 -2337948.34 3141.27
   6   5 -20125097.8 4326.25
   6   5 -17243128.410232.57
   6   5 -14149041.7 5117.84
   6   5 -1139582.27 2242.17
   6   5  -856057.37 3607.45
   6   5  -5473264.5 9802.25
   6   5  -2192437.6 7628.41
   6   5   1168330.9 4759.19
   6   5   4 9066.01 1937.26
   6   5   724656.02 1646.12
   6   5  10206597.9 5691.08
   6   5  1331818.67 2684.12
   6   5  1611644.83 2771.26
   6   5  19  991.45 2142.48
   6   5  22 8141.94 3744.97
   6   5  25 9951.50 2090.98
   6   5  2894524.20 4011.38
   6   5  3111442.28 3486.09
   6   5  34 3144.97 4532.86
   6   5  37  625.59 4579.07
   6   5  40 1126.20 5222.82
   6   6   083032.30 9283.00
   6   6   384176.9910200.79
   6   6   6145679.9 8099.51
   6   6   9 5172.80 1404.27
   6   6  1232988.21 1887.33
   6   6  1587491.76 3997.62
   6   6  1810079.73 3815.27
   6   6  21 5390.28 2870.18
   6   6  24 1009.24 2432.24
   6   6  2716933.00 2796.09
   6   6  3058975.38 4754.13
   6   6  3379167.94 8217.68
   6   6  3615172.39 5786.81
   6   6  39 2750.06 5917.37
   7   0 -44152713.312071.00
   7   0 -41267232.213462.21
   7   0 -38104771.6 9530.03
   7   0 -3521082.98 9040.84
   7   0 -32819219.020689.03
   7   0 -29877244.016350.68
   7   0 -26682482.311365.98
   7   0 -23866442.611591.12
   7   0 -20148763.0 5575.74
   7   0 -1729485.37 2786.91
   7   0 -14744214.510669.25
   7   0 -11770920.6 9450.22
   7   0  -8449837.1 8735.61
   7   0  -5240747.1 6851.54
   7   0  -2 2320.23 1730.17
   7   0   1310869.4 6719.92
   7   0   4 328063632577.51
   7   0   7 838002752432.61
   7   0  10 356914436023.47
   7   0  1316488.31 4237.89
   7   0  16250833.5 8409.62
   7   0  19 131691816758.37
   7   0  22 190738327324.95
   7   0  25 189599026291.72
   7   0  2825134.18 4359.36
   7   0  31277809.8 9924.51
   7   0  34712692.221397.14
   7   0  37462226.718626.69
   7   0  40163285.310375.47
   7   0  4327344.79 5882.90
   7   1 -4243750.92 5936.59
   7   1 -3912269.73 4099.03
   7   1 -36  355.03 3733.74
   7   1 -3374451.21 4964.42
   7   1 -30295170.5 7164.92
   7   1 -27199701.8 4410.88
   7   1 -2476074.16 2572.38
   7   1 -2142853.10 2414.39
   7   1 -18445210.0 6951.66
   7   1 -15864282.0 9069.10
   7   1 -12421941.5 7056.91
   7   1  -951680.78 2550.98
   7   1  -6 2851.78 1390.45
   7   1  -3170621.8 3248.48
   7   1   0100696.2 3028.25
   7   1   313948.29 1739.56
   7   1   637838.97 4456.18
   7   1   9 5989.19 3932.19
   7   1  12107686.9 5638.81
   7   1  15125853.2 8801.51
   7   1  18153230.9 4857.47
   7   1  21184637.2 8999.62
   7   1  24112773.910583.62
   7   1  2734034.51 2076.48
   7   1  30 7575.92 2001.07
   7   1  3382678.40 5892.53
   7   1  3668367.03 5466.59
   7   1  3915936.03 4227.15
   7   1  42 3216.28 3897.92
   7   2 -4394699.38 8867.20
   7   2 -40113367.0 7952.09
   7   2 -3724893.80 4369.89
   7   2 -34 7936.85 3552.81
   7   2 -3153571.27 3414.68
   7   2 -28259790.6 5798.17
   7   2 -25467708.5 8382.49
   7   2 -22246774.7 6512.38
   7   2 -1931278.33 2672.23
   7   2 -16170069.4 4081.34
   7   2 -13561715.8 7824.14
   7   2 -10 108876810820.26
   7   2  -7674724.5 9538.53
   7   2  -485209.95 2551.97
   7   2  -1131383.5 3325.35
   7   2   2 153502516965.70
   7   2   5 321186223646.82
   7   2   8903761.214747.93
   7   2  1166493.94 3547.41
   7   2  1494786.92 4587.74
   7   2  17617457.412968.11
   7   2  20967382.211706.01
   7   2  23838362.717239.74
   7   2  26 1280.28 1692.32
   7   2  2924841.48 2152.43
   7   2  32232118.0 6653.24
   7   2  35277191.4 9644.87
   7   2  38197244.6 8853.54
   7   2  4164016.24 6337.84
   7   2  44 1556.41 4435.14
   7   3 -4134661.3210791.11
   7   3 -38 8343.52 5067.89
   7   3 -35170914.7 9082.74
   7   3 -32309907.7 8501.79
   7   3 -2972322.58 5778.22
   7   3 -2656667.04 4850.93
   7   3 -23  584.94 2486.20
   7   3 -20367753.7 7235.41
   7   3 -17910648.011363.94
   7   3 -14736994.2 8800.68
   7   3 -11112061.9 4186.19
   7   3  -8  697.93 2156.05
   7   3  -5279881.4 5794.12
   7   3  -2762620.013783.22
   7   3   1871592.011551.58
   7   3   4737121.310423.13
   7   3   7129590.7 4177.84
   7   3  10397762.711381.73
   7   3  13960524.113263.39
   7   3  16610726.610401.61
   7   3  19477224.9 9498.67
   7   3  22216799.8 9484.50
   7   3  25 3913.36 1705.30
   7   3  28367666.3 6378.63
   7   3  31369250.6 8707.15
   7   3  34146579.1 7719.52
   7   3  3732951.03 7429.40
   7   3  40 2723.44 5016.26
   7   3  4350713.61 6187.81
   7   4 -4235302.37 8180.17
   7   4 -3917274.78 8576.55
   7   4 -36 3985.03 6135.18
   7   4 -33 1603.33 5167.41
   7   4 -3022912.01 3542.70
   7   4 -2735123.56 3297.37
   7   4 -2423527.30 3254.08
   7   4 -2110414.83 1870.33
   7   4 -1825306.96 4362.75
   7   4 -15102559.9 4032.59
   7   4 -12245452.4 5780.44
   7   4  -9328360.8 6301.26
   7   4  -6137282.4 4725.31
   7   4  -3 2308.76 1913.48
   7   4   0380906.911954.33
   7   4   3915745.714191.49
   7   4   6337319.3 6818.12
   7   4   9204317.2 6329.12
   7   4  1239983.17 4692.17
   7   4  15236957.4 6776.02
   7   4  18499772.910054.13
   7   4  21373148.6 8113.08
   7   4  24 1557.79 2060.58
   7   4  27 5457.81 2200.34
   7   4  30149645.8 5503.38
   7   4  33124923.3 8556.15
   7   4  3699516.57 7793.30
   7   4  3928652.89 5546.28
   7   4  42 1025.51 5128.55
   7   5 -40 1725.21 6943.61
   7   5 -3762783.20 8605.28
   7   5 -34254952.214918.33
   7   5 -31344993.110758.54
   7   5 -28274370.5 7214.37
   7   5 -2529532.60 5900.68
   7   5 -2241973.20 3166.36
   7   5 -19272815.0 7225.59
   7   5 -16555067.410763.25
   7   5 -13413249.4 9296.85
   7   5 -1046196.99 2594.86
   7   5  -7357779.111268.51
   7   5  -4 110051415077.33
   7   5  -1 170773935719.46
   7   5   2 175126037618.67
   7   5   5827506.213122.71
   7   5   8 1997.48 1240.03
   7   5  11252446.0 7180.74
   7   5  14634445.012709.07
   7   5  17704819.412333.53
   7   5  20225289.4 9764.30
   7   5  23 5668.25 2143.92
   7   5  26271832.0 7097.05
   7   5  29396780.4 8952.12
   7   5  32482564.212141.27
   7   5  35198413.411573.74
   7   5  3816134.80 5673.41
   7   5  4121014.49 8641.92
   7   6 -3816130.39 7979.79
   7   6 -3511737.50 6373.21
   7   6 -3214468.23 4742.95
   7   6 -29 4504.28 3918.79
   7   6 -2613736.82 2738.16
   7   6 -23 3387.34 2799.84
   7   6 -2045299.71 4186.67
   7   6 -1712204.54 3065.95
   7   6 -14 1287.41 3071.55
   7   6 -11 3041.66 1642.33
   7   6  -8 2167.37 2014.09
   7   6  -532804.27 3511.97
   7   6  -2298669.918005.14
   7   6   1318354.919014.93
   7   6   494055.25 3753.76
   7   6   724691.80 2449.87
   7   6  1075920.64 4606.34
   7   6  1397878.51 4623.64
   7   6  16233027.8 7279.14
   7   6  1988953.36 5029.59
   7   6  22  553.88 3053.97
   7   6  2528865.99 3511.89
   7   6  2893095.78 5014.70
   7   6  3139712.64 4796.78
   7   6  3418264.88 6283.35
   7   6  37 6247.08 5832.38
   7   6  40 4279.47 6197.54
   7   7   0 175181134818.89
   7   7   3913565.930496.18
   7   7   6106171.3 4420.96
   7   7   9 6291.98 1779.97
   7   7  12276394.8 9245.50
   7   7  15554093.111535.66
   7   7  18419878.1 9790.97
   7   7  2132452.19 3534.28
   7   7  2439392.57 3709.07
   7   7  27162508.5 6481.75
   7   7  30298653.9 9132.59
   7   7  33216708.212234.45
   7   7  3670831.68 9502.64
   8   0 -43 6999.45 8603.63
   8   0 -4018066.64 6578.33
   8   0 -37 4357.09 5842.73
   8   0 -3421082.08 8410.31
   8   0 -3121781.08 5109.39
   8   0 -28 3823.30 2951.24
   8   0 -2553733.96 4956.76
   8   0 -22394020.910943.14
   8   0 -19489156.412345.19
   8   0 -16776007.515192.89
   8   0 -13823010.5 9768.27
   8   0 -10  835.51 2952.73
   8   0  -7289121.2 9349.55
   8   0  -4777700.011930.70
   8   0  -124981.77 2795.15
   8   0   2319442.8 7884.86
   8   0   5 220812927851.33
   8   0   8 136367224511.23
   8   0  11 140272824835.81
   8   0  14110039.6 7092.16
   8   0  17 1766.43 3199.20
   8   0  20117781.0 5092.91
   8   0  23198982.0 7492.36
   8   0  2647901.38 4381.48
   8   0  2913282.55 4369.24
   8   0  3259995.32 6498.80
   8   0  3515529.83 7212.92
   8   0  3841226.04 8120.35
   8   0  4119360.83 8250.05
   8   0  44  437.08 6429.08
   8   1 -41 7422.18 4694.18
   8   1 -3812563.10 4130.09
   8   1 -35 2005.38 3712.46
   8   1 -3230267.19 3913.15
   8   1 -2978526.41 3850.98
   8   1 -2638839.07 4629.54
   8   1 -23 7004.99 2533.82
   8   1 -20 4314.84 2202.10
   8   1 -1716664.97 4268.82
   8   1 -14207870.3 4403.72
   8   1 -11572789.4 8211.75
   8   1  -8178944.7 5163.03
   8   1  -5  415.87 1535.06
   8   1  -2 2560.57 1381.34
   8   1   1 2091.21 1627.14
   8   1   431641.70 2069.45
   8   1   7126784.3 4661.59
   8   1  1032331.38 4584.26
   8   1  1312119.69 2538.88
   8   1  1626169.29 2950.45
   8   1  1917331.80 1967.09
   8   1  2213748.84 1940.82
   8   1  2537983.29 2398.08
   8   1  2838392.40 2503.57
   8   1  31  942.90 3054.63
   8   1  3416665.66 4517.28
   8   1  3714557.47 4005.75
   8   1  40 2926.05 4511.07
   8   1  43 1809.54 4215.58
   8   2 -42 1708.26 5193.17
   8   2 -3917456.20 5266.85
   8   2 -36110506.1 8866.06
   8   2 -33122766.310770.04
   8   2 -3014225.40 3587.47
   8   2 -27 6406.53 2223.22
   8   2 -24118756.0 5127.43
   8   2 -21362075.7 8114.10
   8   2 -18591900.2 9319.77
   8   2 -15336131.4 6039.13
   8   2 -1210097.47 1892.26
   8   2  -9190714.9 5322.25
   8   2  -6517028.3 8878.96
   8   2  -3334679.1 5298.72
   8   2   017676.07 5421.87
   8   2   3176919.8 7000.50
   8   2   6274346.6 6234.52
   8   2   9785885.316180.73
   8   2  12381939.411784.76
   8   2  1594360.37 4200.44
   8   2  18 1822.26 1838.47
   8   2  2143181.53 2213.07
   8   2  24 4189.15 1689.38
   8   2  27120381.4 7049.94
   8   2  30 8129.55 3042.13
   8   2  33 1684.00 4797.10
   8   2  3615792.09 4790.41
   8   2  3943310.03 5641.28
   8   2  4229890.35 5586.20
   8   3 -40 3545.98 6718.89
   8   3 -37 2975.59 6563.80
   8   3 -34 2896.19 5255.35
   8   3 -31 3047.70 3336.59
   8   3 -28  125.11 2887.52
   8   3 -25 3963.82 2651.90
   8   3 -22 1162.09 2574.76
   8   3 -1912050.14 2586.59
   8   3 -16  635.44 2236.67
   8   3 -13 2282.59 2007.86
   8   3 -10 2185.07 1807.07
   8   3  -721262.13 2032.06
   8   3  -421056.19 2100.39
   8   3  -1114426.4 3578.80
   8   3   2 4231.74 1787.15
   8   3   5 2125.70 2430.56
   8   3   844637.57 4505.60
   8   3  11 4248.20 2535.44
   8   3  14 4584.05 2623.40
   8   3  17  220.73 2730.81
   8   3  20  850.95 2030.12
   8   3  2334758.80 2695.98
   8   3  2634721.04 3002.83
   8   3  29 1332.17 2858.64
   8   3  32  792.04 3337.14
   8   3  35   69.65 4769.26
   8   3  38 3903.65 5065.14
   8   3  41 3685.12 5200.97
   8   4 -41 6464.92 7441.77
   8   4 -3896220.6110812.50
   8   4 -35167779.212911.14
   8   4 -32142976.2 7758.17
   8   4 -2932566.72 7132.50
   8   4 -26 6902.20 2998.76
   8   4 -2357391.33 3778.47
   8   4 -20206269.5 6756.01
   8   4 -17195261.4 5809.49
   8   4 -1430832.39 2642.10
   8   4 -1140787.85 2801.32
   8   4  -8395181.2 8839.55
   8   4  -5474808.9 9731.77
   8   4  -2192412.518239.98
   8   4   1100969.613165.46
   8   4   441637.28 5663.73
   8   4   716496.30 2931.56
   8   4  10113295.3 4733.07
   8   4  13192784.2 7723.83
   8   4  1656815.84 4376.36
   8   4  19 8153.59 3147.12
   8   4  22 6502.77 2343.70
   8   4  2566582.02 4181.99
   8   4  2857352.28 3910.45
   8   4  31150549.3 7287.24
   8   4  3419411.31 5779.33
   8   4  37 4937.12 5899.39
   8   4  4015232.44 5183.49
   8   5 -39 6790.40 6809.97
   8   5 -3611131.40 6619.80
   8   5 -33 8184.14 6782.36
   8   5 -3061164.45 6140.25
   8   5 -2756489.91 4744.00
   8   5 -2431529.78 4294.08
   8   5 -2110545.51 2949.80
   8   5 -1810999.15 2608.52
   8   5 -1582546.31 4131.53
   8   5 -12190729.0 5530.85
   8   5  -9 9665.79 2486.51
   8   5  -6 1232.34 2778.53
   8   5  -3102841.8 5029.03
   8   5   0167987.0 7568.50
   8   5   362820.57 4410.34
   8   5   6 3178.12 1834.83
   8   5   912467.33 2522.18
   8   5  12  131.44 3235.52
   8   5  15 1338.15 2725.57
   8   5  18 6502.47 3330.63
   8   5  21 7216.30 2980.16
   8   5  24 6154.28 3135.71
   8   5  27  117.82 2877.27
   8   5  30 9666.11 3153.29
   8   5  3320852.24 6209.69
   8   5  3624022.24 6914.45
   8   5  39 9275.15 6144.49
   8   6 -3725469.90 7842.98
   8   6 -3465597.6111390.93
   8   6 -3155461.84 6871.82
   8   6 -28 6082.12 4415.17
   8   6 -2515892.22 3290.47
   8   6 -22120916.4 5384.22
   8   6 -1993007.93 4866.37
   8   6 -1650277.05 5127.24
   8   6 -13 2943.20 2836.14
   8   6 -10 3815.54 3230.86
   8   6  -745039.71 3488.22
   8   6  -4138092.9 5628.10
   8   6  -1193947.020518.10
   8   6   270966.7322911.67
   8   6   5 2820.97 2663.21
   8   6   8 3662.51 1660.63
   8   6  1154565.77 4955.92
   8   6  14109924.0 8149.00
   8   6  17185363.4 7443.21
   8   6  2066738.26 4867.17
   8   6  23  769.49 3514.25
   8   6  2632715.29 4285.35
   8   6  2999630.18 4930.40
   8   6  3258386.71 5534.41
   8   6  3513861.94 6195.37
   8   6  38 1378.42 5847.05
   8   7 -35 4241.70 7724.66
   8   7 -3216702.10 6167.60
   8   7 -2981617.35 7672.17
   8   7 -26118031.7 6529.05
   8   7 -2388733.67 5498.47
   8   7 -20 7519.16 3284.93
   8   7 -1715361.91 3404.20
   8   7 -14158477.2 6785.14
   8   7 -11136865.410579.23
   8   7  -871351.98 3797.43
   8   7  -5 8453.48 3005.27
   8   7  -268451.91 3912.92
   8   7   135769.67 3654.90
   8   7   448087.19 8926.80
   8   7   758359.73 4221.36
   8   7  1030801.57 5550.35
   8   7  13  354.52 3316.86
   8   7  16 1357.05 4057.02
   8   7  19  883.34 3853.37
   8   7  22 4551.15 3266.76
   8   7  2520258.88 3605.64
   8   7  28  804.92 3696.85
   8   7  31 5289.15 4100.94
   8   7  3440616.13 7859.86
   8   7  3759724.4810032.11
   8   8   0 7585.26 4059.16
   8   8   3 1376.75 2544.40
   8   8   6   85.01 2917.29
   8   8   9  108.02 3869.76
   8   8  12 1668.61 3721.24
   8   8  1531586.95 4282.07
   8   8  1836946.94 5271.71
   8   8  2151550.86 5188.47
   8   8  24 7633.99 3375.67
   8   8  27  690.64 4114.71
   8   8  30 9874.59 4561.93
   8   8  3313100.93 7430.49
   9   0 -42128023.514236.71
   9   0 -39147916.711578.80
   9   0 -36124447.5 9605.45
   9   0 -33   44.02 7295.59
   9   0 -30284900.512440.70
   9   0 -27548722.913801.53
   9   0 -24378753.711938.41
   9   0 -21409443.812171.66
   9   0 -18 3829.75 3518.76
   9   0 -15139423.1 6730.17
   9   0 -12 103161816980.67
   9   0  -9 123683418585.29
   9   0  -6275292.3 8815.03
   9   0  -361218.50 3754.99
   9   0   0126219.0 5105.80
   9   0   3386813.5 8089.21
   9   0   6300794.911989.59
   9   0   9669763.117862.79
   9   0  12111154.4 8828.00
   9   0  1551591.18 6425.32
   9   0  18186014.0 8533.81
   9   0  21245866.310394.18
   9   0  24 6182.45 3059.76
   9   0  27192529.3 7547.00
   9   0  30  162.58 4624.84
   9   0  3393820.14 9023.09
   9   0  36168291.211751.40
   9   0  3977797.53 9387.92
   9   0  42 6211.57 6834.63
   9   1 -40 7107.48 5387.80
   9   1 -37 1745.30 4999.16
   9   1 -3415913.08 5201.72
   9   1 -3131702.28 4177.42
   9   1 -2851343.13 3761.02
   9   1 -2534147.24 3405.91
   9   1 -22 8477.14 2547.11
   9   1 -19193316.7 6069.33
   9   1 -16632019.7 9261.46
   9   1 -13423957.3 7342.49
   9   1 -1097461.51 3419.76
   9   1  -748909.53 3211.41
   9   1  -4159151.6 4494.10
   9   1  -1293925.1 4919.20
   9   1   2202633.6 4432.45
   9   1   5 2221.66 2042.73
   9   1   8340685.417664.58
   9   1  11593254.919632.22
   9   1  14255099.5 7882.14
   9   1  17112368.2 4741.74
   9   1  2017951.55 2898.69
   9   1  23 2363.02 1713.60
   9   1  2662866.91 5708.88
   9   1  2930964.09 2849.61
   9   1  3245617.73 3994.50
   9   1  3513388.60 4428.91
   9   1  38 2822.01 4514.90
   9   1  4110584.54 4746.86
   9   2 -4143514.95 8906.96
   9   2 -3877586.36 8395.20
   9   2 -35 6549.14 5416.59
   9   2 -3213657.08 6771.11
   9   2 -2965094.79 5039.89
   9   2 -2681946.08 4582.05
   9   2 -23209841.1 6696.97
   9   2 -2041169.61 3083.09
   9   2 -1719917.65 2383.49
   9   2 -14438176.1 8481.60
   9   2 -11753438.710105.16
   9   2  -8283539.7 6812.63
   9   2  -5143924.9 3925.35
   9   2  -2 5548.46 2073.60
   9   2   178554.79 4117.99
   9   2   4216400.4 5493.89
   9   2   7445821.6 8521.88
   9   2  1017910.37 3452.45
   9   2  1330470.24 2412.42
   9   2  1674297.94 5891.83
   9   2  1986889.16 4470.85
   9   2  2230325.35 2840.70
   9   2  25207598.3 8947.68
   9   2  28  187.47 2619.07
   9   2  3117938.93 3577.07
   9   2  3454372.54 6341.12
   9   2  3733977.93 6145.22
   9   2  4019256.45 5101.84
   9   3 -39 6464.17 7061.91
   9   3 -3642053.28 7728.17
   9   3 -33174820.710348.33
   9   3 -30208379.0 8292.92
   9   3 -2734802.95 3838.02
   9   3 -24 2136.82 3109.67
   9   3 -2148920.11 3512.26
   9   3 -18553000.010655.65
   9   3 -15722824.910485.50
   9   3 -12366927.8 7552.32
   9   3  -9 7407.04 2472.54
   9   3  -6173396.2 5451.08
   9   3  -3477559.617434.14
   9   3   0596699.818122.21
   9   3   3306242.411503.30
   9   3   612252.12 2400.15
   9   3   978287.18 3693.45
   9   3  12368012.112176.22
   9   3  15392073.6 8929.09
   9   3  1895102.76 4603.83
   9   3  21 6239.84 2599.90
   9   3  24 9767.58 4321.22
   9   3  2744830.68 3555.29
   9   3  30289047.3 9806.56
   9   3  33165792.410591.77
   9   3  3619532.49 5779.59
   9   3  39 1251.93 5094.56
   9   4 -37 4899.97 7284.73
   9   4 -34 2175.02 6882.28
   9   4 -31 5256.01 3645.62
   9   4 -2812611.11 5479.92
   9   4 -2526957.68 3559.04
   9   4 -22 1792.13 3175.80
   9   4 -19  316.71 2946.59
   9   4 -1687331.65 4472.76
   9   4 -13111877.0 5004.11
   9   4 -1043488.14 3022.31
   9   4  -724759.75 2797.85
   9   4  -4  574.30 3018.54
   9   4  -1  889.24 2618.82
   9   4   254257.55 2864.96
   9   4   597030.98 5810.66
   9   4   8  400.00 2473.46
   9   4  11 2905.35 2503.00
   9   4  1422178.62 3353.25
   9   4  17 6886.92 3327.69
   9   4  2014204.53 3286.37
   9   4  2374804.25 4581.70
   9   4  26  163.68 2875.64
   9   4  29  543.43 3303.67
   9   4  3211884.89 3982.01
   9   4  35 6332.57 5522.93
   9   4  38 5589.85 6161.61
   9   5 -38 8793.64 8894.42
   9   5 -35104355.111000.32
   9   5 -32225848.211526.94
   9   5 -29195911.8 9907.73
   9   5 -2678799.61 5811.38
   9   5 -23 7164.36 3784.23
   9   5 -20219601.7 7747.16
   9   5 -17439183.1 9581.84
   9   5 -14413213.5 8907.30
   9   5 -11123815.1 5492.23
   9   5  -8 3296.27 3092.17
   9   5  -5352167.713161.48
   9   5  -2703932.914985.97
   9   5   1565476.628951.49
   9   5   4233260.410619.83
   9   5   712839.93 2734.11
   9   5  1085244.32 6145.77
   9   5  13290860.610525.78
   9   5  16301680.110550.55
   9   5  19154161.7 6785.42
   9   5  2255624.49 4366.01
   9   5  25 4806.73 2942.22
   9   5  28147136.7 6882.21
   9   5  31193068.5 8473.10
   9   5  34128447.9 9945.03
   9   5  3739759.17 7264.85
   9   6 -3646637.99 9720.89
   9   6 -3312917.44 6914.27
   9   6 -30 7530.62 5103.37
   9   6 -27 2131.78 3640.48
   9   6 -24 1759.64 3443.41
   9   6 -21  521.27 3069.75
   9   6 -1895193.66 5380.75
   9   6 -1545238.15 4012.31
   9   6 -12 1571.72 2916.22
   9   6  -9  507.42 3532.44
   9   6  -6  876.03 2626.14
   9   6  -3  260.29 2801.79
   9   6   0148825.8 5361.95
   9   6   389156.37 9944.78
   9   6   6 1609.83 2106.28
   9   6   915088.58 3941.88
   9   6  1217027.80 3266.26
   9   6  15 2942.11 3256.76
   9   6  1811412.29 3581.33
   9   6  2123983.38 4207.96
   9   6  24  182.90 3552.60
   9   6  2710171.20 2963.42
   9   6  30 6086.38 4094.94
   9   6  33 2494.62 6524.29
   9   6  3610071.74 7150.43
   9   7 -3479563.9910805.45
   9   7 -31122117.6 9197.40
   9   7 -2882266.43 7591.90
   9   7 -2517158.07 4186.02
   9   7 -2212103.01 3619.98
   9   7 -1943481.20 4152.68
   9   7 -16194299.4 7588.55
   9   7 -13156104.0 7151.99
   9   7 -1054204.00 7943.60
   9   7  -7  677.13 2440.76
   9   7  -4 5826.65 2473.49
   9   7  -111044.73 3104.45
   9   7   2185968.0 6662.19
   9   7   575626.10 6902.43
   9   7   8 4175.34 3439.88
   9   7  1112995.68 3375.90
   9   7  14106672.6 7163.99
   9   7  17129498.5 7720.90
   9   7  20225992.2 9987.80
   9   7  2323675.22 3784.82
   9   7  26 9816.28 3375.78
   9   7  2958245.78 4592.04
   9   7  3285343.72 7009.66
   9   7  3534042.75 8366.14
   9   8 -3213169.78 5870.35
   9   8 -29 2905.16 4705.27
   9   8 -2638111.53 5102.25
   9   8 -23129509.6 7007.25
   9   8 -20126974.5 6824.27
   9   8 -17 9824.25 4350.13
   9   8 -14 9212.00 3661.37
   9   8 -1129501.39 6177.34
   9   8  -8138779.8 6994.57
   9   8  -5132538.9 8005.58
   9   8  -264399.96 4325.78
   9   8   1 7400.14 3493.63
   9   8   4100304.9 7166.11
   9   8   7108808.9 6332.18
   9   8  1099035.47 7250.55
   9   8  1337927.06 5582.71
   9   8  1614855.38 4173.50
   9   8  19 5542.24 5801.35
   9   8  2234442.84 5093.80
   9   8  2574675.77 5486.69
   9   8  2833910.98 5096.12
   9   8  3110856.54 5597.25
   9   9   094075.85 8769.57
   9   9   3 4551.37 3746.91
   9   9   6  154.87 3929.71
   9   9   9 1112.25 4237.25
   9   9  12 9130.76 4965.28
   9   9  1544259.28 5207.59
   9   9  18134904.0 8868.12
   9   9  2122950.33 4571.14
   9   9  24   26.25 3845.93
   9   9  27 9592.53 4316.78
   9   9  3019477.67 6900.77
  10   0 -4123956.93 9442.93
  10   0 -38173146.516007.34
  10   0 -35126794.513257.16
  10   0 -3210385.71 4838.61
  10   0 -2929929.98 5111.88
  10   0 -2685990.17 6281.43
  10   0 -23344706.112044.56
  10   0 -20716854.316604.22
  10   0 -17443420.612917.48
  10   0 -1449501.33 4029.28
  10   0 -11 6310.65 2745.63
  10   0  -8369108.810632.96
  10   0  -5821458.916001.00
  10   0  -2598350.212278.30
  10   0   1146455.9 6919.25
  10   0   4  215.73 2663.98
  10   0   7926049.122670.94
  10   0  10 139439927384.04
  10   0  13831443.620697.48
  10   0  1683682.30 6401.51
  10   0  19   99.91 1426.44
  10   0  2222614.64 4230.64
  10   0  25685817.415343.58
  10   0  28175258.2 8343.14
  10   0  3185073.8312274.63
  10   0  34 6078.49 5849.15
  10   0  3732269.47 7553.03
  10   0  4094605.6910620.70
  10   1 -39 3445.81 5731.08
  10   1 -3611199.57 6089.46
  10   1 -33 3642.94 5267.39
  10   1 -30 3655.72 3426.19
  10   1 -27 4036.44 2629.04
  10   1 -24 8087.77 2674.12
  10   1 -2115334.73 3351.06
  10   1 -1846389.84 3144.97
  10   1 -15 1445.23 2215.60
  10   1 -12 1431.90 2587.17
  10   1  -9 4064.29 2438.91
  10   1  -6 8279.69 2260.03
  10   1  -323132.91 2465.88
  10   1   035638.40 2458.82
  10   1   3  536.43 1859.92
  10   1   6 7541.05 4639.30
  10   1   923560.14 3688.06
  10   1  1219177.88 4078.64
  10   1  1514423.46 2948.70
  10   1  18 2629.50 2891.75
  10   1  21  948.20 2555.90
  10   1  2437062.70 3679.44
  10   1  2718061.10 2500.13
  10   1  30 6092.72 3462.07
  10   1  33  725.01 5228.41
  10   1  36 1190.17 4344.43
  10   1  39 6237.68 4902.73
  10   2 -4077513.92 9876.15
  10   2 -37127495.513057.59
  10   2 -3497795.61 8648.62
  10   2 -3132156.44 4297.70
  10   2 -28 3729.04 3259.64
  10   2 -2586914.18 4914.03
  10   2 -22295838.610788.51
  10   2 -19416968.1 9750.45
  10   2 -16177161.4 6223.91
  10   2 -13  282.53 2915.31
  10   2 -10354762.7 8299.83
  10   2  -7788235.711484.75
  10   2  -4599829.7 9599.79
  10   2  -1585337.510431.06
  10   2   2110136.8 4058.73
  10   2   5184370.0 7120.10
  10   2   8527453.525432.14
  10   2  11593572.413343.86
  10   2  14167916.412661.31
  10   2  1720551.11 2975.65
  10   2  2019815.32 3048.08
  10   2  23455156.9 9283.48
  10   2  26241858.5 6789.93
  10   2  29284637.8 9577.61
  10   2  3240895.99 4629.70
  10   2  35  199.01 5182.96
  10   2  3838488.13 6010.81
  10   3 -3832983.79 7922.70
  10   3 -35  473.68 6731.77
  10   3 -32  345.66 4617.96
  10   3 -2920298.11 7717.01
  10   3 -2615094.46 3078.85
  10   3 -2317932.06 3955.31
  10   3 -20 5373.28 3308.94
  10   3 -1724631.53 3354.18
  10   3 -1480698.80 4503.51
  10   3 -1188129.29 4101.54
  10   3  -8126253.1 6148.68
  10   3  -532919.28 4050.16
  10   3  -2   54.04 2945.57
  10   3   1 9896.38 2689.94
  10   3   443427.95 2826.26
  10   3   7100207.5 4608.45
  10   3  1039531.56 3867.13
  10   3  13   25.72 2336.09
  10   3  1613540.34 2695.32
  10   3  1934464.59 3767.56
  10   3  2293377.51 4723.52
  10   3  2542535.04 3484.73
  10   3  28  687.24 3185.03
  10   3  31 2128.60 4249.40
  10   3  3425178.99 5960.27
  10   3  3732281.55 7005.19
  10   4 -3684742.6011681.50
  10   4 -3394264.7012830.38
  10   4 -3022778.82 4789.85
  10   4 -27 6455.22 3203.51
  10   4 -24104412.7 5866.15
  10   4 -21168067.8 7099.90
  10   4 -18171575.8 6508.81
  10   4 -1513278.41 4665.85
  10   4 -1211939.97 2914.89
  10   4  -9186752.1 6726.70
  10   4  -6384253.410358.95
  10   4  -3586779.913488.18
  10   4   0143483.7 8569.33
  10   4   311390.22 2356.48
  10   4   685671.27 6203.52
  10   4   9210027.8 6138.24
  10   4  12225213.1 8348.53
  10   4  15197485.5 8518.95
  10   4  1810134.33 4213.80
  10   4  2184628.32 5113.10
  10   4  24107646.9 5424.87
  10   4  27150984.5 7417.36
  10   4  3076621.50 6160.09
  10   4  3323775.81 6389.23
  10   4  36 6437.24 6196.61
  10   5 -34 3773.55 6881.43
  10   5 -3126853.81 5944.34
  10   5 -2883146.16 7639.52
  10   5 -25111793.6 5835.88
  10   5 -2221160.61 3722.80
  10   5 -19 7539.19 3191.42
  10   5 -1627832.13 3508.18
  10   5 -13122942.6 5834.81
  10   5 -10241386.7 7529.86
  10   5  -719698.75 3554.22
  10   5  -4 1424.10 3327.25
  10   5  -1  785.65 3040.47
  10   5   283792.84 9821.65
  10   5   5204613.1 8811.37
  10   5   8139418.6 6735.10
  10   5  11 8825.83 3306.98
  10   5  14 1490.75 3522.53
  10   5  1726075.89 3705.47
  10   5  20124777.1 6590.62
  10   5  23100836.8 6278.46
  10   5  2610182.73 3028.74
  10   5  29 1216.84 3914.35
  10   5  3245367.67 5461.45
  10   5  3598925.10 9725.88
  10   6 -3527632.13 8056.58
  10   6 -32 9217.01 5360.77
  10   6 -29 1876.75 4598.06
  10   6 -2624072.53 4627.69
  10   6 -2369217.12 5238.53
  10   6 -2039982.92 4299.95
  10   6 -17 7443.49 3445.99
  10   6 -14 2962.36 3004.54
  10   6 -1126187.60 3665.33
  10   6  -8 9652.78 3344.92
  10   6  -512785.14 3187.96
  10   6  -2 6536.71 2598.19
  10   6   1 9299.50 3826.88
  10   6   430322.17 5149.68
  10   6   727346.40 4362.12
  10   6  1016788.77 3946.93
  10   6  1341807.25 4534.85
  10   6  16 9559.79 3753.30
  10   6  1911483.73 4391.36
  10   6  22 3439.82 3664.01
  10   6  25 9429.74 3280.83
  10   6  2826810.77 4047.29
  10   6  3114604.67 4387.04
  10   6  34 2055.36 6066.76
  10   7 -33 1434.33 7299.92
  10   7 -3053956.32 6885.75
  10   7 -27165352.1 9816.83
  10   7 -24173482.6 8510.14
  10   7 -21133250.8 7392.13
  10   7 -18 4808.31 3335.95
  10   7 -1541670.43 4755.99
  10   7 -12253612.010814.60
  10   7  -9277433.7 9469.18
  10   7  -6191480.812977.84
  10   7  -316837.85 2871.73
  10   7   0137375.2 5932.16
  10   7   3376704.811571.87
  10   7   6334080.411405.66
  10   7   997873.98 9420.34
  10   7  1215851.77 3826.91
  10   7  1532652.13 4865.45
  10   7  18187363.2 9863.27
  10   7  21152376.9 8744.14
  10   7  2445838.09 8347.61
  10   7  27 6281.04 3677.96
  10   7  30 5430.63 4556.64
  10   7  3322605.50 8722.75
  10   8 -28 1166.97 4987.22
  10   8 -25 4361.29 4295.87
  10   8 -22  736.89 4064.25
  10   8 -19 9783.24 3945.77
  10   8 -16 1114.33 3495.27
  10   8 -13  448.17 3725.59
  10   8 -10 1553.65 3958.07
  10   8  -7 1418.74 3862.47
  10   8  -4  266.19 3658.69
  10   8  -1 3574.74 2912.58
  10   8   210744.63 3650.87
  10   8   5 6100.58 3992.87
  10   8   8 1747.58 4000.80
  10   8  11   40.04 4658.05
  10   8  14 2656.34 4353.70
  10   8  17 1761.77 5097.69
  10   8  20 2886.47 4371.94
  10   8  23  187.96 4751.89
  10   8  26 1531.92 4069.31
  10   8  29 2301.35 4597.59
  10   9 -2675066.44 9364.19
  10   9 -2398885.92 7304.16
  10   9 -2016185.96 5789.70
  10   9 -1713500.87 4414.15
  10   9 -1458954.25 6242.92
  10   9 -11113195.510239.15
  10   9  -8160217.9 9873.52
  10   9  -567516.6414671.46
  10   9  -2 2716.15 4870.07
  10   9   139409.18 5738.80
  10   9   4176495.714177.77
  10   9   7138287.2 8428.78
  10   9  1059198.57 5517.92
  10   9  13 3703.45 4536.80
  10   9  1635069.55 6119.88
  10   9  1978732.67 7448.43
  10   9  22116717.4 7965.71
  10   9  2551255.15 6101.67
  10   9  28 6972.38 5024.02
  10  10   022782.1613761.50
  10  10   3 6269.40 4914.38
  10  10   6 3450.07 5100.62
  10  10   9 1960.17 4624.63
  10  10  1220753.21 4774.16
  10  10  1540514.93 6016.31
  10  10  1823785.00 4927.03
  10  10  21 3295.32 4533.61
  10  10  24  437.62 4342.38
  11   0 -4050288.4717532.50
  11   0 -3750155.6710709.58
  11   0 -3413607.9711534.50
  11   0 -31  627.61 5380.77
  11   0 -2873708.56 6801.34
  11   0 -25185796.6 9405.78
  11   0 -2295038.93 7344.38
  11   0 -19 6897.86 3720.83
  11   0 -1647697.86 5980.20
  11   0 -13107329.411942.67
  11   0 -10137654.9 8439.11
  11   0  -7181639.3 8344.87
  11   0  -418028.58 3986.57
  11   0  -1 1062.03 3000.66
  11   0   2 4706.39 2872.21
  11   0   537916.11 3561.16
  11   0   8  875.63 1334.36
  11   0  11 1318.98 4873.76
  11   0  14  557.04 5003.97
  11   0  17 1575.17 4065.24
  11   0  2019517.01 4165.70
  11   0  23127369.1 8312.32
  11   0  26  238.02 3932.43
  11   0  2913744.85 8099.79
  11   0  32  739.64 5407.43
  11   0  35 3795.98 6321.38
  11   0  3819253.09 7325.99
  11   1 -38 8062.40 5433.24
  11   1 -3523303.10 5900.20
  11   1 -32 9585.80 4357.57
  11   1 -29 1766.10 3907.22
  11   1 -26 2502.81 2861.70
  11   1 -23 2483.64 2762.79
  11   1 -20153212.9 5914.60
  11   1 -17143562.7 6136.43
  11   1 -14172143.8 5962.27
  11   1 -11 8667.39 2681.15
  11   1  -847677.21 3622.88
  11   1  -5177055.6 5543.36
  11   1  -2302848.4 6130.52
  11   1   1162337.0 5379.03
  11   1   432868.77 2672.45
  11   1   747474.47 8520.85
  11   1  10418362.111646.74
  11   1  13303266.710369.21
  11   1  1659444.82 4371.45
  11   1  19 8166.04 2802.65
  11   1  22 8137.76 3419.54
  11   1  2558177.34 4442.16
  11   1  28163606.1 9729.18
  11   1  3163628.47 6193.53
  11   1  34 6951.90 4993.92
  11   1  37 2013.25 4604.48
  11   2 -36 4452.56 6529.59
  11   2 -33 1953.95 5597.24
  11   2 -30 1351.44 4030.25
  11   2 -2716777.89 3025.34
  11   2 -2422223.66 3104.84
  11   2 -2120077.87 3701.93
  11   2 -18 1104.34 3027.49
  11   2 -15  772.19 2807.51
  11   2 -1248679.21 3549.98
  11   2  -994248.28 5712.97
  11   2  -616380.09 3468.81
  11   2  -324986.78 5036.64
  11   2   0   66.12 2846.25
  11   2   3 9057.82 3438.88
  11   2   6 3332.22 2342.99
  11   2   910061.66 3149.67
  11   2  12 1458.30 3339.80
  11   2  15 3848.89 3531.84
  11   2  18 1826.97 2944.83
  11   2  2135102.11 3310.35
  11   2  24 1645.19 3107.77
  11   2  2724024.37 5054.34
  11   2  30 1366.02 4232.77
  11   2  33 5845.24 5992.67
  11   2  36 2362.77 5755.44
  11   3 -3711120.35 7516.19
  11   3 -3441315.84 8173.28
  11   3 -3150126.21 5438.28
  11   3 -2828826.24 6169.35
  11   3 -25 2252.29 3190.00
  11   3 -2283607.05 5582.71
  11   3 -19108162.5 5673.40
  11   3 -16197958.8 7327.84
  11   3 -13131277.5 5995.59
  11   3 -1024704.26 2980.62
  11   3  -776595.38 6115.55
  11   3  -4261807.810325.26
  11   3  -1188186.0 6748.74
  11   3   279965.21 4348.48
  11   3   5 5558.92 2471.01
  11   3   887639.14 4751.60
  11   3  11222554.3 8355.27
  11   3  14204794.4 7907.32
  11   3  17140945.8 6498.48
  11   3  2029106.46 3831.95
  11   3  23 3230.03 3088.50
  11   3  2664694.88 6473.04
  11   3  2979569.73 7975.72
  11   3  3261957.60 6004.31
  11   3  3530892.84 7033.51
  11   4 -35 4652.69 6747.69
  11   4 -32  609.59 5266.52
  11   4 -29 2025.93 4493.05
  11   4 -26 2395.93 3308.31
  11   4 -23  207.03 3615.56
  11   4 -20 6769.83 3402.93
  11   4 -17  110.72 3441.35
  11   4 -14 3043.50 2997.14
  11   4 -11 7458.95 3051.46
  11   4  -8 4076.14 3039.20
  11   4  -5 7590.47 3386.90
  11   4  -236372.06 3557.02
  11   4   1 9041.71 2955.47
  11   4   4 1467.84 3059.76
  11   4   7 8655.40 2868.76
  11   4  10  444.35 3301.89
  11   4  13 2361.23 3203.70
  11   4  16  652.82 3188.56
  11   4  19 4467.37 3423.29
  11   4  22 2836.40 3356.62
  11   4  25  176.14 3301.37
  11   4  28 1801.23 3817.41
  11   4  31 7272.20 4053.86
  11   4  34 8816.98 6487.77
  11   5 -3338078.59 8724.83
  11   5 -3044874.88 6537.43
  11   5 -2723122.05 5124.82
  11   5 -24 2603.24 3526.34
  11   5 -21 4502.10 3391.03
  11   5 -1863623.56 4895.90
  11   5 -1582740.21 5747.51
  11   5 -1259840.70 5644.28
  11   5  -931938.82 4391.18
  11   5  -6 6446.82 3155.80
  11   5  -3 1220.38 2661.90
  11   5   086749.58 5629.52
  11   5   393061.69 6524.57
  11   5   6 8197.95 3362.40
  11   5   9  920.25 3571.56
  11   5  1221039.74 3613.04
  11   5  1591602.61 5669.69
  11   5  18180293.6 8753.59
  11   5  2152421.31 4848.33
  11   5  24 2735.54 3637.43
  11   5  27 8249.86 3861.15
  11   5  3029790.78 5166.53
  11   5  3321293.42 6167.33
  11   6 -31 1276.53 5924.82
  11   6 -2819483.01 6076.12
  11   6 -2544774.36 5197.04
  11   6 -2230483.98 4605.55
  11   6 -19  939.14 3567.69
  11   6 -16 4134.99 3245.75
  11   6 -13 4167.72 3768.09
  11   6 -1062646.90 5105.96
  11   6  -755802.09 4712.44
  11   6  -417385.51 3992.05
  11   6  -137799.56 3744.77
  11   6   241017.47 6966.02
  11   6   568759.0710328.63
  11   6   834431.65 7578.83
  11   6  11 4283.44 4249.12
  11   6  14  302.12 3683.38
  11   6  1723174.85 4682.30
  11   6  2031335.24 4413.18
  11   6  2317804.60 4178.40
  11   6  26 1290.19 3932.75
  11   6  29 1846.93 4828.70
  11   6  32 2688.10 5203.24
  11   7 -2916888.56 5852.72
  11   7 -2614254.37 5236.34
  11   7 -23 3306.76 3835.00
  11   7 -20 6846.82 3583.27
  11   7 -17 3462.29 3921.56
  11   7 -1412600.83 4118.78
  11   7 -1122201.44 4337.00
  11   7  -816400.55 3988.58
  11   7  -5  216.62 4075.20
  11   7  -210558.08 3115.11
  11   7   1 4622.76 3904.20
  11   7   414099.89 4643.48
  11   7   710668.50 5945.99
  11   7  10 2445.24 4489.48
  11   7  13 4971.09 4099.20
  11   7  1666771.77 6666.78
  11   7  1924420.66 4629.52
  11   7  22 7053.38 3917.45
  11   7  25  351.54 4147.91
  11   7  28  368.24 4586.29
  11   8 -2739316.66 7195.75
  11   8 -2489862.24 6950.32
  11   8 -2156055.96 6710.24
  11   8 -1830160.52 5346.75
  11   8 -15 2463.77 3827.57
  11   8 -1258149.48 5206.72
  11   8  -9106149.0 9695.90
  11   8  -673208.20 8563.98
  11   8  -3 5493.99 5617.99
  11   8   0  121.03 4827.92
  11   8   396498.03 7564.28
  11   8   6142513.316456.50
  11   8   944321.70 6383.11
  11   8  1217562.14 5017.32
  11   8  15 1576.01 4498.79
  11   8  18 5294.18 4808.71
  11   8  2154042.22 6256.36
  11   8  2418232.76 8767.64
  11   8  2712514.06 4704.19
  11   9 -25 6414.56 6077.39
  11   9 -22  163.24 4940.30
  11   9 -19 2754.05 4713.83
  11   9 -1610986.94 4296.79
  11   9 -13 8685.75 5611.82
  11   9 -10 2861.41 3849.52
  11   9  -7  257.93 4875.64
  11   9  -4  287.84 5312.78
  11   9  -1 1206.15 4682.64
  11   9   213326.29 7292.37
  11   9   5 2235.78 6987.08
  11   9   8  187.42 4500.56
  11   9  11 2311.81 5334.73
  11   9  14   37.30 4600.72
  11   9  17 3909.29 4856.66
  11   9  20 8122.63 5134.99
  11   9  23 1814.44 3940.48
  11  10 -2032075.26 6048.61
  11  10 -1714109.25 4698.08
  11  10 -14 2987.59 4493.55
  11  10 -1128985.88 6525.66
  11  10  -854921.20 7177.83
  11  10  -525369.02 6465.72
  11  10  -226457.20 5922.60
  11  10   1 1671.81 4775.49
  11  10   424559.9911357.35
  11  10   760114.49 8110.20
  11  10  1062089.60 8299.12
  11  10  1320680.85 5126.45
  11  10  16 2040.55 4677.77
  11  10  1910232.18 4711.75
  11  11   0 2413.91 7102.80
  11  11   3 3915.11 5289.17
  11  11   6  460.38 5380.00
  11  11   9 1218.28 5867.20
  11  11  12  229.34 5906.42
  11  11  15 3034.67 5145.11
  12   0 -36205918.117419.06
  12   0 -3391430.6713021.90
  12   0 -30 1448.80 5748.40
  12   0 -2782525.38 7656.17
  12   0 -24195913.310292.30
  12   0 -21487864.715470.36
  12   0 -18366952.613579.44
  12   0 -1549037.96 4714.74
  12   0 -1275687.56 5796.73
  12   0  -9427773.712991.76
  12   0  -6518506.214832.62
  12   0  -3983601.218368.10
  12   0   0430151.914565.02
  12   0   321264.82 3179.37
  12   0   661724.54 8423.40
  12   0   9520512.918451.75
  12   0  12509959.918154.66
  12   0  15205099.112383.96
  12   0  18 1196.57 4147.97
  12   0  21195713.310392.95
  12   0  24282903.512206.38
  12   0  27662866.123792.46
  12   0  30263688.127756.50
  12   0  3329131.01 9134.00
  12   0  36 2657.22 6469.04
  12   1 -3724818.53 7150.00
  12   1 -3410519.07 7690.90
  12   1 -31 1380.22 4351.90
  12   1 -28  161.61 4202.64
  12   1 -25 2166.76 3067.94
  12   1 -2251622.46 4111.52
  12   1 -1910959.82 3522.48
  12   1 -16 1317.90 3260.11
  12   1 -1366326.84 3919.31
  12   1 -10145455.0 5358.48
  12   1  -777084.12 4357.71
  12   1  -477271.82 4172.33
  12   1  -148203.51 2779.98
  12   1   2 2490.63 2326.27
  12   1   575869.32 4227.12
  12   1   8100021.1 7520.28
  12   1  1118462.55 3749.24
  12   1  14 1933.09 3565.80
  12   1  17 6761.72 4133.67
  12   1  2045688.98 3836.04
  12   1  2384901.99 5831.59
  12   1  2689087.45 6945.97
  12   1  2925938.34 6320.03
  12   1  32  116.74 4755.77
  12   1  3512473.54 5277.50
  12   1  3815624.54 5671.41
  12   2 -35107438.211640.69
  12   2 -3233876.11 5688.99
  12   2 -29  385.54 4462.88
  12   2 -2658658.61 4573.43
  12   2 -23245901.7 8260.08
  12   2 -20291572.3 8739.75
  12   2 -1793823.89 5105.91
  12   2 -14 2674.64 3015.47
  12   2 -11128905.7 5625.24
  12   2  -8511472.810315.95
  12   2  -5878459.313739.12
  12   2  -2350964.7 9122.26
  12   2   162642.55 5150.87
  12   2   4 8720.51 3610.79
  12   2   7344001.011362.16
  12   2  10556436.414452.74
  12   2  13370815.512011.75
  12   2  1637440.81 4342.92
  12   2  1924494.25 3782.46
  12   2  22147399.5 6366.47
  12   2  25416795.210379.91
  12   2  28292061.0 9817.49
  12   2  3189869.74 7095.69
  12   2  34 6088.09 6272.58
  12   3 -33 1998.22 6852.95
  12   3 -3014195.99 7226.40
  12   3 -2733712.19 5462.24
  12   3 -2447536.46 4118.58
  12   3 -2138293.71 4290.26
  12   3 -18  235.90 3103.50
  12   3 -1564835.10 4820.92
  12   3 -12196477.0 7006.96
  12   3  -9131767.5 6698.89
  12   3  -6166308.912298.79
  12   3  -3131414.0 6169.36
  12   3   0  814.12 2244.92
  12   3   367935.94 4957.29
  12   3   6202427.3 7757.03
  12   3   973118.44 4774.49
  12   3  1211346.32 5018.33
  12   3  15 3068.62 3307.93
  12   3  1875671.80 5291.77
  12   3  21160324.1 7464.80
  12   3  24155055.5 6964.05
  12   3  2735749.67 4613.65
  12   3  30 6307.88 4804.47
  12   3  3332825.00 8242.56
  12   4 -3426385.98 7473.54
  12   4 -31 7610.63 5704.11
  12   4 -2810603.35 5622.38
  12   4 -2544736.96 4518.57
  12   4 -2265760.35 5162.82
  12   4 -1941380.62 4268.14
  12   4 -16 8033.96 3374.98
  12   4 -13 9649.67 2934.06
  12   4 -1020388.47 4200.25
  12   4  -764999.27 4682.59
  12   4  -418149.61 3800.76
  12   4  -153564.20 5937.48
  12   4   2 5358.84 4036.28
  12   4   569329.40 4758.65
  12   4   8101227.3 5506.50
  12   4  11133859.4 6092.70
  12   4  1461487.47 7197.68
  12   4  1737496.51 4575.70
  12   4  20 5494.97 3579.70
  12   4  23110172.0 6419.88
  12   4  26125556.1 6710.85
  12   4  2936513.39 5728.54
  12   4  32 3411.52 4810.85
  12   5 -3210453.13 8894.98
  12   5 -2993799.56 8581.40
  12   5 -26212578.4 9371.29
  12   5 -23173042.3 8047.64
  12   5 -2014346.68 3613.58
  12   5 -1715185.28 3300.50
  12   5 -14131633.2 6982.28
  12   5 -11264189.5 9731.53
  12   5  -8351147.0 9326.81
  12   5  -547650.77 5815.19
  12   5  -256057.45 5421.84
  12   5   1190235.512008.15
  12   5   4404693.211605.39
  12   5   7226614.4 8982.24
  12   5  1074214.90 5096.88
  12   5  13  847.22 3895.58
  12   5  1685270.48 5709.66
  12   5  19178493.2 7913.96
  12   5  22204216.1 8612.09
  12   5  2582287.43 6091.13
  12   5  28 3563.18 4811.73
  12   5  31 5273.01 4745.68
  12   6 -30 8870.96 6407.63
  12   6 -27 6389.26 4955.27
  12   6 -2428983.08 5645.10
  12   6 -2128504.79 4269.16
  12   6 -18 1980.47 3699.21
  12   6 -15 4208.81 3777.80
  12   6 -1215397.93 4246.96
  12   6  -918439.37 4240.69
  12   6  -6 7232.31 3445.84
  12   6  -314596.07 3944.99
  12   6   0 2944.87 3541.71
  12   6   344082.82 5132.61
  12   6   644594.40 5174.46
  12   6   9 9959.48 3867.30
  12   6  12 1798.45 4113.28
  12   6  15 3686.97 3817.32
  12   6  18 4674.97 3551.76
  12   6  2138059.93 4957.71
  12   6  2434457.92 4787.19
  12   6  27 5118.60 4099.75
  12   6  30 2119.42 4751.06
  12   7 -25149564.210093.00
  12   7 -2260505.38 8409.65
  12   7 -1913177.58 4954.04
  12   7 -16 3963.61 3972.50
  12   7 -13108116.4 7071.55
  12   7 -10252201.010198.82
  12   7  -7144225.4 7746.25
  12   7  -4 3640.78 4780.50
  12   7  -1 3071.32 4533.13
  12   7   2254563.911488.31
  12   7   5327047.118656.91
  12   7   8174941.711525.53
  12   7  1111217.29 4097.33
  12   7  14 3893.79 4023.02
  12   7  1771456.96 6726.17
  12   7  20227246.110271.48
  12   7  23128180.5 7780.93
  12   7  26 8322.64 4506.51
  12   8 -23 1670.59 4821.24
  12   8 -20 8343.69 4306.34
  12   8 -1715337.82 4583.06
  12   8 -1414501.78 4497.38
  12   8 -11 6210.06 4174.77
  12   8  -8   38.88 4526.29
  12   8  -5  205.58 4880.94
  12   8  -2 7120.82 4811.68
  12   8   1 6467.15 5672.24
  12   8   414741.78 5577.78
  12   8   7 2051.71 4406.75
  12   8  10 3728.06 4734.87
  12   8  13 8016.06 4041.91
  12   8  1619858.08 4920.27
  12   8  1932461.28 5436.21
  12   8  2226007.14 5099.15
  12   9 -2112365.90 5013.48
  12   9 -18 4188.38 4528.33
  12   9 -1553627.76 5859.51
  12   9 -12139032.4 9950.46
  12   9  -994339.87 9839.60
  12   9  -624376.37 5804.57
  12   9  -3 2019.01 5739.59
  12   9   051110.03 8027.34
  12   9   3106611.010542.62
  12   9   6137971.211155.71
  12   9   932657.06 6579.02
  12   9  12   67.43 5389.77
  12   9  1510117.96 6247.64
  12   9  1884581.75 7267.03
  12   9  2171382.66 6684.84
  12  10 -1622200.83 6588.73
  12  10 -1320520.14 5643.05
  12  10 -1012285.75 5228.09
  12  10  -7  352.91 6251.23
  12  10  -419197.70 8016.87
  12  10  -119708.44 7092.29
  12  10   240903.13 8411.48
  12  10   5 2008.83 5498.97
  12  10   8  496.60 5735.18
  12  10  11 4246.21 6243.55
  12  10  1424682.07 7020.96
  12  11  -811682.93 6221.67
  12  11  -5 8960.13 5573.90
  12  11  -2 4849.61 6392.24
  12  11   118265.16 8138.53
  12  11   436401.54 7954.54
  12  11   7 8598.38 6120.18
  12  11  10  300.31 6330.28
  13   0 -3533419.4110288.49
  13   0 -32 7314.00 8197.39
  13   0 -29  319.16 6203.69
  13   0 -2621669.42 4690.43
  13   0 -2335342.03 6072.65
  13   0 -2045835.14 5393.31
  13   0 -1727052.74 4534.25
  13   0 -14  665.43 4231.29
  13   0 -11  162.19 5159.20
  13   0  -8  465.17 5108.14
  13   0  -511244.51 4147.97
  13   0  -2 1490.02 4622.56
  13   0   1  213.19 3469.48
  13   0   417204.67 4945.74
  13   0   7 1368.12 5551.12
  13   0  10 1177.43 5340.89
  13   0  1363716.81 8467.54
  13   0  1627518.64 6697.50
  13   0  19  677.46 5219.35
  13   0  22 1393.40 5076.86
  13   0  2514037.69 6384.38
  13   0  28 1354.43 6265.71
  13   0  3131246.25 6799.23
  13   0  3422762.42 8165.88
  13   0  3710029.33 9085.62
  13   1 -3622705.97 7693.86
  13   1 -3316725.27 5849.92
  13   1 -30  257.65 4577.20
  13   1 -27 4964.29 4331.03
  13   1 -2436798.37 3922.88
  13   1 -2122732.32 3300.12
  13   1 -1829407.56 3659.98
  13   1 -15 4059.06 3039.48
  13   1 -12  289.62 3297.96
  13   1  -932000.79 3471.64
  13   1  -6139883.5 5662.83
  13   1  -3104298.3 5366.97
  13   1   044308.88 5080.22
  13   1   3  354.57 3861.89
  13   1   6 8555.08 3506.10
  13   1   9106115.9 6979.48
  13   1  12121812.5 7259.34
  13   1  1558053.00 5368.22
  13   1  18 1015.62 3756.45
  13   1  21 5685.90 3355.77
  13   1  2441612.1610048.34
  13   1  2759325.23 5070.77
  13   1  3031693.43 5460.16
  13   1  33 2642.50 6016.53
  13   1  36 2900.74 6492.65
  13   2 -34 2391.12 6583.12
  13   2 -31 6211.66 4969.53
  13   2 -28  687.88 4727.55
  13   2 -25   22.90 3686.14
  13   2 -22 1205.36 3637.07
  13   2 -1914928.96 3428.92
  13   2 -1614602.95 3149.41
  13   2 -1320984.19 3476.31
  13   2 -10 1596.98 3219.30
  13   2  -7 6596.43 3385.77
  13   2  -421423.82 3787.78
  13   2  -1  242.66 2962.64
  13   2   227763.84 7229.44
  13   2   516015.00 3818.53
  13   2   8 1240.18 3927.30
  13   2  1150021.53 5956.96
  13   2  1414636.37 3229.90
  13   2  1718479.08 3608.16
  13   2  2022410.25 3805.33
  13   2  23 2136.85 3554.46
  13   2  26 3685.66 3553.05
  13   2  2935770.12 5943.21
  13   2  3229961.88 5891.02
  13   3 -32 2655.40 8123.41
  13   3 -29 5014.68 5409.81
  13   3 -26 1024.14 3610.65
  13   3 -23  169.81 3572.20
  13   3 -20 8675.65 3297.28
  13   3 -1710463.94 3258.20
  13   3 -1418800.75 3450.29
  13   3 -1131027.24 4886.14
  13   3  -816709.63 3478.93
  13   3  -5  890.55 3468.18
  13   3  -240233.83 5006.27
  13   3   125347.14 5402.56
  13   3   4 1467.78 4689.67
  13   3   7  265.69 4126.32
  13   3  10 7029.35 3532.93
  13   3  1348848.18 6598.79
  13   3  1676822.94 5494.94
  13   3  1926881.99 6265.61
  13   3  22  681.38 3799.55
  13   3  25 5521.25 3603.99
  13   3  2811247.78 5053.49
  13   3  31 3025.92 4801.57
  13   4 -3020552.42 6028.24
  13   4 -2737179.21 6085.46
  13   4 -2421793.99 4006.68
  13   4 -21 1971.57 3821.12
  13   4 -18 5018.77 3451.69
  13   4 -1543823.40 4542.11
  13   4 -1264349.45 5048.23
  13   4  -939490.02 5398.10
  13   4  -6 8844.12 4231.08
  13   4  -347389.95 6140.39
  13   4   090679.47 7037.19
  13   4   398033.19 7205.21
  13   4   619562.32 4525.84
  13   4   9  141.55 3828.70
  13   4  1215214.92 3853.61
  13   4  1562565.17 5756.16
  13   4  1847978.37 5050.19
  13   4  2122051.62 4530.84
  13   4  24 2482.46 3616.41
  13   4  27 2515.06 4049.33
  13   4  30 6342.20 4602.51
  13   5 -28 5721.05 5897.04
  13   5 -2511103.57 3855.29
  13   5 -22 3281.81 3604.16
  13   5 -19  885.59 3465.45
  13   5 -16 3401.01 3225.79
  13   5 -1310597.11 5849.17
  13   5 -1011977.65 4428.02
  13   5  -7  267.46 4552.44
  13   5  -4 5000.32 4392.29
  13   5  -1   96.61 3964.81
  13   5   2 1920.23 3692.30
  13   5   524156.93 5941.21
  13   5   810693.80 3821.05
  13   5  11 1471.37 3965.03
  13   5  14 4027.97 4167.46
  13   5  17  879.31 3979.45
  13   5  20 8305.76 3821.42
  13   5  23 2586.71 3943.70
  13   5  26 3927.61 4325.36
  13   5  29 2298.78 4798.39
  13   6 -2650334.16 7001.21
  13   6 -2319728.22 4349.20
  13   6 -20 2575.74 3891.58
  13   6 -17 5483.16 4145.25
  13   6 -1427379.05 4745.69
  13   6 -1165420.54 5869.12
  13   6  -852473.96 6197.42
  13   6  -5  383.56 5020.27
  13   6  -2 4980.91 4939.74
  13   6   1106118.8 8221.88
  13   6   478061.00 7082.40
  13   6   735136.36 7119.56
  13   6  10 4605.74 4151.14
  13   6  13  689.56 4430.97
  13   6  1610643.89 4173.41
  13   6  1963928.61 6633.90
  13   6  2233931.95 5571.53
  13   6  25 4665.74 3956.99
  13   7 -2410102.82 4218.03
  13   7 -21 8514.49 4466.80
  13   7 -18 6154.10 4119.21
  13   7 -15 2249.95 4123.08
  13   7 -12 1206.89 4222.22
  13   7  -9 4865.48 5024.91
  13   7  -6  700.28 4678.70
  13   7  -3 5190.29 5256.86
  13   7   0   34.50 5485.24
  13   7   3 5908.87 4018.76
  13   7   617768.05 4519.04
  13   7   917420.49 4423.74
  13   7  12 9330.04 4160.44
  13   7  15 1812.39 4533.45
  13   7  18 2137.95 4170.20
  13   7  21 4200.01 4862.21
  13   7  24 1975.80 4483.35
  13   8 -19 2617.65 4378.38
  13   8 -16 2967.14 4423.40
  13   8 -1343073.22 6727.40
  13   8 -1076775.7711223.54
  13   8  -735793.93 5876.18
  13   8  -414192.67 6937.59
  13   8  -1 2980.57 4924.35
  13   8   215721.62 5707.23
  13   8   561672.48 7726.16
  13   8   836621.18 6319.02
  13   8  11  878.38 5212.44
  13   8  14  371.35 4836.77
  13   8  1714206.97 5071.22
  13   8  2012523.06 5227.22
  13   9 -14 4689.78 5343.15
  13   9 -11 1696.92 5063.57
  13   9  -8  586.02 5069.99
  13   9  -5 7737.29 5021.00
  13   9  -2 1496.98 5106.06
  13   9   1   98.12 5018.15
  13   9   410118.05 7538.91
  13   9   7 5210.86 4985.69
  13   9  10 2398.39 5039.70
  13   9  13  997.32 5175.23
  13   9  16 3636.57 4496.27
  13  10  -910979.32 5507.04
  13  10  -611877.01 5921.16
  13  10  -3 3127.17 5277.17
  13  10   0 2094.02 5275.59
  13  10   310164.54 6197.79
  13  10   6 3495.62 5183.86
  13  10   9  303.07 5514.27
  14   0 -34143456.615732.50
  14   0 -3113528.99 7059.74
  14   0 -28 8710.95 6582.04
  14   0 -25167126.210730.93
  14   0 -22266079.712325.16
  14   0 -19170367.2 9995.35
  14   0 -1661900.43 6540.47
  14   0 -1311102.31 4260.43
  14   0 -10212424.910657.75
  14   0  -7561763.815863.38
  14   0  -4239708.4 9893.49
  14   0  -1131179.910714.50
  14   0   2 5051.24 5410.44
  14   0   558675.25 7243.50
  14   0   8345428.116697.48
  14   0  11386889.817445.96
  14   0  14170104.211941.97
  14   0  1715133.56 7969.90
  14   0  2028180.19 4955.31
  14   0  23220810.211826.37
  14   0  26275234.814380.95
  14   0  29207068.916428.48
  14   0  3254154.87 8219.67
  14   0  35 6274.05 8964.42
  14   1 -32   37.01 7850.63
  14   1 -29 2616.06 4905.46
  14   1 -2618975.75 3860.53
  14   1 -2327311.00 3937.35
  14   1 -2016702.58 3629.75
  14   1 -17 2406.64 3303.26
  14   1 -1416496.82 3273.40
  14   1 -11112972.3 6104.73
  14   1  -8217697.8 7450.60
  14   1  -5160131.1 5955.64
  14   1  -218859.90 3216.31
  14   1   1 4989.43 3975.54
  14   1   470491.25 5998.03
  14   1   7151037.6 8422.36
  14   1  1063785.32 5924.29
  14   1  13 6076.40 3810.49
  14   1  1612776.24 3721.21
  14   1  1964229.72 5589.44
  14   1  2299351.22 5842.36
  14   1  2562044.78 5068.47
  14   1  2816102.55 5209.60
  14   1  31 1530.58 4826.98
  14   2 -30  310.49 5057.69
  14   2 -2712901.21 4728.66
  14   2 -2446656.76 4604.69
  14   2 -2167950.77 5329.37
  14   2 -1861293.75 5190.97
  14   2 -15 6602.06 3302.06
  14   2 -12 1917.10 3480.22
  14   2  -950649.57 4213.41
  14   2  -657754.99 4727.02
  14   2  -3175423.0 8637.15
  14   2   043526.34 5109.84
  14   2   3  105.09 5165.60
  14   2   666846.97 5279.86
  14   2   9210008.4 8639.28
  14   2  12203228.1 7916.90
  14   2  15144129.6 7004.80
  14   2  18 1864.31 3708.03
  14   2  2139484.44 4441.62
  14   2  24129638.8 6661.64
  14   2  27137525.8 7816.56
  14   2  3026060.43 5586.54
  14   3 -2878361.61 7892.02
  14   3 -2583145.68 5965.79
  14   3 -2218452.12 4223.60
  14   3 -19   63.67 3645.59
  14   3 -1630689.68 4075.35
  14   3 -13173607.7 7593.83
  14   3 -10267375.5 9056.52
  14   3  -773912.39 6738.55
  14   3  -4 4151.28 4221.08
  14   3  -147599.24 7052.04
  14   3   2123294.4 8360.21
  14   3   5210746.210504.52
  14   3   8137825.1 7841.18
  14   3  11 9482.85 4221.53
  14   3  1420801.29 3906.76
  14   3  1771794.05 5721.23
  14   3  20115141.4 6892.63
  14   3  23110331.1 6134.17
  14   3  2657396.98 4983.47
  14   3  29 3132.00 4769.02
  14   4 -2619940.19 6746.86
  14   4 -2326760.19 5182.80
  14   4 -20 9058.30 3633.06
  14   4 -17  512.41 3868.94
  14   4 -14 1929.08 3618.95
  14   4 -11 6071.75 4583.65
  14   4  -817033.60 4718.67
  14   4  -521677.87 4644.49
  14   4  -2  198.63 4783.09
  14   4   1  224.01 4695.68
  14   4   419015.87 3971.07
  14   4   758215.63 5961.78
  14   4  1031803.50 5906.55
  14   4  1336225.07 5720.90
  14   4  16  309.11 3961.68
  14   4  19 8238.05 3840.11
  14   4  2242705.49 5493.35
  14   4  2536582.88 4762.54
  14   4  2814330.88 4928.95
  14   5 -2497807.89 6757.54
  14   5 -2134937.55 4809.20
  14   5 -18 1800.59 3961.45
  14   5 -1563963.49 7296.68
  14   5 -12181289.610534.33
  14   5  -9151545.7 8993.48
  14   5  -629677.00 5932.62
  14   5  -3 2382.32 4621.72
  14   5   0125108.6 8748.24
  14   5   3278856.011993.10
  14   5   6255767.910137.43
  14   5   957562.19 5776.37
  14   5  12 4107.21 4182.81
  14   5  1513537.76 4348.47
  14   5  18132176.5 8543.39
  14   5  21141231.1 8396.79
  14   5  2477534.63 6729.29
  14   6 -22 4270.46 4421.04
  14   6 -19  429.61 4846.58
  14   6 -16  600.80 5032.78
  14   6 -13 4832.37 4654.88
  14   6 -1012760.32 4757.01
  14   6  -7 4737.89 4453.37
  14   6  -4 2156.96 4792.46
  14   6  -1  356.30 5308.43
  14   6   2 5980.81 4106.99
  14   6   526745.40 4931.72
  14   6   8 2931.84 4009.42
  14   6  11 2747.94 4196.00
  14   6  14 4869.00 4468.40
  14   6  17 9492.87 4545.90
  14   6  2024100.24 5087.98
  14   6  2312459.09 4703.58
  14   7 -20 2870.12 5191.72
  14   7 -17 5260.64 4937.32
  14   7 -1457969.88 6922.49
  14   7 -1180155.47 7755.34
  14   7  -882319.06 8698.65
  14   7  -520573.84 5654.98
  14   7  -2 6309.20 4781.68
  14   7   144434.79 9235.29
  14   7   4164400.910203.71
  14   7   796864.5210032.05
  14   7  1019304.49 5728.45
  14   7  13  129.90 4728.15
  14   7  1636701.95 5921.43
  14   7  1960464.39 6897.70
  14   8 -1531663.93 6225.65
  14   8 -1220153.70 5377.96
  14   8  -9 3581.53 5248.68
  14   8  -6 6289.30 4897.76
  14   8  -3 6626.13 5166.97
  14   8   017592.27 5202.44
  14   8   3 7827.06 5335.65
  14   8   6 3682.47 5084.47
  14   8   9 1490.52 4833.25
  14   8  12 6024.38 5242.74
  14   8  1520233.77 5262.38
  14   9  -731492.94 6637.80
  14   9  -4 1496.53 5445.72
  14   9  -1 4000.79 5097.34
  14   9   244565.75 6984.30
  14   9   520164.91 6163.59
  14   9   8 4192.74 5273.26
  15   0 -3013357.38 7515.72
  15   0 -27 5993.13 6928.28
  15   0 -24  677.87 5482.60
  15   0 -2116744.94 5447.11
  15   0 -1835360.15 6155.80
  15   0 -1565843.52 6958.68
  15   0 -1221674.93 5424.52
  15   0  -932947.56 6112.13
  15   0  -696835.87 7567.68
  15   0  -3  930.72 6145.47
  15   0   030083.14 6391.64
  15   0   355767.57 8691.10
  15   0   612555.77 7095.50
  15   0   9 1906.42 6588.24
  15   0  12 1831.42 5577.30
  15   0  1566064.92 8321.16
  15   0  18123723.310055.16
  15   0  2125979.21 8163.73
  15   0  24   90.01 5522.47
  15   0  2720351.92 6049.66
  15   0  3038085.83 7520.08
  15   1 -31 1240.81 5063.34
  15   1 -28  498.02 5347.64
  15   1 -25 3102.71 3943.37
  15   1 -22 9515.66 3634.23
  15   1 -19 4164.40 3678.10
  15   1 -16 1629.65 3380.56
  15   1 -13  214.98 3930.00
  15   1 -10 1946.97 3667.09
  15   1  -711763.91 3163.44
  15   1  -440676.11 5907.27
  15   1  -113851.16 6415.80
  15   1   2  411.14 4623.78
  15   1   5 1285.44 4845.28
  15   1   8 2491.66 4350.83
  15   1  1138673.88 6034.90
  15   1  1447637.63 5708.24
  15   1  17 4395.22 4156.22
  15   1  20 3253.19 3843.91
  15   1  23 5858.82 3577.91
  15   1  26 5415.94 3633.04
  15   1  29 1130.40 4781.24
  15   2 -2940639.38 6556.77
  15   2 -2620434.26 5672.09
  15   2 -23  784.58 3942.81
  15   2 -20 9656.19 3678.56
  15   2 -1774691.17 5671.35
  15   2 -1484085.47 6206.99
  15   2 -11112061.2 6311.18
  15   2  -824537.00 5601.60
  15   2  -537819.17 5660.63
  15   2  -2122975.310492.04
  15   2   1134848.1 8577.27
  15   2   474312.93 6783.63
  15   2   7 7938.43 4504.03
  15   2  10 6559.96 4186.64
  15   2  13117368.3 6890.79
  15   2  16126363.2 7052.57
  15   2  1950143.17 5290.27
  15   2  22 7767.94 3722.98
  15   2  25 1651.92 3677.17
  15   2  2815290.08 5420.54
  15   3 -27 2816.98 5115.69
  15   3 -24 2224.32 3699.13
  15   3 -21 1659.82 3793.19
  15   3 -18 2421.27 3646.55
  15   3 -15 1231.10 3668.63
  15   3 -12 1221.43 4262.60
  15   3  -9  692.22 4463.13
  15   3  -6  617.07 4775.84
  15   3  -310729.69 5792.47
  15   3   0 4581.62 4913.14
  15   3   3   35.84 6063.76
  15   3   6  803.00 5905.06
  15   3   9 1767.59 4460.50
  15   3  12 4071.63 4570.17
  15   3  15 6018.12 4098.24
  15   3  18   94.36 4320.21
  15   3  21   75.10 4260.36
  15   3  24 2311.76 3764.75
  15   3  27 3924.52 5075.56
  15   4 -2529504.18 6503.85
  15   4 -22 1582.22 3785.75
  15   4 -19 8535.78 4343.09
  15   4 -1658161.54 6164.96
  15   4 -13131547.8 8776.90
  15   4 -1072504.42 7587.52
  15   4  -7 1650.90 4611.91
  15   4  -422017.26 6333.97
  15   4  -1127096.1 8940.63
  15   4   2176994.9 8714.98
  15   4   575512.72 6365.77
  15   4   8 3710.84 4633.18
  15   4  1112747.33 4748.75
  15   4  1455060.99 5902.54
  15   4  1793633.58 7083.70
  15   4  2033036.46 5539.16
  15   4  23 8843.16 4446.66
  15   5 -2016870.38 4769.29
  15   5 -1711867.77 4837.52
  15   5 -14 2568.34 5039.60
  15   5 -11  404.31 4964.31
  15   5  -8 5754.73 4944.90
  15   5  -514509.54 5104.74
  15   5  -2 5389.07 5014.80
  15   5   1 1675.21 4213.59
  15   5   4 1422.70 4195.07
  15   5   717240.04 4712.75
  15   5  1037346.66 5416.17
  15   5  1324868.48 5102.94
  15   5  16 6632.20 4671.25
  15   5  19 1754.02 4716.74
  15   5  22 3129.36 4507.70
  15   6 -1814993.65 5317.58
  15   6 -1565571.34 7848.25
  15   6 -1263495.72 8037.58
  15   6  -923477.75 6441.57
  15   6  -6 1405.71 5045.86
  15   6  -317790.64 5373.20
  15   6   041781.97 6449.33
  15   6   374524.72 7802.09
  15   6   623547.74 5854.55
  15   6   9 2464.32 4678.97
  15   6  1215296.11 4599.77
  15   6  1520226.06 5038.97
  15   6  1815635.69 5056.64
  15   7 -1315762.49 6262.95
  15   7 -10 4153.25 5414.29
  15   7  -723835.80 6367.26
  15   7  -422556.94 6269.44
  15   7  -1 9748.87 5444.82
  15   7   2   42.43 5279.99
  15   7   5 1415.48 4822.31
  15   7   821860.52 6054.05
  15   7  1134617.16 7182.24
  15   7  1415950.09 5014.18
  15   8  -5  735.75 5127.94
  15   8  -2  552.42 5112.37
  15   8   1 5930.78 5205.25
  15   8   4 3160.35 5547.37
  16   0 -29 1125.78 8433.77
  16   0 -26  237.63 7769.73
  16   0 -2338852.83 7169.50
  16   0 -2081804.42 8905.71
  16   0 -1753236.57 6592.89
  16   0 -1422943.03 5743.69
  16   0 -11  300.62 5768.49
  16   0  -8 3457.64 4548.66
  16   0  -5213685.414804.87
  16   0  -2144576.116353.00
  16   0   119525.09 7488.00
  16   0   4 1653.90 7701.98
  16   0   735328.53 7878.88
  16   0  10164335.014327.51
  16   0  13258479.116184.42
  16   0  1664868.27 8687.92
  16   0  19  645.06 5797.90
  16   0  2229238.07 5919.47
  16   0  2543184.82 6832.51
  16   0  28 5690.96 6616.85
  16   1 -27 7509.92 4996.14
  16   1 -24 3469.67 3680.03
  16   1 -21 3152.99 3496.27
  16   1 -18 4508.82 3749.21
  16   1 -1520416.71 4697.50
  16   1 -1224345.85 4918.21
  16   1  -9 9557.14 4309.03
  16   1  -618211.17 5472.31
  16   1  -3 4158.80 5282.31
  16   1   019399.99 5003.70
  16   1   332973.67 4942.55
  16   1   629812.17 6740.28
  16   1   931143.53 5345.49
  16   1  1212498.09 5852.53
  16   1  15 5694.13 4732.09
  16   1  1830970.95 4468.83
  16   1  2139097.14 4316.02
  16   1  2414765.01 3942.50
  16   1  27 2071.23 4738.97
  16   2 -25 6865.06 4984.69
  16   2 -2215512.81 4165.27
  16   2 -1913672.58 3837.27
  16   2 -16 8007.62 4066.85
  16   2 -13 1131.79 4553.79
  16   2 -10 2996.88 5017.75
  16   2  -749976.82 6475.83
  16   2  -436680.97 5997.47
  16   2  -1 9014.15 4559.16
  16   2   2  678.89 5208.62
  16   2   5  538.26 5296.93
  16   2   837070.61 5836.15
  16   2  11110261.4 8185.56
  16   2  1435206.10 7123.39
  16   2  17 2494.06 4757.69
  16   2  20 4640.64 4282.73
  16   2  23 5636.49 3783.98
  16   2  26 5365.52 4150.34
  16   3 -2334340.08 4845.01
  16   3 -20 5083.16 4396.95
  16   3 -1713916.79 4296.47
  16   3 -1449448.25 5913.39
  16   3 -1172914.41 7475.61
  16   3  -886363.57 8683.06
  16   3  -520049.51 5406.12
  16   3  -237026.43 5905.71
  16   3   1113501.6 8457.46
  16   3   4100930.0 8629.64
  16   3   792552.93 7428.38
  16   3  1046508.31 5734.19
  16   3  13 1649.91 4277.94
  16   3  1654370.74 5740.98
  16   3  1957303.54 6286.01
  16   3  2223550.45 4733.25
  16   4 -21 8532.26 5512.33
  16   4 -18 4085.54 4546.68
  16   4 -15    4.43 5434.58
  16   4 -12 3144.42 4951.66
  16   4  -914900.48 5701.72
  16   4  -616668.56 5227.29
  16   4  -3 1232.13 5049.99
  16   4   0    6.69 5750.24
  16   4   3 4872.24 4775.93
  16   4   6 7759.67 4455.25
  16   4   922996.76 5270.99
  16   4  12 2768.16 4331.30
  16   4  15  748.81 4772.21
  16   4  18 2628.37 4641.93
  16   4  21 3661.59 4754.63
  16   5 -1613396.22 5609.54
  16   5 -1363274.76 7552.44
  16   5 -10117246.7 9641.92
  16   5  -777842.64 8230.78
  16   5  -4 2949.15 5251.23
  16   5  -123596.19 5330.00
  16   5   283033.43 8328.71
  16   5   5113219.0 8153.92
  16   5   869121.55 6713.67
  16   5  11 6136.29 4797.55
  16   5  1414352.11 5369.14
  16   5  1717425.64 5035.58
  16   6 -1119780.62 5981.76
  16   6  -8 9486.74 6006.70
  16   6  -5 2963.68 5600.48
  16   6  -2 3578.19 5036.06
  16   6   1 2120.17 5435.75
  16   6   4 8240.50 5347.07
  16   6   714905.49 5681.74
  16   6  10 1976.65 5936.11
  17   0 -25  262.47 7440.85
  17   0 -22 5894.59 5211.03
  17   0 -1984405.93 8766.88
  17   0 -16112045.1 9735.06
  17   0 -13133236.512356.86
  17   0 -10  142.53 7617.39
  17   0  -745928.43 7806.39
  17   0  -4107465.011631.96
  17   0  -1105887.311491.51
  17   0   299337.7311542.78
  17   0   518352.1716601.50
  17   0   8 1452.61 8154.69
  17   0  1158923.7918375.00
  17   0  1453800.43 9629.29
  17   0  1780516.40 8564.53
  17   0  2031689.67 6901.41
  17   0  23 4043.45 4881.48
  17   0  26 1554.54 6168.03
  17   1 -23   32.43 4102.69
  17   1 -20 3853.70 3757.65
  17   1 -1710454.15 5384.62
  17   1 -14 4798.06 4621.18
  17   1 -11   48.18 5294.06
  17   1  -8 1737.09 4706.13
  17   1  -521703.42 5153.60
  17   1  -212412.14 4974.56
  17   1   1 5417.25 4930.36
  17   1   4   23.15 5641.04
  17   1   7  114.88 5746.18
  17   1  10 2591.25 4599.66
  17   1  13 7112.76 4379.19
  17   1  16 4057.01 4335.56
  17   1  19 2444.53 4365.69
  17   1  22   91.35 4112.44
  17   2 -2112071.05 4817.80
  17   2 -1861084.08 6906.51
  17   2 -15102956.8 8428.52
  17   2 -1222839.57 6913.75
  17   2  -9  118.38 5323.13
  17   2  -620099.25 5559.23
  17   2  -3115466.7 8924.79
  17   2   0192582.710845.18
  17   2   384397.88 8385.24
  17   2   616496.87 5012.04
  17   2   9 4226.89 4325.54
  17   2  1231369.61 5115.51
  17   2  15104980.1 7583.45
  17   2  1873292.75 6878.34
  17   2  2111543.33 4234.95
  17   3 -1919354.11 5613.38
  17   3 -16 4600.62 4991.58
  17   3 -13   22.94 5566.15
  17   3 -10 6168.33 5175.24
  17   3  -718263.85 5419.81
  17   3  -4 8334.66 5079.28
  17   3  -1 6797.58 5007.14
  17   3   2  347.88 5647.16
  17   3   5 1410.51 4286.97
  17   3   817249.05 4924.93
  17   3  1119383.88 5060.70
  17   3  1410507.61 4852.60
  17   3  17 5874.03 4468.34
  17   4 -1427226.10 6269.28
  17   4 -1117163.78 5716.64
  17   4  -8 1810.77 5468.71
  17   4  -510274.22 5100.68
  17   4  -251195.98 7039.46
  17   4   164047.03 7570.14
  17   4   442434.37 5812.25
  17   4   7 3611.05 4659.28
  17   4  1011572.72 4794.45
  17   4  1336382.75 5600.50
  17   5  -913505.78 8428.16
  17   5  -626916.16 6834.58
  17   5  -322302.35 9192.28
  17   5   0 1391.90 5353.87
  17   5   3   64.33 6036.25
  17   5   6 6637.58 5285.90
  17   5   924783.00 6181.47
  18   0 -21 5408.12 7022.63
  18   0 -18 4585.59 6916.37
  18   0 -15 5338.19 6843.11
  18   0 -12   63.32 7660.63
  18   0  -9  399.19 6731.62
  18   0  -6  592.00 7056.89
  18   0  -3 5239.06 7148.72
  18   0   012808.6613823.00
  18   0   3 2145.91 7885.46
  18   0   6   81.47 7886.67
  18   0   9 3657.58 6717.01
  18   0  12 4777.27 6690.63
  18   0  15 2928.26 5826.09
  18   0  18 4734.60 6289.27
  18   0  21 2065.98 5960.17
  18   1 -19 6985.73 4800.48
  18   1 -1621773.18 5651.70
  18   1 -1311621.17 4960.70
  18   1 -10 5731.49 5278.09
  18   1  -7  477.70 5202.71
  18   1  -413290.71 5596.85
  18   1  -144725.82 9578.24
  18   1   230290.14 5879.38
  18   1   513340.65 6991.55
  18   1   8 1396.96 5484.52
  18   1  11  925.33 4433.70
  18   1  1411406.98 4923.84
  18   1  1723449.31 5131.04
  18   1  2016233.80 4763.60
  18   2 -14  225.78 5577.03
  18   2 -11   75.91 5584.91
  18   2  -8  274.44 4989.08
  18   2  -5 1378.29 4928.17
  18   2  -2 6559.45 5299.46
  18   2   1   77.85 5821.40
  18   2   4 1081.50 5700.20
  18   2   7 1418.48 5082.78
  18   2  10  551.31 4366.08
  18   2  13   49.02 4567.22
  18   2  16  817.38 4705.78
  18   3 -1218608.17 6043.27
  18   3  -912684.38 5670.89
  18   3  -6 2614.05 5174.27
  18   3  -3 4631.73 5149.54
  18   3   025433.39 6827.02
  18   3   337960.43 5679.99
  18   3   6 9074.38 4669.16
  18   3   9 2258.44 4633.75
  18   3  12 3902.02 4714.18
  18   4  -4 3908.88 5665.47
  18   4  -1  155.62 5406.70
  18   4   2 1937.61 5660.17
  19   0 -1786653.2211474.02
  19   0 -1441580.85 9500.74
  19   0 -1115972.56 7827.70
  19   0  -8   20.00 7492.39
  19   0  -587508.6512374.77
  19   0  -2216294.416425.86
  19   0   1118535.013758.88
  19   0   441875.5610039.50
  19   0   7 5668.44 8029.91
  19   0  10 5434.12 7039.61
  19   0  1372481.7211175.04
  19   0  1678020.67 9740.26
  19   1 -12  233.52 5254.67
  19   1  -9 1071.43 5211.48
  19   1  -616153.37 5330.71
  19   1  -333358.60 7314.16
  19   1   025396.21 7647.73
  19   1   3 2116.83 5201.28
  19   1   6 1919.36 5037.68
  19   1   9 5961.95 5013.89
  19   1  1213707.69 4829.65
  19   2  -7 9747.69 5553.85
  19   2  -467786.69 7919.51
  19   2  -180443.61 8621.46
  19   2   271051.04 8201.36
  19   2   5 8120.30 5305.36
  19   2   8  943.19 4422.10
  20   0  -7   63.17 8031.92
  20   0  -4  832.27 7541.16
  20   0  -1 4411.39 7827.46
  20   0   2 6777.83 7837.94
  20   0   5 5653.59 7600.18
  20   0   8 4996.24 7341.71
   0   0   0    0.00    0.00
;
_shelx_hkl_checksum              72054
_shelx_shelxl_version_number     2014/7
_olex2_submission_special_instructions 'No special instructions were received'
loop_
_space_group_symop_operation_xyz
'x, y, z'
'-y, x-y, z'
'y, x, -z'
'-x+y, -x, z'
'x-y, -y, -z'
'-x, -x+y, -z'
'x+2/3, y+1/3, z+1/3'
'-y+2/3, x-y+1/3, z+1/3'
'y+2/3, x+1/3, -z+1/3'
'-x+y+2/3, -x+1/3, z+1/3'
'x-y+2/3, -y+1/3, -z+1/3'
'-x+2/3, -x+y+1/3, -z+1/3'
'x+1/3, y+2/3, z+2/3'
'-y+1/3, x-y+2/3, z+2/3'
'y+1/3, x+2/3, -z+2/3'
'-x+y+1/3, -x+2/3, z+2/3'
'x-y+1/3, -y+2/3, -z+2/3'
'-x+1/3, -x+y+2/3, -z+2/3'
'-x, -y, -z'
'y, -x+y, -z'
'-y, -x, z'
'x-y, x, -z'
'-x+y, y, z'
'x, x-y, z'
'-x+2/3, -y+1/3, -z+1/3'
'y+2/3, -x+y+1/3, -z+1/3'
'-y+2/3, -x+1/3, z+1/3'
'x-y+2/3, x+1/3, -z+1/3'
'-x+y+2/3, y+1/3, z+1/3'
'x+2/3, x-y+1/3, z+1/3'
'-x+1/3, -y+2/3, -z+2/3'
'y+1/3, -x+y+2/3, -z+2/3'
'-y+1/3, -x+2/3, z+2/3'
'x-y+1/3, x+2/3, -z+2/3'
'-x+y+1/3, y+2/3, z+2/3'
'x+1/3, x-y+2/3, z+2/3'
loop_
_atom_site_label
_atom_site_type_symbol
_atom_site_fract_x
_atom_site_fract_y
_atom_site_fract_z
_atom_site_U_iso_or_equiv
_atom_site_adp_type
_atom_site_occupancy
_atom_site_site_symmetry_order
_atom_site_calc_flag
_atom_site_refinement_flags_posn
_atom_site_refinement_flags_adp
_atom_site_refinement_flags_occupancy
_atom_site_disorder_assembly
_atom_site_disorder_group
Zn1 Zn 0.61407(3) 0.80703(2) 0.30146(2) 0.0371(3) Uani 1 2 d S T P . .
O1 O 0.55552(18) 0.70306(18) 0.33002(7) 0.0695(9) Uani 1 1 d . . . . .
O2 O 0.63282(17) 0.74215(18) 0.37719(7) 0.0688(9) Uani 1 1 d . U . . .
C7 C 0.5715(2) 0.6934(2) 0.36081(9) 0.0496(9) Uani 1 1 d . U . . .
C3 C 0.5283(3) 0.5987(3) 0.41126(10) 0.0685(13) Uani 1 1 d . . . . .
H3 H 0.5763 0.6364 0.4224 0.082 Uiso 1 1 calc R . . . .
C2 C 0.5139(2) 0.6136(2) 0.37744(9) 0.0538(10) Uani 1 1 d . . . . .
C1 C 0.44344(18) 0.55656(18) 0.36090(13) 0.0542(14) Uani 1 2 d S T P . .
H1 H 0.4342 0.5658 0.3381 0.065 Uiso 1 2 calc RS T P . .
C4 C 0.4717(2) 0.5283(2) 0.42862(14) 0.0651(18) Uani 1 2 d S T P A .
C5 C 0.4865(3) 0.5135(3) 0.46546(15) 0.077(2) Uani 1 2 d S T P . .
H5 H 0.5165 0.4835 0.4669 0.093 Uiso 0.56(3) 2 calc RS T P A 2
N1 N 0.5486(3) 0.77428(16) 0.25713(11) 0.073(2) Uani 0.666(15) 2 d S TU P A 1
C9 C 0.5117(9) 0.6982(10) 0.2038(3) 0.138(7) Uani 0.333(8) 1 d . . . A 1
H9 H 0.5051 0.6528 0.1914 0.166 Uiso 0.333(8) 1 calc R . . A 1
N2 N 0.4510(13) 0.7255(6) 0.1562(3) 0.088(6) Uani 0.333(8) 2 d DS T P A 1
C10 C 0.4976(12) 0.7488(6) 0.1904(3) 0.138(7) Uani 0.500(12) 2 d S T P A 1
C8 C 0.5376(7) 0.7109(10) 0.2375(4) 0.108(5) Uani 0.333(8) 1 d . U . A 1
H8 H 0.5485 0.6725 0.2476 0.130 Uiso 0.333(8) 1 calc R . . A 1
C6A C 0.4541(9) 0.4421(8) 0.4794(3) 0.159(9) Uani 0.719(14) 1 d . . . A 1
H6A H 0.4432 0.3911 0.4680 0.191 Uiso 0.719(14) 1 calc R . . A 1
C6B C 0.4191(9) 0.4828(11) 0.4899(4) 0.050(5) Uani 0.281(14) 1 d . . . A 2
H6B H 0.362(9) 0.459(8) 0.503(3) 0.060 Uiso 0.281(14) 1 d R . . A 2
O13 O 0.5486(3) 0.77428(16) 0.25713(11) 0.073(2) Uani 0.281(14) 2 d S TU P A 2
loop_
_atom_site_aniso_label
_atom_site_aniso_U_11
_atom_site_aniso_U_22
_atom_site_aniso_U_33
_atom_site_aniso_U_23
_atom_site_aniso_U_13
_atom_site_aniso_U_12
Zn1 0.0324(3) 0.0485(3) 0.0251(3) -0.00035(10) -0.00070(19) 0.01622(17)
O1 0.072(2) 0.0605(19) 0.0531(15) 0.0249(14) 0.0051(13) 0.0165(15)
O2 0.0459(15) 0.0563(17) 0.0648(16) 0.0126(13) -0.0079(12) -0.0041(13)
C7 0.0331(17) 0.047(2) 0.0458(19) 0.0122(15) 0.0004(12) 0.0034(14)
C3 0.055(3) 0.066(3) 0.047(2) 0.0091(19) -0.0116(18) 0.002(2)
C2 0.051(2) 0.055(2) 0.0417(18) 0.0120(17) -0.0039(16) 0.0159(19)
C1 0.053(2) 0.053(2) 0.045(3) 0.0046(12) -0.0046(12) 0.019(3)
C4 0.062(3) 0.062(3) 0.036(3) 0.0130(15) -0.0130(15) 0.006(3)
C5 0.073(3) 0.073(3) 0.044(3) 0.0187(18) -0.0187(18) 0.005(4)
N1 0.081(4) 0.094(3) 0.041(3) -0.0097(12) -0.019(2) 0.041(2)
C9 0.28(2) 0.132(17) 0.031(6) -0.031(8) -0.038(8) 0.120(17)
N2 0.151(17) 0.099(9) 0.032(7) -0.027(4) -0.055(9) 0.075(9)
C10 0.28(2) 0.132(17) 0.031(6) -0.031(8) -0.038(8) 0.120(17)
C8 0.132(10) 0.110(8) 0.094(8) -0.038(6) -0.045(7) 0.069(7)
C6A 0.153(12) 0.093(8) 0.082(6) 0.042(6) -0.056(7) -0.050(8)
C6B 0.038(8) 0.059(10) 0.032(7) 0.019(6) 0.001(5) 0.010(7)
O13 0.081(4) 0.094(3) 0.041(3) -0.0097(12) -0.019(2) 0.041(2)
loop_
_atom_type_symbol
_atom_type_description
_atom_type_scat_dispersion_real
_atom_type_scat_dispersion_imag
_atom_type_scat_source
C C 0.0033 0.0016 'International Tables Vol C Tables 4.2.6.8 and 6.1.1.4'
H H 0.0000 0.0000 'International Tables Vol C Tables 4.2.6.8 and 6.1.1.4'
N N 0.0061 0.0033 'International Tables Vol C Tables 4.2.6.8 and 6.1.1.4'
O O 0.0106 0.0060 'International Tables Vol C Tables 4.2.6.8 and 6.1.1.4'
Zn Zn 0.2839 1.4301 'International Tables Vol C Tables 4.2.6.8 and 6.1.1.4'
loop_
_geom_angle_atom_site_label_1
_geom_angle_atom_site_label_2
_geom_angle_atom_site_label_3
_geom_angle
_geom_angle_site_symmetry_1
_geom_angle_site_symmetry_3
O1 Zn1 Zn1 79.86(8) 24_565 31_665
O1 Zn1 Zn1 79.86(8) . 31_665
O1 Zn1 O1 87.97(19) . 24_565
O1 Zn1 O2 157.75(12) 24_565 18_655
O1 Zn1 O2 88.45(14) 24_565 31_665
O1 Zn1 O2 88.45(14) . 18_655
O1 Zn1 O2 157.74(12) . 31_665
O2 Zn1 Zn1 77.89(8) 31_665 31_665
O2 Zn1 Zn1 77.89(8) 18_655 31_665
O2 Zn1 O2 86.6(2) 18_655 31_665
N1 Zn1 Zn1 177.09(16) . 31_665
N1 Zn1 O1 102.20(13) . 24_565
N1 Zn1 O1 102.20(13) . .
N1 Zn1 O2 100.03(13) . 31_665
N1 Zn1 O2 100.03(13) . 18_655
O13 Zn1 Zn1 177.09(16) . 31_665
O13 Zn1 O1 102.20(13) . 24_565
O13 Zn1 O1 102.20(13) . .
O13 Zn1 O2 100.03(13) . 31_665
O13 Zn1 O2 100.03(13) . 18_655
C7 O1 Zn1 126.8(3) . .
C7 O2 Zn1 129.5(3) . 31_665
O1 C7 C2 116.5(3) . .
O2 C7 O1 125.3(3) . .
O2 C7 C2 118.0(3) . .
C2 C3 H3 119.6 . .
C2 C3 C4 120.8(4) . .
C4 C3 H3 119.6 . .
C3 C2 C7 119.4(3) . .
C1 C2 C7 121.2(3) . .
C1 C2 C3 119.1(4) . .
C2 C1 C2 121.3(5) 21_665 .
C2 C1 H1 119.3 21_665 .
C2 C1 H1 119.3 . .
C3 C4 C3 118.8(5) 21_665 .
C3 C4 C5 120.6(2) 21_665 .
C3 C4 C5 120.6(2) . .
C4 C5 H5 112.0 . .
C6A C5 C4 123.8(5) . .
C6A C5 C4 123.8(5) 21_665 .
C6A C5 C6A 99.1(12) 21_665 .
C6B C5 C4 118.9(7) . .
C6B C5 C4 118.9(7) 21_665 .
C6B C5 H5 112.0 21_665 .
C6B C5 H5 112.0 . .
C6B C5 C6B 79.2(15) 21_665 .
C8 N1 Zn1 123.3(8) 24_565 .
C8 N1 Zn1 123.3(8) . .
C8 N1 C8 109.0(16) 24_565 .
C10 C9 H9 121.3 . .
C10 C9 C8 117.4(17) . .
C8 C9 H9 121.3 . .
C9 C10 C9 125.2(17) 24_565 .
C9 C10 N2 117.2(8) . .
C9 C10 N2 117.2(8) 24_565 .
N1 C8 C9 125.2(17) . .
N1 C8 H8 117.4 . .
C9 C8 H8 117.4 . .
C5 C6A C6A 40.5(6) . 21_665
C5 C6A C6A 106.7(16) . 3_556
C5 C6A H6A 126.6 . .
C6A C6A C6A 90.000(11) 3_556 21_665
C6A C6A H6A 126.6 3_556 .
C6A C6A H6A 126.6 21_665 .
C5 C6B C6B 50.4(8) . 21_665
C5 C6B H6B 168(7) . .
C6B C6B H6B 136(7) 21_665 .
loop_
_geom_bond_atom_site_label_1
_geom_bond_atom_site_label_2
_geom_bond_distance
_geom_bond_site_symmetry_2
Zn1 Zn1 2.9979(9) 31_665
Zn1 O1 2.026(3) .
Zn1 O1 2.026(3) 24_565
Zn1 O2 2.039(3) 31_665
Zn1 O2 2.039(3) 18_655
Zn1 N1 2.016(4) .
Zn1 O13 2.016(4) .
O1 C7 1.260(4) .
O2 Zn1 2.039(3) 31_665
O2 C7 1.232(4) .
C7 C2 1.488(5) .
C3 H3 0.9300 .
C3 C2 1.389(5) .
C3 C4 1.389(5) .
C2 C1 1.377(4) .
C1 C2 1.377(4) 21_665
C1 H1 0.9300 .
C4 C3 1.389(5) 21_665
C4 C5 1.500(7) .
C5 H5 0.9800 .
C5 C6A 1.284(11) .
C5 C6A 1.284(11) 21_665
C5 C6B 1.449(16) 21_665
C5 C6B 1.449(16) .
N1 C8 1.339(17) 24_565
N1 C8 1.339(17) .
C9 H9 0.9300 .
C9 C10 1.223(17) .
C9 C8 1.369(19) .
N2 C10 1.525(18) .
C10 C9 1.223(17) 24_565
C8 H8 0.9300 .
C6A C6A 1.954(16) 21_665
C6A C6A 1.64(3) 3_556
C6A H6A 0.9800 .
C6B C6B 1.85(3) 21_665
C6B H6B 1.06(14) .
loop_
_geom_torsion_atom_site_label_1
_geom_torsion_atom_site_label_2
_geom_torsion_atom_site_label_3
_geom_torsion_atom_site_label_4
_geom_torsion
_geom_torsion_site_symmetry_1
_geom_torsion_site_symmetry_4
Zn1 O1 C7 O2 -10.9(7) . .
Zn1 O1 C7 C2 173.7(3) . .
Zn1 O2 C7 O1 10.7(7) 31_665 .
Zn1 O2 C7 C2 -174.0(3) 31_665 .
Zn1 N1 C8 C9 -163.2(7) . .
O1 C7 C2 C3 179.5(4) . .
O1 C7 C2 C1 -5.3(7) . .
O2 C7 C2 C3 3.8(7) . .
O2 C7 C2 C1 179.0(4) . .
C7 C2 C1 C2 -173.9(4) . 21_665
C3 C2 C1 C2 1.3(9) . 21_665
C3 C4 C5 C6A -156.2(14) . .
C3 C4 C5 C6A 23.8(16) 21_665 .
C3 C4 C5 C6A 156.2(14) 21_665 21_665
C3 C4 C5 C6A -23.8(16) . 21_665
C3 C4 C5 C6B -136.7(11) 21_665 21_665
C3 C4 C5 C6B -43.3(13) 21_665 .
C3 C4 C5 C6B 43.3(13) . 21_665
C3 C4 C5 C6B 136.7(11) . .
C2 C3 C4 C3 1.6(11) . 21_665
C2 C3 C4 C5 -178.4(6) . .
C4 C3 C2 C7 173.9(5) . .
C4 C3 C2 C1 -1.4(8) . .
C4 C5 C6A C6A -149.0(10) . 3_556
C4 C5 C6A C6A 142(2) . 21_665
C4 C5 C6B C6B -117.2(12) . 21_665
C10 C9 C8 N1 0.2(4) . .
C8 N1 C8 C9 -5.8(11) 24_565 .
C8 C9 C10 C9 7.0(14) . 24_565
C8 C9 C10 N2 -166.6(15) . .
C6A C5 C6A C6A 69(2) 21_665 3_556
loop_
_smtbx_masks_void_nr
_smtbx_masks_void_average_x
_smtbx_masks_void_average_y
_smtbx_masks_void_average_z
_smtbx_masks_void_volume
_smtbx_masks_void_count_electrons
1 -0.958 -0.251 -0.920 6767.7 0.0
