#------------------------------------------------------------------------------
#$Date: 2019-11-23 10:17:45 +0200 (Sat, 23 Nov 2019) $
#$Revision: 232838 $
#$URL: file:///home/coder/svn-repositories/cod/cif/4/34/82/4348236.cif $
#------------------------------------------------------------------------------
#
# This file is available in the Crystallography Open Database (COD),
# http://www.crystallography.net/
#
# All data on this site have been placed in the public domain by the
# contributors.
#
data_4348236
loop_
_publ_author_name
'Milin, Eric'
'Patinec, V\'eronique'
'Triki, Smail'
'Bendeif, El-Eulmi'
'Pillet, S\'ebastien'
'Marchivie, Mathieu'
'Chastanet, Guillaume'
'Boukheddaden, Kamel'
_publ_section_title
;
 Elastic Frustration Triggering Photoinduced Hidden Hysteresis and
 Multistability in a Two-Dimensional Photoswitchable Hofmann-Like
 Spin-Crossover Metal-Organic Framework.
;
_journal_issue                   22
_journal_name_full               'Inorganic chemistry'
_journal_page_first              11652
_journal_page_last               11661
_journal_paper_doi               10.1021/acs.inorgchem.6b01081
_journal_volume                  55
_journal_year                    2016
_chemical_formula_moiety         'C18 H12 Fe N12 Pt, 3(H2 O)'
_chemical_formula_sum            'C18 H18 Fe N12 O3 Pt'
_chemical_formula_weight         701.38
_space_group_crystal_system      monoclinic
_space_group_IT_number           15
_space_group_name_Hall           '-C 2yc'
_space_group_name_H-M_alt        'C 1 2/c 1'
_atom_sites_solution_hydrogens   mixed
_audit_creation_method           SHELXL-2014/7
_cell_angle_alpha                90
_cell_angle_beta                 111.843(6)
_cell_angle_gamma                90
_cell_formula_units_Z            8
_cell_length_a                   24.5780(12)
_cell_length_b                   7.0841(2)
_cell_length_c                   26.8551(15)
_cell_measurement_reflns_used    25996
_cell_measurement_temperature    10(5)
_cell_measurement_theta_max      30.505
_cell_measurement_theta_min      3.011
_cell_volume                     4340.1(4)
_computing_cell_refinement       'CRYSALIS Oxford Diffraction (2004)'
_computing_data_collection       'CRYSALIS Oxford Diffraction (2004)'
_computing_data_reduction        'CRYSALIS Oxford Diffraction (2004)'
_computing_structure_refinement  'SHELXL-2014/7 (Sheldrick, 2014)'
_computing_structure_solution    'SHELXS-97 (Sheldrick, 2008)'
_diffrn_ambient_temperature      10(5)
_diffrn_measured_fraction_theta_full 0.999
_diffrn_measured_fraction_theta_max 0.999
_diffrn_measurement_device_type  'SuperNova, Dual, Cu at zero, Atlas'
_diffrn_measurement_method       'omega scans'
_diffrn_radiation_type           MoK\a
_diffrn_radiation_wavelength     0.71073
_diffrn_reflns_av_R_equivalents  0.0503
_diffrn_reflns_av_unetI/netI     0.0546
_diffrn_reflns_Laue_measured_fraction_full 0.999
_diffrn_reflns_Laue_measured_fraction_max 0.999
_diffrn_reflns_limit_h_max       34
_diffrn_reflns_limit_h_min       -34
_diffrn_reflns_limit_k_max       10
_diffrn_reflns_limit_k_min       -10
_diffrn_reflns_limit_l_max       38
_diffrn_reflns_limit_l_min       -35
_diffrn_reflns_number            25996
_diffrn_reflns_point_group_measured_fraction_full 0.999
_diffrn_reflns_point_group_measured_fraction_max 0.999
_diffrn_reflns_theta_full        25.242
_diffrn_reflns_theta_max         30.505
_diffrn_reflns_theta_min         3.011
_diffrn_source                   'SuperNova (Mo) X-ray Source'
_exptl_absorpt_coefficient_mu    7.159
_exptl_absorpt_correction_T_max  0.711
_exptl_absorpt_correction_T_min  0.535
_exptl_absorpt_correction_type   gaussian
_exptl_absorpt_process_details
;
Absorption correction were performed using CRYSALIS Oxford Diffraction (2004)
;
_exptl_crystal_colour            pink
_exptl_crystal_density_diffrn    2.147
_exptl_crystal_density_meas      ?
_exptl_crystal_description       block
_exptl_crystal_F_000             2704
_exptl_crystal_size_max          0.1364
_exptl_crystal_size_mid          0.0975
_exptl_crystal_size_min          0.0600
_refine_diff_density_max         1.197
_refine_diff_density_min         -1.522
_refine_diff_density_rms         0.175
_refine_ls_extinction_method     none
_refine_ls_goodness_of_fit_ref   1.009
_refine_ls_hydrogen_treatment    mixed
_refine_ls_matrix_type           full
_refine_ls_number_parameters     336
_refine_ls_number_reflns         6617
_refine_ls_number_restraints     6
_refine_ls_restrained_S_all      1.008
_refine_ls_R_factor_all          0.0534
_refine_ls_R_factor_gt           0.0268
_refine_ls_shift/su_max          0.001
_refine_ls_shift/su_mean         0.000
_refine_ls_structure_factor_coef Fsqd
_refine_ls_weighting_details
'w=1/[\s^2^(Fo^2^)+(0.0067P)^2^] where P=(Fo^2^+2Fc^2^)/3'
_refine_ls_weighting_scheme      calc
_refine_ls_wR_factor_gt          0.0456
_refine_ls_wR_factor_ref         0.0565
_reflns_Friedel_coverage         0.000
_reflns_number_gt                4019
_reflns_number_total             6617
_reflns_threshold_expression     'I > 2\s(I)'
_cod_data_source_file            ic6b01081_si_002.cif
_cod_data_source_block           Fe(trz-py)2(Pt(CN)4_LS
_cod_depositor_comments
;
The following automatic conversions were performed:

data item '_exptl_crystal_density_meas' value 'not measured' was
changed to '?' -- the value is perceived as not measured.

Automatic conversion script
Id: cif_fix_values 6909 2019-04-08 15:41:33Z antanas 
;
_cod_original_cell_volume        4340.2(4)
_cod_original_sg_symbol_H-M      'C 2/c'
_cod_database_code               4348236
_shelx_shelxl_version_number     2014/7
_shelx_space_group_comment
;
The symmetry employed for this shelxl refinement is uniquely defined
by the following loop, which should always be used as a source of
symmetry information in preference to the above space-group names.
They are only intended as comments.
;
_shelx_res_file
;

    shelx.res created by SHELXL-2014/7


TITL exp_223 in C2/c
CELL  0.71073  24.578042   7.084119  26.855107    90.0000   111.8426    90.0000
ZERR     8.00  0.001150   0.000240   0.001523     0.0000     0.0061     0.0000
LATT   7
SYMM  - X,   Y, 1/2 - Z
SFAC  C    H    FE   N    O    PT
UNIT  144  144  8    96   24   8
SHEL 20.0 0.70
MERG   2
ISOR 0.0005  0.0005 C4
FMAP   2
PLAN   10
ACTA
BOND   $H
L.S.  10
WGHT    0.006700
FVAR       0.38748
PT1   6    0.364527    0.749020    0.631688    11.00000    0.00285    0.00345 =
         0.00316   -0.00016    0.00076   -0.00007
FE2   3    0.500000    1.247501    0.750000    10.50000    0.00233    0.00353 =
         0.00339    0.00000    0.00053    0.00000
FE1   3    0.250000    0.250000    0.500000    10.50000    0.00250    0.00372 =
         0.00354   -0.00015    0.00079   -0.00092
N7    4    0.122441    0.233037    0.564320    11.00000    0.00558    0.00662 =
         0.00761    0.00037    0.00222    0.00143
N12   4    0.551595    1.164119    0.555062    11.00000    0.01144    0.00752 =
         0.00557    0.00225    0.00146    0.00158
C9    1    0.110205    0.289860    0.696225    11.00000    0.01321    0.01302 =
         0.00492    0.00089    0.00252    0.00331
AFIX  43
H9    2    0.131951    0.326437    0.731286    11.00000   -1.20000
AFIX   0
C1    1    0.313325    0.555824    0.582953    11.00000    0.00494    0.00612 =
         0.00669    0.00337    0.00337    0.00376
N8    4    0.045513    0.172947    0.591856    11.00000    0.00921    0.00835 =
         0.01228    0.00369    0.00598    0.00187
C8    1    0.135236    0.293945    0.657682    11.00000    0.00429    0.01075 =
         0.01266    0.00058    0.00235    0.00345
AFIX  43
H8    2    0.173559    0.334644    0.665816    11.00000   -1.20000
AFIX   0
N10   4    0.609179    1.272587    0.731031    11.00000    0.00419    0.01082 =
         0.00676   -0.00312    0.00375    0.00085
N3    4    0.449373    1.054912    0.704754    11.00000    0.00549    0.00757 =
         0.00265    0.00154   -0.00008    0.00403
C3    1    0.417533    0.945255    0.678425    11.00000    0.00514    0.01011 =
         0.00109    0.00172    0.00082    0.00265
N4    4    0.448684    0.440688    0.704104    11.00000    0.00435    0.00638 =
         0.00764   -0.00104    0.00534   -0.00079
C17   1    0.610269    1.189596    0.500817    11.00000    0.01227    0.00729 =
         0.01066    0.00215    0.00665    0.00399
AFIX  43
H17   2    0.613161    1.173621    0.467516    11.00000   -1.20000
AFIX   0
N6    4    0.123802    0.204636    0.482954    11.00000    0.00640    0.01260 =
         0.00733    0.00016    0.00219    0.00020
C18   1    0.559458    1.143987    0.508325    11.00000    0.01159    0.00666 =
         0.00950    0.00058    0.00066    0.00041
AFIX  43
H18   2    0.528458    1.096037    0.479174    11.00000   -1.20000
AFIX   0
N1    4    0.285330    0.445626    0.552638    11.00000    0.00519    0.00536 =
         0.00707    0.00173    0.00444    0.00093
C11   1    0.022250    0.174938    0.629871    11.00000    0.00790    0.00929 =
         0.01479    0.00421    0.00307    0.00104
AFIX  43
H11   2   -0.016475    0.136409    0.620393    11.00000   -1.20000
AFIX   0
C12   1    0.537625    1.231410    0.654437    11.00000    0.00390    0.00702 =
         0.00781    0.00044    0.00122    0.00267
AFIX  43
H12   2    0.500490    1.212098    0.628445    11.00000   -1.20000
AFIX   0
C10   1    0.052455    0.230833    0.682200    11.00000    0.00711    0.00896 =
         0.00764    0.00361    0.00183    0.00107
AFIX  43
H10   2    0.034700    0.229055    0.707324    11.00000   -1.20000
AFIX   0
C15   1    0.650021    1.283827    0.592056    11.00000    0.00668    0.01347 =
         0.00789    0.00029    0.00301    0.00168
AFIX  43
H15   2    0.680386    1.332158    0.621665    11.00000   -1.20000
AFIX   0
C13   1    0.630916    1.272062    0.693912    11.00000    0.00530    0.01358 =
         0.00468    0.00057    0.00051    0.00175
AFIX  43
H13   2    0.670528    1.286124    0.700111    11.00000   -1.20000
AFIX   0
C5    1    0.178399    0.256374    0.567277    11.00000    0.00386    0.00650 =
         0.00600    0.00184    0.00012    0.00227
AFIX  43
H5    2    0.210623    0.278970    0.598607    11.00000   -1.20000
AFIX   0
C14   1    0.596983    1.234452    0.595175    11.00000    0.01045    0.00659 =
         0.00353    0.00238    0.00324    0.00030
C6    1    0.090660    0.197393    0.511031    11.00000    0.00546    0.01193 =
         0.01175   -0.00199    0.00156    0.00045
AFIX  43
H6    2    0.050700    0.171496    0.496909    11.00000   -1.20000
AFIX   0
N2    4    0.288579    1.060058    0.554039    11.00000    0.00422    0.00776 =
         0.00601   -0.00036    0.00173    0.00005
N11   4    0.588291    1.248301    0.644822    11.00000    0.00549    0.00566 =
         0.00364   -0.00012    0.00181   -0.00053
C7    1    0.100771    0.235021    0.606855    11.00000    0.00631    0.00610 =
         0.00772    0.00127    0.00437    0.00175
N5    4    0.179999    0.242231    0.519444    11.00000    0.00111    0.00610 =
         0.00571    0.00328   -0.00043   -0.00039
C16   1    0.656475    1.258985    0.543401    11.00000    0.00698    0.01014 =
         0.01022    0.00387    0.00489    0.00519
AFIX  43
H16   2    0.691631    1.288964    0.539725    11.00000   -1.20000
AFIX   0
N9    4    0.549625    1.246642    0.705700    11.00000    0.00363    0.00486 =
         0.00449    0.00126    0.00147    0.00267
C4    1    0.416704    0.550565    0.677935    11.00000    0.00451    0.00480 =
         0.00461    0.00009    0.00164   -0.00044
C2    1    0.315062    0.947098    0.583442    11.00000    0.00430    0.00719 =
         0.00328   -0.00365    0.00021   -0.00060
O1    5    0.692711    1.258097    0.831291    11.00000    0.00738    0.01231 =
         0.00562   -0.00323    0.00274   -0.00087
H1A   2    0.664331    1.246312    0.803055    11.00000   -1.20000
H1B   2    0.684996    1.262984    0.858183    11.00000   -1.20000
O2    5    0.742174    1.561846    0.795722    11.00000    0.01174    0.00919 =
         0.01702    0.00211    0.00843    0.00119
H2A   2    0.724107    1.510135    0.807861    11.00000   -1.20000
H2B   2    0.733228    1.664819    0.796600    11.00000   -1.20000
O3    5    0.740584    0.948798    0.796194    11.00000    0.01598    0.00622 =
         0.01092    0.00076    0.00762    0.00338
H3A   2    0.744446    0.986135    0.771979    11.00000   -1.20000
H3B   2    0.730522    1.031877    0.807161    11.00000   -1.20000
HKLF    4

REM  exp_223 in C2/c
REM R1 =  0.0268 for    4019 Fo > 4sig(Fo)  and  0.0534 for all    6617 data
REM    336 parameters refined using      6 restraints

END

WGHT      0.0058      0.0000

REM Highest difference peak  1.197,  deepest hole -1.522,  1-sigma level  0.175
Q1    1   0.4078  0.7464  0.6044  11.00000  0.05    1.20
Q2    1   0.3871  0.6755  0.6699  11.00000  0.05    0.99
Q3    1   0.0178  0.3446  0.6265  11.00000  0.05    0.99
Q4    1   0.0321  0.2471  0.6589  11.00000  0.05    0.90
Q5    1   0.3689  0.9071  0.6323  11.00000  0.05    0.86
Q6    1   0.3283  0.8404  0.5916  11.00000  0.05    0.86
Q7    1   0.3682  0.5874  0.6327  11.00000  0.05    0.85
Q8    1   0.3915  0.8218  0.6706  11.00000  0.05    0.85
Q9    1   0.3537  0.6767  0.6576  11.00000  0.05    0.77
Q10   1   0.5518  1.3307  0.5464  11.00000  0.05    0.77
;
_shelx_res_checksum              12437
_shelx_hkl_file
;
   0   0   4 14641.6 406.105   7
   0   0   5 10.3684 30.5977   7
   0   0   6 13241.5 472.635   7
   0   0   6 12422.3 458.987   3
   0   0   7-24.7229 17.6120   7
   0   0   7 28.0358 32.2423   3
   0   0   8 19335.9 664.792   7
   0   0   8 19220.1 643.037   3
   0   0   9-29.9560 54.0200   7
   0   0   9 34.7753 38.5610   3
   0   0  10 389.285 98.0943   7
   0   0 -10 289.347 91.5798   7
   0   0  10 207.226 75.1764   3
   0   0  11-25.0746 23.8894   7
   0   0 -11 0.79131 25.3576   7
   0   0  11-26.9516 49.6375   3
   0   0  12 11787.4 618.849   3
   0   0  12 12423.4 660.586   7
   0   0 -12 13663.1 722.628   7
   0   0  13 26.7921 16.0442   3
   0   0  13-5.00285 51.6865   7
   0   0 -13-36.9617 58.9507   7
   0   0  14 19868.0 913.092   7
   0   0  14 19990.1 868.398   3
   0   0  15 118.313 81.8081   3
   0   0  15 50.8875 111.480   7
   0   0  16 37432.1 1352.92   7
   0   0  16 36279.0 1269.86   3
   0   0  17 120.975 126.108   7
   0   0  17 106.001 75.4820   3
   0   0  18 11752.8 808.548   7
   0   0  19 23.0865 80.9073   7
   0   0  20 442.762 180.359   7
   0   0  21 125.026 119.679   7
   0   0  22 11560.8 902.078   7
   0   0  23 114.110 127.130   7
   0   0  24 15123.3 1082.64   7
   0   0  25 155.292 106.972   7
   0   0  26 17975.8 1250.12   7
   0   0  27-42.7368 45.5164   7
   0   0  28 2940.64 529.026   7
   0   0  29 274.367 223.218   7
   0   0  30 11871.9 1117.98   7
   0   0  31 293.768 213.366   7
   0   0  32 822.642 323.446   7
   0   0  33-107.152 81.8589   7
   0   0  34 6002.78 874.241   7
   0   0  35-91.5908 151.791   7
   0   0  36-42.5569 119.227   7
   0   0  37 218.700 262.027   7
   0  -2   0 223329. 2583.10   5
   0   2   0 218912. 2233.55   3
   0   2   0 208960. 2119.86   7
   0  -2   0 207214. 1639.85   1
   0  -2   0 212335. 1596.20   6
   0  -2   0 222241. 2416.67   2
   0   2   1 33.3544 13.5446   6
   0  -2  -1 124.982 69.9881   5
   0   2   1 72.6070 26.5283   1
   0   2   1 52.9113 28.9295   3
   0   2  -1 61.3743 42.3564   3
   0  -2   1 0.12768 30.0814   2
   0   2   1 133.142 60.0447   2
   0   2  -1 34.7035 31.0252   7
   0  -2  -1 100.039 65.2286   2
   0  -2  -1 38.6710 20.6302   1
   0  -2   1 103.311 58.9151   5
   0  -2  -1 54.2471 11.2176   6
   0  -2   2 1516.01 218.031   5
   0   2  -2 1299.59 186.104   3
   0  -2  -2 1674.98 223.715   5
   0   2   2 1621.85 192.052   3
   0  -2   2 1239.35 176.461   7
   0  -2  -2 1377.18 149.028   1
   0   2   2 1602.43 148.606   1
   0   2   2 1581.03 121.025   6
   0   2   2 1360.11 171.904   2
   0  -2  -2 1421.08 193.752   2
   0  -2  -3 1711.39 165.611   1
   0  -2   3 1718.00 217.884   7
   0  -2  -3 2056.94 220.317   2
   0   2   3 1844.33 192.314   3
   0   2  -3 2147.92 253.087   3
   0   2   3 1847.46 202.962   2
   0  -2  -3 1904.06 251.065   5
   0   2   3 1806.00 171.730   1
   0  -2   3 1904.97 244.027   5
   0   2   4 25362.5 761.398   2
   0  -2  -4 25639.2 761.789   2
   0  -2   4 25356.1 879.558   7
   0  -2  -4 25413.3 864.508   5
   0  -2   4 24810.0 874.895   5
   0  -2  -4 24990.3 669.331   1
   0   2   4 25202.2 709.437   3
   0   2  -4 24992.0 862.826   3
   0   2   4 24409.6 677.442   1
   0  -2  -5 276.063 112.221   5
   0   2   5 70.9279 46.3927   1
   0  -2  -5 60.8375 48.8943   2
   0   2  -5-35.0828 72.7950   3
   0   2   5 139.279 53.7886   2
   0  -2   5 27.1257 50.1643   5
   0  -2   5 184.178 95.8226   7
   0   2   5-4.23897 36.6182   3
   0  -2   6 9173.10 537.993   5
   0   2  -6 9373.70 554.652   5
   0  -2   6 8922.29 568.760   7
   0   2  -6 8423.81 536.376   3
   0   2   6 8943.89 456.128   1
   0   2   6 8637.39 453.190   2
   0  -2  -6 8670.57 438.118   2
   0  -2  -6 8943.47 506.754   5
   0  -2   7 156.794 65.1992   5
   0   2   7 154.942 66.7152   2
   0  -2  -7 201.637 66.4165   2
   0  -2   7 203.422 88.5392   7
   0   2  -7 204.475 75.6584   3
   0   2  -7 516.909 147.270   5
   0   2   7 233.721 64.4337   1
   0  -2  -7 511.644 163.784   5
   0   2   8 88135.1 1591.88   1
   0  -2   8 88555.4 1904.07   7
   0   2   8 88738.7 1601.82   2
   0  -2   8 87719.6 1678.82   5
   0   2  -8 88450.7 1855.27   3
   0  -2  -8 85793.3 1565.77   5
   0   2   8 86960.1 1313.12   7
   0   2  -8 87901.3 1714.40   5
   0  -2  -8 88279.2 1393.69   2
   0   2   9 2.48122 19.9545   7
   0  -2  -9 155.164 100.842   5
   0   2   9-6.52960 34.9594   2
   0   2   9-23.4560 38.9779   1
   0   2  -9-128.118 90.4329   3
   0  -2   9 83.1111 130.845   7
   0   2  -9 76.8111 62.5467   5
   0  -2  10 7187.75 581.796   7
   0  -2 -10 6730.21 436.604   5
   0   2  10 7517.51 491.503   2
   0   2 -10 7179.53 489.891   5
   0   2 -10 6348.55 555.304   3
   0   2  10 7859.74 428.697   7
   0  -2  10 7245.77 559.181   3
   0   2  11 31.7827 44.1314   4
   0   2  11-7.68221 15.4847   2
   0   2  11-15.3590 31.6076   7
   0  -2  11 96.3075 65.2646   3
   0  -2 -11 12.0565 45.2010   5
   0   2 -11-4.91054 32.3686   5
   0   2 -11 6.09154 53.2847   3
   0  -2  11 19.4253 88.0051   7
   0  -2 -12 3359.99 305.856   5
   0   2 -12 3153.86 329.549   5
   0   2  12 3221.97 301.400   7
   0   2  12 3496.79 311.324   4
   0  -2  12 4156.36 472.125   7
   0   2  12 3627.36 365.347   2
   0   2 -12 3094.32 407.355   3
   0   2 -13 106.859 32.6960   5
   0   2 -13-5.91914 53.5968   3
   0  -2  13 225.654 115.514   7
   0   2  13 117.230 59.6305   4
   0   2  13 93.1842 57.7273   7
   0   2  13 130.378 76.9195   2
   0  -2 -13 78.9098 59.4114   5
   0  -2 -14 8685.40 480.518   5
   0  -2  14 9352.76 743.735   7
   0   2  14 9209.58 555.787   7
   0   2 -14 8828.45 707.081   3
   0   2  14 9690.26 513.844   4
   0   2  14 8890.21 616.357   2
   0   2 -14 8258.95 532.922   5
   0   2  15-1.67244 28.9845   4
   0   2  15-37.0094 66.5785   2
   0  -2  15-20.7401 119.222   7
   0   2  15-33.6786 51.8299   7
   0  -2 -15-14.7482 37.1846   5
   0   2 -15-51.8418 110.240   3
   0   2 -16 25729.9 1266.40   3
   0   2  16 25966.9 1015.15   7
   0  -2 -16 25281.6 792.543   5
   0  -2  16 26837.2 1334.42   7
   0   2  16 26087.3 1135.71   2
   0  -2  17 330.773 184.320   7
   0   2  17 53.8185 41.2920   2
   0  -2 -17 102.390 46.9118   5
   0   2 -17 97.6832 82.8800   3
   0   2  17 96.5036 49.5843   7
   0  -2  18 10146.0 868.322   7
   0   2  18 9003.78 642.872   7
   0   2  18 9075.00 722.827   2
   0  -2  19 64.4287 136.695   7
   0   2  19 155.866 96.0756   7
   0   2  20 2448.31 344.391   3
   0  -2  20 2945.60 481.242   7
   0   2  20 2949.58 392.343   7
   0  -2  21 216.006 173.904   7
   0   2  21 42.6907 34.8985   7
   0  -2  22 12493.9 1059.42   7
   0   2 -22 9971.99 502.273   4
   0   2  22 13104.3 880.723   7
   0  -2  23 254.282 103.134   7
   0   2  23 300.449 142.529   7
   0   2  24 5315.62 594.695   7
   0  -2  24 5184.06 711.606   7
   0   2  25 412.124 180.639   7
   0  -2  25 543.213 231.403   7
   0   2  26 11534.8 924.961   7
   0  -2  26 11916.0 1132.30   7
   0  -2  27 111.435 131.428   7
   0   2  27 43.2703 80.3420   7
   0   2  28 331.948 166.902   7
   0  -2  28 711.785 327.672   7
   0   2  28 656.888 276.057   1
   0   2  29 189.530 168.753   1
   0   2  29 118.063 106.825   7
   0  -2  29-19.0065 51.7851   7
   0  -2  30 15545.6 1415.99   7
   0   2  30 14779.9 1150.08   7
   0   2  30 15728.3 1365.67   1
   0   2  31-70.4083 123.723   1
   0   2  31-29.2684 54.9293   7
   0   2  32 4275.13 746.264   1
   0  -2  32 5848.06 908.055   7
   0   2  32 3693.94 597.736   7
   0  -2  33 152.050 176.484   7
   0   2  33 292.110 224.172   1
   0  -2  34 12908.5 1422.10   7
   0   2  34 15926.5 1508.54   1
   0   2  35-125.389 161.720   1
   0  -2  35 189.680 245.083   7
   0  -2  36 58.6148 48.3919   7
   0  -4   0 130692. 2792.26   2
   0  -4   0 134857. 2929.37   5
   0  -4   0 126937. 1714.85   6
   0  -4   0 133366. 1906.42   1
   0   4   0 136752. 2381.47   7
   0  -4   1 0.58825 20.7219   6
   0   4  -1-12.0835 21.0355   7
   0   4   1 10.0072 45.7921   7
   0   4  -1 102.154 49.4879   3
   0  -4  -1-20.5157 51.8847   1
   0  -4   1-105.745 119.979   2
   0  -4   1 47.1493 44.0606   1
   0  -4  -1-55.0298 76.3017   2
   0   4   1-15.8723 32.3283   3
   0   4   2 1394.55 230.152   7
   0  -4   2 1492.20 308.968   2
   0  -4  -2 12.7249 20.0597   3
   0  -4  -2 1415.48 286.193   2
   0   4  -2 1264.70 240.374   7
   0   4   2 1412.19 243.045   3
   0   4  -2 1357.95 259.423   3
   0  -4   2 1293.88 185.217   1
   0  -4   2 1476.92 200.998   6
   0  -4   2 1456.86 312.319   5
   0  -4  -2 1581.26 318.423   5
   0  -4  -2 1626.57 217.515   1
   0  -4   3 1004.44 248.749   2
   0  -4  -3 495.991 151.632   3
   0   4  -3 912.467 211.027   3
   0   4  -3 1028.09 218.147   7
   0  -4  -3 952.824 236.547   2
   0   4   3 967.200 209.117   3
   0  -4  -3 1301.24 303.437   5
   0   4   3 926.267 189.341   7
   0  -4  -3 947.944 162.591   1
   0  -4   3 978.482 176.836   6
   0  -4   3 1011.76 252.147   5
   0   4   4 16997.8 538.869   6
   0   4   4 18324.5 891.187   2
   0  -4  -4 16808.9 943.685   2
   0   4  -4 16627.7 959.189   3
   0  -4   4 19118.8 1115.64   2
   0   4   4 17864.7 679.612   1
   0  -4   4 16945.8 1037.13   5
   0   4   4 17328.5 855.655   3
   0  -4  -4 15755.0 686.422   1
   0  -4  -4 16937.9 1031.65   5
   0  -4   5-57.6544 103.328   5
   0   4   5 30.2195 35.5488   1
   0  -4  -5 126.868 96.8403   5
   0  -4   5 87.7008 87.6206   2
   0  -4  -5-54.7608 73.7380   2
   0   4   5-119.545 117.650   3
   0  -4  -5 44.8435 83.9994   1
   0   4   5 57.2739 32.3403   6
   0   4   5-39.0357 71.9614   2
   0   4  -5 67.3243 57.8468   3
   0  -4  -6 3400.09 407.124   2
   0  -4  -6 3112.26 435.289   5
   0  -4   6 3338.75 480.092   2
   0   4  -6 3593.58 459.587   3
   0  -4   6 2774.27 429.393   5
   0   4   6 3359.12 327.857   1
   0   4   6 3244.13 375.018   2
   0   4   6 3525.07 375.246   3
   0   4   6 3416.25 252.254   6
   0  -4   7 122.550 114.435   5
   0  -4  -7 246.018 102.224   2
   0  -4   7 295.840 138.884   7
   0   4   7 196.026 94.2707   3
   0   4  -7 246.236 137.024   3
   0   4   7 177.039 58.9501   6
   0   4   7 322.778 111.724   1
   0   4   7 147.183 82.1662   2
   0  -4  -7 394.917 206.670   5
   0  -4  -8 28657.9 1135.44   2
   0   4   8 28630.7 1043.94   1
   0  -4   8 29872.3 1441.85   7
   0   4  -8 28675.4 1342.56   3
   0   4   8 28564.6 1124.97   2
   0  -4  -8 28028.0 1311.54   5
   0  -4   8 28849.4 1362.36   5
   0   4   8 28385.8 1082.42   3
   0   4   9-8.76301 39.1972   3
   0  -4  -9-0.39375 61.0535   2
   0  -4  -9 145.427 124.794   5
   0  -4   9 157.472 117.546   5
   0   4   9 74.8902 56.2327   2
   0   4   9-21.2447 73.0036   1
   0   4  -9 45.0205 72.0758   3
   0  -4   9 72.8458 87.6646   7
   0   4  10 3204.88 355.796   3
   0   4 -10 3064.61 471.611   3
   0  -4  10 3624.31 512.452   7
   0   4  10 3163.22 371.510   1
   0   4  10 3402.20 395.283   2
   0  -4 -10 3429.33 379.992   2
   0  -4 -10 3474.60 458.252   5
   0  -4  11 174.290 149.695   7
   0   4 -11-181.057 139.939   3
   0  -4 -11-64.1720 60.7321   2
   0   4  11 25.9965 83.8884   1
   0   4  11-76.6465 65.2670   3
   0   4  11 88.9670 83.2813   2
   0  -4 -11 16.4952 93.7195   5
   0   4  12 8298.56 514.624   7
   0   4  12 7485.70 596.193   2
   0   4  12 8217.74 578.362   3
   0   4 -12 7836.45 763.647   3
   0  -4  12 8850.99 830.978   7
   0  -4 -12 8107.64 705.014   5
   0   4  12 7953.96 638.732   1
   0  -4 -12 8504.61 585.608   2
   0   4  13-3.24753 44.8738   3
   0   4  13-34.5906 48.8891   7
   0  -4  13 143.901 143.101   7
   0   4  13-19.3649 59.6482   1
   0  -4 -13 48.9413 17.9761   2
   0   4  13-30.9665 48.0492   2
   0  -4 -13 41.0221 71.7791   5
   0   4 -13 33.1992 85.2974   3
   0   4  14 6952.52 542.667   3
   0   4  14 6654.81 586.941   2
   0   4  14 7668.48 515.192   7
   0  -4 -14 7218.22 660.476   5
   0  -4  14 7251.38 793.774   7
   0   4 -14 6826.76 753.302   3
   0   4  14 6820.85 641.053   1
   0   4  15-35.7062 55.2320   3
   0   4  15 98.3173 113.878   1
   0   4 -15-12.6705 104.385   3
   0  -4 -15-4.50354 87.6995   5
   0   4  15-33.6069 39.4168   2
   0   4  15 52.5913 59.2282   7
   0  -4  15 140.571 166.797   7
   0   4  16 20622.0 1151.12   1
   0   4  16 20840.5 952.787   3
   0  -4  16 20691.6 1382.09   7
   0   4 -16 20448.6 1325.68   3
   0   4  16 19721.9 1031.86   2
   0   4  16 21305.3 910.896   7
   0  -4 -16 20002.0 1103.76   5
   0   4 -17-37.7670 155.779   3
   0  -4 -17 122.577 50.6589   5
   0   4  17 87.8206 41.7993   7
   0   4  17 41.1813 50.0219   2
   0   4  17 91.1607 77.1499   1
   0  -4  17 156.903 150.235   7
   0   4  17 15.6214 24.7753   3
   0   4  18 11616.6 722.570   3
   0  -4 -18 10549.2 786.772   5
   0   4  18 11122.1 890.773   1
   0   4 -18 10397.7 995.854   3
   0   4  18 11721.1 704.362   7
   0  -4  18 10604.4 1025.35   7
   0   4  19 220.601 136.360   1
   0  -4  19 276.410 202.351   7
   0   4  19-22.9601 19.4698   3
   0   4 -19-102.563 120.213   3
   0   4  19-60.9123 79.4308   7
   0   4  20 2272.99 412.644   1
   0  -4  20 1519.19 409.154   7
   0   4 -20 2746.29 547.809   3
   0   4  20 2361.41 329.923   7
   0   4  21-72.6924 96.9317   1
   0  -4  21 211.061 205.318   7
   0   4  21 15.6664 61.4624   7
   0   4 -21 187.945 202.200   3
   0   4  22 8209.51 653.606   7
   0   4 -22 7767.10 927.781   3
   0   4  22 6608.92 767.385   1
   0  -4  22 8224.63 977.854   7
   0   4  23 250.870 114.530   7
   0  -4  23 329.518 207.658   7
   0   4 -23-68.3158 151.989   3
   0   4  23 164.524 132.725   1
   0   4  24 6360.32 791.597   1
   0  -4  24 6700.79 921.514   7
   0   4  24 5850.37 574.529   7
   0   4  25 199.902 119.572   7
   0   4  25 330.517 193.516   1
   0  -4  25 156.060 148.138   7
   0   4  26 11305.4 1102.03   1
   0  -4  26 11736.9 1274.35   7
   0   4  27-45.8051 48.9818   1
   0  -4  27 97.7448 70.7795   7
   0   4  28 552.216 253.567   1
   0  -4  28 686.110 319.913   7
   0  -4  29 90.1547 174.326   7
   0   4  29 92.8440 115.089   1
   0   4  30 11751.5 1221.86   1
   0  -4  30 11640.5 1357.96   7
   0   4  31-39.8065 73.2669   1
   0  -4  31-122.638 134.983   7
   0  -4  32 932.411 413.820   7
   0   4  32 1345.42 444.798   1
   0   4  33 222.106 195.754   1
   0  -4  33 199.070 255.395   7
   0   4  34 7899.30 1091.07   1
   0  -6   0 62643.2 2522.31   2
   0   6   0 62886.7 2192.52   3
   0  -6   0 68976.6 2660.66   5
   0  -6   0 70802.6 1784.92   1
   0  -6  -1-125.428 75.1468   1
   0   6  -1 88.4100 118.424   3
   0  -6   1-22.4079 36.2528   1
   0  -6   1 118.959 217.917   5
   0   6   1-11.1062 68.5201   3
   0  -6   1-76.7766 101.083   2
   0  -6  -1-26.8806 123.681   2
   0   6   2 1421.40 325.898   3
   0  -6   2 1200.63 227.246   1
   0  -6  -2 1422.76 365.934   2
   0  -6   2 1285.95 221.720   6
   0  -6  -2 1337.91 243.067   1
   0  -6   2 1754.99 431.773   2
   0   6  -2 1199.31 315.631   3
   0  -6  -2 1582.35 408.181   5
   0  -6   2 1032.30 302.079   5
   0  -6   3 52.2731 53.3586   6
   0   6  -3 179.174 116.579   3
   0   6   3 30.2148 89.5211   3
   0  -6   3 90.3034 55.8877   1
   0  -6  -3 177.660 128.784   2
   0  -6   3-94.5268 177.167   2
   0  -6  -3 88.6920 58.4881   1
   0  -6  -3 159.149 172.285   5
   0  -6   3 82.6682 113.584   5
   0  -6   4 11518.3 1115.43   2
   0  -6  -4 11772.1 1103.44   5
   0   6  -4 11546.5 973.354   3
   0  -6  -4 11831.7 700.746   1
   0   6   4 12653.7 948.531   3
   0  -6  -4 13876.3 1107.22   2
   0  -6   4 12401.8 1130.76   5
   0  -6   5 8.85047 20.0617   1
   0   6   5 50.0868 72.2448   3
   0  -6  -5-56.4022 86.0733   2
   0  -6  -5 69.8404 51.4455   1
   0  -6   5-96.9969 165.368   2
   0  -6  -5 16.4924 120.815   5
   0  -6   5 263.506 190.584   5
   0   6  -5 283.322 148.762   3
   0   6   6 1377.65 309.193   3
   0  -6   6 938.347 328.289   2
   0  -6  -6 1373.25 328.900   2
   0  -6   6 1279.41 343.704   5
   0  -6  -6 1810.53 443.454   5
   0   6  -6 1266.38 329.112   3
   0   6  -7 52.1696 104.443   3
   0  -6   7 70.2420 92.2309   5
   0  -6  -7 203.948 137.753   2
   0  -6  -7 102.652 69.1204   5
   0   6   7 180.498 121.854   3
   0  -6   7 160.273 162.517   2
   0  -6   8 16297.1 1394.41   2
   0  -6  -8 16812.0 1303.80   5
   0   6   8 17198.7 863.649   1
   0  -6  -8 16932.9 1140.15   2
   0   6   8 17396.1 1080.11   3
   0   6  -8 17281.4 1260.93   3
   0   6   9-98.4186 121.657   3
   0   6   9 90.7986 59.1084   1
   0   6  -9 155.164 172.169   3
   0  -6  -9 137.022 100.045   2
   0  -6  -9 162.271 156.580   5
   0  -6   9 273.114 216.855   2
   0   6  10 2937.19 433.393   3
   0   6  10 2855.45 250.129   6
   0  -6 -10 3010.68 460.831   2
   0   6 -10 2644.39 491.611   3
   0   6  10 3001.86 385.992   1
   0  -6  10 3547.65 684.376   2
   0  -6 -10 2519.05 504.635   5
   0   6  11-41.1868 62.8699   3
   0   6  11-62.8026 36.9723   6
   0  -6  11-105.799 132.243   2
   0  -6 -11-1.20267 63.6017   2
   0  -6 -11-36.1944 120.891   5
   0   6 -11-76.9418 58.7587   3
   0   6  11-64.6804 84.8388   1
   0  -6 -12 8128.72 903.433   5
   0  -6  12 9089.38 1084.22   2
   0   6  12 9115.99 766.866   3
   0   6  12 8340.92 469.880   6
   0   6  12 8792.59 708.703   1
   0  -6 -12 9707.63 773.310   2
   0   6 -12 7948.95 902.604   3
   0  -6  13 87.1095 148.678   2
   0  -6 -13 27.6521 95.0393   5
   0   6  13 135.549 97.1776   1
   0   6  13 58.5045 52.8061   6
   0   6 -13 58.6899 65.9137   3
   0  -6 -13 16.3332 68.4436   2
   0   6  13 15.0082 64.4062   3
   0  -6  14 6380.97 928.686   2
   0  -6 -14 6003.26 592.355   2
   0   6  14 5389.27 414.089   6
   0   6  14 5474.56 487.176   7
   0   6 -14 5194.52 767.326   3
   0   6  14 5244.83 570.943   3
   0   6  14 4945.68 564.097   1
   0  -6 -14 4664.24 695.111   5
   0  -6  15 233.569 220.033   2
   0   6 -15-127.530 123.150   3
   0   6  15-20.9639 56.9095   7
   0  -6 -15 22.8290 99.6674   5
   0   6  15 5.25663 62.4778   3
   0   6  15 54.7021 41.0182   1
   0   6  15-29.2659 44.6514   6
   0  -6 -15 188.889 111.894   2
   0  -6 -16 14008.2 1183.39   5
   0  -6  16 14853.1 1452.40   2
   0   6  16 15051.9 1041.10   1
   0   6  16 15353.3 810.012   7
   0   6  16 14628.9 960.278   3
   0   6 -16 13396.7 1256.37   3
   0  -6  17 321.338 232.426   2
   0   6  17 109.937 91.0525   1
   0   6  17 54.5352 62.1765   7
   0   6 -17-17.8412 78.1170   3
   0   6  17 117.945 99.2953   3
   0  -6  18 9536.09 1196.44   2
   0   6 -18 8569.18 1030.15   3
   0   6  18 7755.08 692.911   3
   0   6  18 8720.54 838.591   1
   0  -6  18 8741.20 1100.23   7
   0   6 -19 145.685 137.025   3
   0   6  19 7.64098 83.9468   1
   0  -6  19 167.914 196.411   2
   0   6  19-6.36432 65.6041   3
   0  -6  19-104.265 104.665   7
   0  -6  20 1288.57 424.622   2
   0   6 -20 1551.87 451.645   3
   0   6  20 2149.72 434.619   1
   0  -6  20 1148.27 400.255   7
   0   6  21 138.590 129.826   1
   0   6 -21-118.612 88.4577   3
   0  -6  21 113.604 62.8485   2
   0  -6  21 49.1779 117.197   7
   0  -6  22 5039.45 894.546   7
   0   6  22 5198.26 733.052   1
   0  -6  22 5330.42 949.550   2
   0   6 -22 5158.67 866.689   3
   0  -6  23-264.331 242.314   7
   0   6  23 86.4231 129.102   1
   0  -6  23 183.315 210.643   2
   0   6 -23-13.8270 97.6017   3
   0   6  24 5347.53 771.054   1
   0  -6  24 6717.94 1056.70   7
   0  -6  24 7084.65 1114.85   2
   0   6 -24 6173.95 964.634   3
   0  -6  25-87.0703 148.457   2
   0   6 -25 105.516 177.611   3
   0  -6  25 82.0874 152.003   7
   0   6  25-91.3496 130.546   1
   0   6  26 8949.76 1041.54   1
   0  -6  26 10498.2 1396.93   2
   0  -6  26 10479.3 1367.29   7
   0   6  27 552.518 281.131   1
   0  -6  27 416.743 297.325   7
   0  -6  27 703.924 361.613   2
   0  -6  28 347.734 343.153   7
   0  -6  28 351.381 279.720   2
   0   6  28-54.7378 170.445   1
   0   6  29-107.990 168.365   1
   0  -6  29 64.5718 126.656   2
   0   6  30 7249.58 1006.08   1
   0   6  31 140.504 55.2578   1
   0   8   0 16528.9 1354.72   3
   0  -8   0 15070.5 1514.21   2
   0   8  -1 101.638 61.4417   3
   0  -8   1 107.621 143.911   2
   0  -8  -1-94.8257 86.8302   2
   0   8   1-0.99744 136.123   3
   0  -8   2 146.092 195.815   2
   0   8   2 92.7019 73.7075   3
   0  -8  -2 468.354 242.952   2
   0   8  -2 154.207 136.344   3
   0   8   3-28.9849 88.8979   3
   0  -8  -3 83.7775 143.505   2
   0  -8   3 110.918 117.706   2
   0   8  -3 6.94093 120.693   3
   0   8  -4 9670.19 1072.43   3
   0   8   4 9335.37 983.652   3
   0  -8  -4 10042.5 1136.90   2
   0  -8   4 7624.69 1121.88   2
   0   8   5 269.253 206.039   3
   0   8  -5-179.080 181.426   3
   0  -8  -5-46.6250 123.844   2
   0  -8   5 215.788 118.824   2
   0  -8   6 994.055 395.377   2
   0  -8  -6 1041.92 345.689   2
   0   8   6 700.850 253.357   3
   0   8  -6 232.953 213.017   3
   0   8  -7 173.411 206.187   3
   0  -8   7 133.991 135.859   2
   0  -8  -7 237.051 176.849   2
   0   8   7 16.1111 76.6905   3
   0   8   8 23406.1 1507.36   3
   0  -8   8 22850.5 2017.42   2
   0  -8  -8 24652.3 1629.80   2
   0   8  -8 22465.9 1700.51   3
   0  -8   9-226.124 236.364   2
   0   8   9 270.265 175.558   3
   0  -8  -9 280.328 158.698   2
   0   8  -9-261.439 228.591   3
   0   8  10 5702.06 765.107   3
   0   8 -10 4387.94 759.454   3
   0  -8 -10 4105.72 633.125   2
   0  -8  10 3975.42 852.358   2
   0   8  11-29.5589 44.5658   3
   0  -8  11-90.0041 140.503   2
   0   8 -11-5.05961 82.7683   3
   0   8  12 4605.03 660.343   3
   0  -8  12 3852.33 849.982   2
   0   8 -12 4028.94 750.583   3
   0   8 -13-189.930 242.403   3
   0   8  13 73.4344 116.908   3
   0   8 -14 2414.73 593.054   3
   0  -8  14 2949.03 737.928   2
   0   8  14 2427.26 467.476   3
   0  -8  15 62.4913 113.540   2
   0   8 -15-175.625 169.857   3
   0  -8  16 11021.2 1496.48   2
   0   8 -16 10369.9 1273.42   3
   0   8 -17-72.1656 145.316   3
   0  -8  17 52.8895 389.295   2
   0   8 -18 4814.93 897.374   3
   0  -8  18 4363.96 950.593   2
   0   8 -19 36.7395 253.639   3
   0  -8  19-79.4750 166.321   2
   0  -8  20 4172.23 967.104   2
   0   8 -20 2395.50 631.564   3
   0   8 -21 191.723 255.090   3
   0  -8  21 55.7321 69.5534   2
   0   8 -22 4965.70 951.650   3
   0  -8  22 4327.57 988.374   2
   0 -10   0 24492.2 2193.20   2
   0  10   0 27460.4 2023.77   3
   0 -10   1-248.008 227.039   2
   0  10  -1-438.156 257.026   3
   0  10   1 112.288 92.1279   3
   0  10   2 348.998 242.196   3
   0 -10   2-135.770 173.083   2
   0  10  -2-79.9537 185.388   3
   0  10   3-259.225 231.928   3
   0 -10   3 29.9010 91.6884   2
   0  10  -3-169.048 205.003   3
   0 -10   4 6171.03 1172.35   2
   0  10   4 6158.22 929.864   3
   0  10  -4 5332.74 924.405   3
   0  10   5 23.0414 41.0005   3
   0  10  -5-78.0198 208.980   3
   0 -10   6-161.024 199.761   2
   0  10   6 262.514 200.404   3
   0  10  -6 326.733 263.687   3
   0 -10   7 205.792 340.437   2
   0  10   7-110.051 124.246   3
   0  10  -7 128.238 151.942   3
   0 -10   8 4402.17 1042.27   2
   0  10   8 6604.16 929.716   3
   0  10  -8 6015.87 997.693   3
   0 -10   9-291.220 295.601   2
   0 -10  10 1423.81 608.831   2
   0 -10  11 2539.61 763.281   2
  -1  -1  38 507.500 304.377   7
  -1  -1  37 427.661 259.597   7
  -1  -1  36-86.2674 108.267   7
  -1   1  36-55.3129 78.9864   1
  -1   1  35 7895.98 960.795   7
  -1   1  35 10102.3 1213.59   1
  -1  -1  35 9011.14 1138.83   7
  -1   1  34 111.113 58.7370   7
  -1  -1  34-176.739 184.605   7
  -1   1  34-7.20899 130.154   1
  -1  -1  33 102.959 162.132   7
  -1   1  33 226.007 166.180   1
  -1   1  33 36.2909 71.2487   7
  -1  -1  32 56.2823 114.641   7
  -1   1  32-85.9431 124.881   7
  -1   1  31 11436.7 1064.28   7
  -1  -1  31 11099.7 1144.21   7
  -1   1  30-108.934 60.6818   7
  -1  -1  30-26.5979 53.1171   7
  -1   1  29 3575.21 567.775   7
  -1  -1  29 3935.98 667.453   7
  -1  -1  28 55.7156 101.899   7
  -1   1  28 76.5456 63.6931   7
  -1   1  27 14585.3 1088.73   7
  -1  -1  27 14257.5 1184.29   7
  -1  -1  26 76.5282 104.482   7
  -1   1  26 95.5701 69.0741   7
  -1  -1  25 1231.86 318.863   7
  -1   1  25 1098.31 287.660   7
  -1  -1  24 88.7812 108.556   7
  -1   1  24-66.6402 100.996   7
  -1   1  23 19654.8 1126.29   7
  -1  -1  23 20529.0 1285.42   7
  -1   1  22 182.571 114.862   7
  -1  -1  22-30.4474 55.2209   7
  -1  -1  21 11318.2 909.080   7
  -1   1  21 12031.6 835.069   7
  -1   1  20 259.206 127.743   7
  -1  -1  20 354.318 174.581   7
  -1   1  19 9530.38 686.760   7
  -1  -1  19 9372.50 784.424   7
  -1   1  18 52.9579 74.3050   3
  -1   1  18 149.372 102.437   7
  -1  -1  18 153.089 121.176   7
  -1   1  17 3794.61 412.467   3
  -1   1  17 4114.11 420.351   7
   1  -1 -17 3244.66 182.885   5
  -1  -1  17 4804.94 528.002   7
   1   1 -17 3757.70 264.347   5
   1  -1 -16 26.9097 35.5190   7
   1   1 -16-1.99583 16.1864   5
  -1  -1  16 60.7009 84.7521   7
   1  -1 -16 19.6742 9.02234   5
  -1   1  16-13.2135 33.1057   7
   1  -1 -15 7750.58 324.085   5
  -1  -1  15 9313.79 681.260   7
   1   1 -15 8117.78 404.889   5
  -1  -1  15 8825.48 650.821   3
   1  -1 -15 9311.90 604.907   7
  -1   1  15 8259.80 547.247   7
  -1  -1  14-40.6022 27.9189   3
  -1   1  14-38.2651 44.0676   7
   1   1 -14 41.4225 44.2492   5
   1  -1 -14 37.2570 31.7871   5
   1  -1 -14 41.3460 36.4176   7
   1   1 -13 32934.4 827.116   5
  -1  -1  13 35250.8 1224.44   3
  -1   1  13 34105.7 1019.38   7
   1  -1 -13 35683.1 1081.16   7
  -1  -1  13 34211.2 1229.40   7
  -1  -1  12 38.5310 15.8381   3
   1  -1 -12 88.1723 65.0307   7
  -1  -1  12 174.639 118.696   7
   1   1 -12 26.4577 13.5120   5
  -1   1  12 45.1286 58.2580   7
   1   1 -11 12307.8 503.725   5
   1  -1 -11 13141.8 582.977   7
  -1  -1  11 12959.3 699.398   3
  -1   1  11 11996.9 539.597   7
   1   1 -11 12532.5 690.270   3
  -1  -1  11 13051.1 704.954   7
  -1  -1  10 140.388 64.1705   3
  -1  -1  10 276.526 123.298   7
  -1   1  10 237.841 78.6438   7
   1   1 -10 98.4328 69.0089   3
   1  -1 -10 134.105 54.6506   7
   1   1 -10 14.3774 11.8881   5
   1   1  -9 18405.0 776.146   3
   1  -1  -9 18571.9 607.334   7
   1   1  -9 18196.4 607.184   5
  -1   1   9 18712.5 587.456   7
  -1  -1   9 18368.9 779.732   3
  -1   1   9 18788.7 566.746   4
  -1  -1   9 19594.4 789.108   7
  -1   1   8-19.7689 15.7225   4
   1  -1  -8 24.1906 28.1165   7
   1   1  -8-29.2764 30.1246   3
   1   1  -8 42.2385 41.6201   5
  -1  -1   8 90.3755 63.2291   7
  -1   1   8 23.9965 19.0123   7
  -1   1   7 506.143 79.4819   7
   1   1  -7 581.962 130.154   3
  -1  -1   7 783.198 152.116   7
  -1   1   7 637.848 103.090   4
   1   1  -7 648.161 115.652   5
   1  -1  -7 695.042 96.8031   7
  -1   1   7 687.482 98.2513   2
  -1   1   6 230.800 53.0487   2
  -1   1   6 233.386 50.3704   7
  -1   1   6 168.778 54.2199   4
  -1  -1   6 217.590 70.0769   7
   1  -1  -6 240.642 52.8997   7
   1   1  -6 95.9513 42.4881   3
  -1   1   5 97229.2 1288.80   1
  -1  -1   5 92888.1 1413.22   7
   1   1  -5 89956.4 1422.44   3
  -1   1   5 94229.1 874.299   7
  -1   1   5 93578.8 1226.42   4
  -1   1   5 93964.7 985.714   2
  -1  -1   4 188.917 57.0648   7
  -1   1   4 178.287 42.9222   2
  -1   1   4 234.030 54.8363   1
   1  -1  -4 230.991 44.2040   2
   1   1  -4 223.375 71.8284   3
   1   1  -3 927.163 123.104   3
  -1   1   3 926.970 107.665   1
  -1  -1   3 844.231 120.623   7
   1   1  -2 44.9245 25.0223   3
  -1   1   2 50.9212 25.0077   1
  -1   1   2 62.1516 20.9691   2
  -1  -1   2 66.8030 31.8220   5
  -1   1   1 8650.15 263.507   6
  -1   1   1 8762.22 281.133   1
  -1   1   0-28.6823 19.8555   6
   1   1   1 10.8988 10.2562   3
   1  -1   1 7.33818 13.7175   5
   1   1   2 65.1818 23.4905   3
   1  -1   2 77.9739 34.2140   5
   1   1   3 121251. 1303.75   5
   1  -1   3 119689. 1455.28   7
  -1  -1  -3 123817. 1357.50   2
  -1  -1  -3 126474. 1343.32   5
  -1   1  -3 120245. 1448.51   3
   1  -1   3 122023. 1375.96   5
   1   1   4 590.695 86.8240   5
  -1  -1  -4 984.251 128.545   5
  -1  -1  -4 676.160 104.162   2
  -1   1  -4 679.525 115.067   3
   1   1   4 670.367 115.531   2
   1  -1   4 665.235 102.823   5
   1  -1   4 676.030 119.496   7
  -1   1  -5 1770.79 193.108   3
   1   1   5 1679.74 179.564   2
  -1  -1  -5 1812.42 172.260   2
   1   1   5 1641.83 147.145   5
   1  -1   5 1869.54 215.030   7
   1   1   5 1841.87 164.573   7
   1  -1   5 1687.32 164.060   5
  -1  -1  -5 2091.89 167.971   5
   1   1   6 82.1662 28.8564   2
   1  -1   6 65.8409 53.0226   7
  -1   1  -6 97.4377 44.2104   3
   1  -1   6 135.894 55.5666   5
  -1  -1  -6 112.819 53.0253   5
   1   1   6 187.417 51.0626   7
   1  -1   7 15072.9 669.162   7
   1   1   7 14700.7 541.979   7
  -1   1  -7 15196.1 634.718   3
   1  -1   7 15076.4 489.780   5
   1  -1   7 15117.0 627.603   3
   1   1   7 15938.6 604.103   2
  -1  -1  -7 15590.7 451.702   5
  -1  -1  -8 368.221 95.0459   7
   1  -1   8 209.178 94.2636   7
  -1  -1  -8 440.585 79.7464   5
  -1   1  -8 705.714 248.621   3
   1  -1   8 277.486 94.9009   3
   1   1   8 394.743 110.317   7
   1   1   8 359.572 99.4264   2
  -1  -1  -9 96.8425 37.6049   5
  -1  -1  -9 83.2291 54.2045   7
   1  -1   9 33.0711 14.7017   3
   1   1   9 140.165 69.0618   2
   1   1   9 61.3355 24.4010   4
   1  -1   9 126.468 82.6778   7
  -1   1  -9-2.62589 37.2261   3
   1   1   9 41.0201 48.8849   7
   1   1  10 162.257 78.4442   2
   1   1  10 18.8134 11.6332   4
  -1   1 -10 50.5432 55.4225   3
   1   1  10 29.5237 28.6700   7
  -1  -1 -10 28.4079 45.9438   7
   1  -1  10 321.772 132.068   7
   1  -1  10 58.8735 46.0127   3
   1   1  11 56587.2 1311.50   7
   1  -1  11 57942.1 1448.29   3
   1   1  11 50649.4 765.989   4
   1  -1  11 57830.5 1552.84   7
  -1  -1 -11 59425.9 1374.63   7
  -1   1 -11 56851.2 1455.46   3
  -1  -1 -12 63.7351 51.2377   7
  -1   1 -12-30.4563 76.1250   3
   1   1  12 21.4625 43.9914   7
   1  -1  12 71.1830 67.6777   3
   1  -1  13 2494.08 350.158   7
  -1   1 -13 1955.67 294.677   3
  -1  -1 -13 2786.71 325.648   7
   1   1  13 2357.45 264.330   3
   1   1  13 2549.56 304.992   7
   1  -1  13 2302.63 313.429   3
   1   1  14-13.2686 68.4098   7
   1   1  14 10.1832 23.6912   3
  -1  -1 -14-71.8042 56.8559   7
   1  -1  14 91.0415 81.8505   3
   1  -1  15 14135.1 883.589   7
   1  -1  15 13667.5 801.171   3
   1   1  15 13149.4 681.186   3
   1   1  15 14484.3 786.237   7
  -1   1 -16 2.93237 14.7132   4
   1   1  16 14.3438 83.3400   7
   1   1  16 30.5336 54.9853   3
   1   1  17 20255.7 999.787   7
   1   1  17 19585.0 883.141   3
   1  -1  17 20299.6 1109.52   7
   1  -1  18 106.983 151.952   7
   1   1  18 121.255 85.9705   3
   1   1  18 207.683 106.088   7
   1   1  19 32700.5 1356.10   7
   1  -1  19 31112.0 1466.69   7
   1   1  19 31142.3 1180.11   3
   1  -1  20 292.561 185.021   7
   1   1  20 88.5667 66.9131   3
   1   1  20 144.575 105.589   7
   1   1  21 25825.6 1281.68   7
   1  -1  21 26995.1 1432.76   7
   1  -1  22 229.721 167.968   7
   1   1  22-48.7335 36.0081   7
   1  -1  23 5861.38 713.037   7
   1   1  23 5865.64 648.249   7
   1   1  24 10.1989 46.8762   7
   1  -1  24 93.5007 78.1610   7
   1  -1  25 6856.35 800.879   7
   1   1  25 6611.04 731.538   7
   1   1  26-25.3138 84.6598   7
   1  -1  26-2.79083 97.4631   7
   1  -1  27 4840.13 712.257   7
   1   1  27 4770.51 642.394   7
   1   1  28 13.7534 148.071   7
   1  -1  28 84.4060 104.577   7
   1   1  29 12605.6 1107.82   7
   1  -1  29 10989.9 1129.81   7
   1  -1  30 120.869 107.388   7
   1   1  30 65.6359 137.213   7
   1   1  31 103.234 65.8476   7
   1  -1  31 291.998 197.326   7
   1  -1  32 144.082 191.537   7
   1   1  32 131.370 131.283   7
   1  -1  33 10563.0 1211.65   7
   1   1  33 9390.13 1046.66   7
   1  -1  34 297.207 220.992   7
   1   1  34 276.116 184.139   7
   1   1  35 573.490 290.477   7
   1  -1  35 620.109 305.816   7
   1   1  35 534.426 276.375   1
   1  -1  36 361.054 246.131   7
   1  -1  37 8668.66 1169.42   7
  -1   3  35 9141.89 1181.57   1
  -1  -3  35 9249.06 1259.63   7
  -1   3  34-147.622 165.316   1
  -1  -3  34 110.676 171.675   7
  -1   3  33-386.011 233.783   1
  -1  -3  33 170.020 276.239   7
  -1   3  32-36.4890 144.371   1
  -1  -3  32 380.745 244.040   7
  -1  -3  31 14127.1 1443.21   7
  -1   3  31 14174.2 1343.52   1
  -1  -3  30 165.516 171.806   7
  -1   3  30 204.489 193.218   1
  -1  -3  29 6481.90 938.780   7
  -1   3  29 5496.46 636.712   7
  -1   3  29 5642.03 815.210   1
  -1  -3  28-6.63952 81.5355   7
  -1   3  28-24.6659 56.0294   7
  -1   3  27 12501.6 913.918   7
  -1   3  27 11346.9 1101.39   1
  -1  -3  27 13786.3 1309.16   7
  -1  -3  26 106.263 171.780   7
  -1   3  26 355.867 183.626   1
  -1   3  26 427.420 174.224   7
  -1   3  25 462.784 173.712   7
  -1  -3  25 980.135 358.275   7
  -1   3  25 532.733 203.502   1
  -1   3  24 43.0762 59.6152   7
  -1  -3  24 232.739 244.035   7
  -1   3  24-36.5857 97.9355   1
  -1   3  23 14671.0 893.058   7
  -1   3  23 13392.6 1076.62   1
  -1  -3  23 14994.1 1256.35   7
  -1   3  22 36.6967 33.1862   7
  -1   3  22 272.085 182.376   1
  -1  -3  22 126.510 175.789   7
  -1   3  21 2834.59 474.363   1
  -1  -3  21 3364.63 569.494   7
  -1   3  21 2647.26 355.390   7
  -1  -3  20 1004.96 322.455   7
   1  -3 -20 615.599 162.071   5
  -1   3  20 841.670 243.329   1
  -1   3  20 828.286 218.336   2
   1   3 -20 884.822 284.674   3
  -1   3  20 927.789 207.541   7
   1   3 -19 6628.73 748.091   3
  -1  -3  19 6623.21 759.231   7
  -1   3  19 7051.11 700.659   1
   1  -3 -19 6386.15 510.766   5
  -1   3  19 6234.43 592.412   2
  -1   3  19 6992.50 543.305   7
  -1   3  18 235.975 106.805   4
  -1   3  18 399.019 146.473   2
  -1  -3  18 548.822 219.441   7
   1  -3 -18 202.836 101.346   5
  -1   3  18 260.881 101.424   7
   1   3 -18 358.417 201.622   3
  -1   3  18 287.925 155.153   1
  -1   3  17 7069.06 503.923   7
  -1   3  17 7081.30 596.386   2
   1   3 -17 7348.92 770.112   3
   1  -3 -17 7035.47 556.132   5
  -1  -3  17 7202.90 761.032   7
  -1   3  17 6365.30 538.357   4
  -1   3  17 6970.08 659.495   1
   1  -3 -16 125.953 76.4544   5
  -1  -3  16 168.889 154.700   7
  -1   3  16 155.356 101.719   1
   1   3 -16 303.465 164.618   3
  -1   3  16 231.482 91.0430   7
  -1   3  16 147.785 81.8610   4
  -1   3  16 144.756 73.7019   2
   1   3 -16 104.087 48.6710   5
  -1   3  15 6261.07 522.727   2
  -1   3  15 6664.73 607.318   1
  -1   3  15 6949.77 465.131   7
   1   3 -15 5575.27 546.259   5
   1  -3 -15 6130.26 522.152   5
  -1   3  15 5466.62 496.465   4
  -1  -3  15 7021.92 722.795   7
   1   3 -15 7100.28 706.979   3
  -1   3  14 15.5922 32.4465   1
  -1   3  14-42.1701 78.3819   4
  -1   3  14 27.9012 41.3191   2
  -1   3  14-38.6399 44.5546   7
   1  -3 -14 53.4212 48.9439   5
   1   3 -14 152.523 101.823   5
   1   3 -14 91.5539 103.222   3
  -1  -3  13 51612.7 1847.54   7
   1   3 -13 49702.5 1774.60   3
   1   3 -13 46674.1 1579.89   5
   1  -3 -13 46129.2 1437.31   5
  -1   3  13 45806.8 1444.11   4
  -1   3  13 48326.3 1144.30   7
  -1   3  13 46745.3 1333.41   2
  -1   3  13 48208.6 1533.98   1
  -1  -3  12-42.4696 56.3128   7
   1  -3 -12 14.3104 101.859   5
  -1   3  12-12.3189 42.9371   7
  -1   3  12-28.6092 47.8256   2
  -1   3  12 18.8229 57.3929   1
   1   3 -12-75.1824 69.6045   3
   1   3 -12 23.7176 36.5035   5
  -1   3  11 13443.2 665.451   2
  -1   3  11 13785.3 767.704   1
   1  -3 -11 14256.1 803.012   5
   1   3 -11 14122.8 856.354   5
   1  -3 -11 14473.0 619.677   2
   1   3 -11 14330.2 926.795   3
  -1   3  11 14177.8 578.108   7
  -1  -3  11 14545.7 947.868   7
   1  -3 -10 361.041 93.8158   2
   1  -3 -10 423.031 152.322   5
  -1   3  10 346.171 105.692   2
   1   3 -10 288.421 118.576   5
   1   3 -10 379.071 127.568   3
  -1  -3  10 176.302 83.5604   7
  -1   3  10 427.145 97.6882   7
  -1   3  10 339.825 128.350   1
   1   3  -9 8615.09 664.474   3
  -1   3   9 8206.48 507.280   2
  -1  -3   9 9276.76 727.136   7
  -1   3   9 8472.13 567.749   1
   1  -3  -9 8585.76 483.585   2
   1  -3  -9 8087.82 612.992   5
   1   3  -9 9490.92 696.121   5
  -1   3   9 8486.76 532.733   3
   1   3  -8 8.60512 25.4839   5
  -1   3   8-27.4810 50.2529   3
   1  -3  -8 92.2370 95.3242   5
  -1   3   8-15.5835 53.6887   2
  -1   3   8 2.14203 50.6971   1
   1  -3  -8-29.1921 49.7554   2
  -1  -3   8 19.9237 83.8082   7
   1   3  -8-56.0559 81.4097   3
  -1  -3   7 4903.10 489.442   5
  -1   3   7 4487.31 381.033   3
   1  -3  -7 4482.35 454.028   5
   1  -3  -7 4824.18 373.416   2
  -1   3   7 4921.42 402.365   1
   1   3  -7 4744.05 490.964   5
  -1  -3   7 4977.87 506.897   7
   1   3  -7 4224.87 461.329   3
  -1   3   7 4573.39 363.747   2
   1  -3  -6 307.276 102.542   2
  -1  -3   6 326.572 137.250   5
  -1   3   6 406.910 127.424   3
  -1   3   6 337.249 92.0437   1
  -1  -3   6 177.908 88.3892   7
  -1   3   6 311.873 85.3854   2
   1  -3  -6 311.919 92.1939   1
   1  -3  -6 702.355 200.261   5
   1   3  -6 328.923 117.686   3
   1  -3  -5 60974.5 1402.04   2
  -1  -3   5 62458.1 1777.23   2
   1  -3  -5 58058.9 1638.69   5
  -1   3   5 60458.7 1266.88   1
   1   3  -5 59818.1 1597.52   3
   1  -3  -5 58395.6 1286.19   1
  -1  -3   5 61867.5 1718.88   5
   1   3  -5 60162.6 1569.70   7
  -1   3   5 58782.1 1047.60   6
  -1   3   5 62229.6 1327.68   2
  -1   3   5 59519.5 1391.56   3
   1   3  -4-65.1948 84.9816   3
  -1   3   4 45.7858 31.4039   1
  -1   3   4 2.12644 54.7721   3
  -1  -3   4 48.3425 69.0154   5
   1   3  -4 58.9652 56.5535   7
  -1  -3   4 15.2849 58.6771   2
  -1   3   4-34.6247 38.2506   2
   1  -3  -4-37.8869 48.5124   2
  -1   3   4 30.8556 29.4610   6
   1  -3  -4 9.35932 20.5216   1
   1  -3  -3 33.8057 26.5083   2
   1  -3  -3 251.611 86.5526   1
  -1   3   3 92.6274 48.3046   7
  -1  -3   3 194.870 91.7329   2
  -1   3   3 120.827 68.3434   3
   1  -3  -3 102.840 92.2160   5
  -1  -3   3 173.707 131.194   5
   1  -3  -3 87.6588 42.7261   3
   1   3  -3 223.987 98.5217   3
  -1   3   3 64.4952 31.2570   1
   1   3  -3 164.858 86.8274   7
  -1   3   3 128.816 45.4961   6
   1   3  -2 47.6659 24.0691   7
  -1   3   2 54.0788 25.8086   3
  -1   3   2-2.40447 35.2915   6
  -1  -3   2 231.892 120.325   5
  -1   3   2 69.6896 35.8050   7
   1  -3  -2 62.3455 42.8919   2
   1   3  -2 83.5221 73.2758   3
  -1  -3   2 21.5974 50.1902   2
   1  -3  -2 38.0241 52.1579   5
   1  -3  -2-3.45601 24.9989   1
   1  -3  -1 6619.92 395.115   1
  -1  -3   1 6165.46 540.651   5
   1  -3  -1 6128.81 343.497   6
  -1   3   1 6418.11 423.977   7
   1  -3  -1 6477.08 547.141   5
  -1  -3   1 6800.90 328.914   1
   1   3  -1 7025.98 495.725   3
   1   3  -1 7122.28 499.127   7
  -1  -3   1 6561.25 551.752   2
  -1  -3   1 6383.50 323.580   6
   1  -3  -1 6521.55 501.991   2
  -1   3   1 6830.73 493.586   3
  -1  -3   0 189.580 89.5275   2
   1  -3   0 281.134 108.160   2
  -1  -3   0 322.440 69.7958   6
  -1  -3   0 278.115 133.932   5
   1   3   0 172.586 80.6409   3
  -1  -3   0 271.267 96.4063   3
   1  -3   0 38.2118 95.4442   5
  -1  -3   0 189.325 59.1836   1
  -1   3   0 214.827 91.2151   3
   1  -3   0 200.717 67.6752   1
   1   3   0 194.641 82.6783   7
   1   3   0 219.389 87.5600   2
   1  -3   0 249.180 79.7554   6
  -1   3   0 232.064 85.1847   7
  -1   3  -1 92.9415 63.8864   3
   1  -3   1 3.62766 43.2544   5
  -1  -3  -1 51.0913 38.3980   3
   1   3   1 16.7395 32.3676   2
  -1  -3  -1-8.20067 14.1630   1
  -1  -3  -1 40.0979 55.2011   2
   1   3   1-37.3662 71.9489   3
   1  -3   1-31.0419 27.9170   6
  -1   3  -1 47.1075 31.3275   7
   1  -3   1 37.3734 41.2245   2
   1  -3   1-29.9499 27.4753   1
  -1  -3  -1 40.9897 28.5581   5
   1   3   2-31.5080 44.7872   3
   1  -3   2-66.9276 81.0065   7
  -1  -3  -2 19.8817 22.8271   2
   1  -3   2-20.2562 37.3219   5
   1   3   2-53.6575 76.7953   2
  -1   3  -2 9.52864 45.1426   3
  -1  -3  -2 179.399 178.032   5
   1   3   2-19.8994 33.7353   1
  -1   3  -2-35.8530 53.0611   7
   1  -3   2 4.94551 17.0963   6
  -1  -3  -2-3.03255 12.7831   1
  -1  -3  -2 11.1606 22.4045   3
  -1  -3  -3 54378.0 1570.91   5
   1   3   3 51846.8 1530.85   5
  -1  -3  -3 54694.0 1302.60   3
   1  -3   3 51406.9 1549.56   5
   1   3   3 51570.2 966.373   1
   1   3   3 49508.8 1219.90   3
   1  -3   3 52863.3 1478.91   7
  -1   3  -3 51737.6 1335.07   7
  -1  -3  -3 53662.7 1475.69   2
  -1  -3  -3 48499.9 964.885   1
   1   3   3 49632.8 714.770   6
  -1   3  -3 52308.9 1465.17   3
   1   3   3 54764.2 1434.34   2
  -1  -3  -4 1736.72 290.924   5
   1   3   4 1174.24 210.515   2
  -1  -3  -4 1420.60 236.337   2
  -1   3  -4 1170.41 205.741   7
   1   3   4 1178.69 158.405   1
   1  -3   4 1013.38 199.138   7
   1   3   4 1051.09 174.216   3
   1   3   4 1342.37 246.892   5
   1   3   4 1217.41 113.870   6
   1  -3   4 1187.81 231.975   5
  -1   3  -4 1034.33 211.678   3
   1  -3   5 463.578 130.590   5
   1   3   5 593.376 120.531   1
  -1   3  -5 522.606 163.998   3
  -1   3  -5 505.278 148.855   7
  -1  -3  -5 717.235 162.018   2
   1   3   5 639.350 136.544   3
   1   3   5 638.895 171.869   5
  -1  -3  -5 623.999 168.878   5
   1  -3   5 539.800 161.599   7
   1   3   5 614.054 149.285   2
  -1   3  -6 95.2258 61.8661   7
   1   3   6 164.135 80.4750   2
  -1  -3  -6 85.4135 68.7413   2
   1  -3   6-21.8269 43.1828   5
   1   3   6 112.437 71.5763   3
   1   3   6 206.803 72.0521   1
   1  -3   6 209.690 108.031   7
  -1  -3  -6 165.173 105.479   5
  -1   3  -6 88.4806 58.1229   3
   1   3   7 13377.6 603.665   3
  -1  -3  -7 13625.5 700.137   2
  -1   3  -7 13870.0 822.621   3
   1   3   7 13005.3 625.055   1
   1  -3   7 14371.5 824.187   5
   1   3   7 13494.3 731.742   2
  -1  -3  -7 13578.5 782.569   5
   1  -3   7 14186.7 854.078   7
  -1  -3  -8 599.136 175.609   5
   1  -3   8 573.150 165.191   5
  -1   3  -8 391.158 135.549   3
  -1  -3  -8 677.416 154.622   2
   1   3   8 702.822 149.373   1
   1  -3   8 653.251 198.757   7
   1   3   8 563.348 122.875   3
   1   3   8 583.097 157.810   2
  -1  -3  -9 1606.00 236.698   2
  -1  -3  -9 1859.35 293.388   5
   1   3   9 2044.64 265.622   1
   1   3   9 1652.02 212.839   3
   1  -3   9 1739.02 287.857   5
  -1   3  -9 1747.64 315.163   3
   1   3   9 1676.25 264.096   2
   1  -3   9 2255.56 362.432   7
   1  -3  10 827.096 295.728   7
  -1  -3 -10 369.762 110.706   2
  -1  -3 -10 611.274 200.086   5
   1   3  10 250.910 102.541   1
   1  -3  10 384.958 154.868   5
  -1   3 -10 417.671 155.754   3
   1   3  10 262.963 82.3332   3
   1   3  10 465.804 145.960   7
   1   3  10 437.896 135.832   2
   1  -3  11 76619.0 1909.49   5
   1  -3  11 77016.7 2197.32   7
   1   3  11 73263.1 1459.67   3
   1   3  11 76958.7 1785.91   1
  -1  -3 -11 72560.7 1796.57   5
  -1  -3 -11 75195.8 1648.31   2
  -1   3 -11 75561.8 2105.79   3
   1   3  11 76338.1 1543.50   7
   1   3  11 77711.0 1884.51   2
  -1   3 -12-22.2477 135.629   3
   1   3  12 23.9443 21.4859   7
  -1  -3 -12-23.1664 27.5206   5
   1   3  12 192.832 103.861   2
   1   3  12 45.7521 70.7689   1
   1   3  13 7024.99 495.554   7
   1  -3  13 7693.45 727.767   7
   1   3  13 6998.94 583.744   1
   1   3  13 7167.72 609.113   2
  -1  -3 -13 6630.89 535.624   5
  -1   3 -13 7039.99 678.599   3
   1   3  14 114.968 85.7058   7
  -1   3 -14 26.3586 58.5451   3
  -1  -3 -14 52.7895 51.1886   5
   1   3  14-29.5641 45.7544   2
   1  -3  14-26.3468 72.6035   7
   1   3  14 102.641 66.6319   1
   1   3  15 7798.09 570.608   4
   1  -3  15 9769.15 856.576   7
   1   3  15 9409.51 612.823   7
  -1  -3 -15 8876.31 613.049   5
  -1   3 -15 9081.03 802.736   3
   1   3  15 10054.8 737.287   1
   1   3  15 9464.92 737.235   2
   1   3  16-20.0076 40.7604   7
   1   3  16-50.4420 95.0426   1
   1  -3  16 58.5403 81.9523   7
  -1   3 -16-18.3341 86.5249   3
   1   3  16-52.4492 32.3415   2
   1   3  16 7.12607 28.0973   4
  -1   3 -17 9666.01 869.461   3
   1   3  17 10587.1 802.638   1
   1   3  17 9834.89 666.005   7
   1   3  17 9056.54 600.286   4
   1  -3  17 9689.32 891.797   7
   1   3  17 9705.70 787.562   2
   1   3  18 236.251 102.468   7
  -1   3 -18 150.521 138.194   3
   1   3  18 282.024 86.1558   4
   1   3  18 299.692 157.577   1
   1  -3  18 684.838 271.797   7
   1   3  19 17165.9 804.646   4
   1  -3  19 20713.3 1368.45   7
   1   3  19 20235.6 1181.87   1
  -1   3 -19 20606.8 1337.92   3
   1   3  19 20045.7 1007.65   7
   1  -3  20 324.985 178.774   7
  -1   3 -20 214.342 126.590   3
   1   3  20 114.871 84.6795   7
   1   3  20 121.180 109.585   1
   1   3  21 13815.9 886.482   7
   1   3  21 11577.7 950.837   1
  -1   3 -21 11306.4 1048.71   3
   1  -3  21 13658.8 1153.23   7
   1  -3  22-36.6453 79.3111   7
   1   3  22 114.183 94.7514   1
   1   3  22-3.59166 65.4193   7
   1   3  23 3588.54 546.580   1
   1  -3  23 4439.02 702.395   7
   1   3  23 3835.68 492.821   7
   1   3  24-34.0065 71.9961   1
   1   3  24-2.14526 64.1755   7
   1  -3  24 144.509 194.429   7
   1   3  25 9342.55 955.477   1
   1  -3  25 10272.6 1115.97   7
   1   3  25 10390.4 850.589   7
   1   3  26 124.731 144.787   1
   1  -3  26-22.3593 82.0658   7
   1   3  26 155.671 110.094   7
   1   3  27 5736.73 663.377   7
   1  -3  27 7584.50 993.943   7
   1   3  27 6253.89 816.414   1
   1   3  28 172.732 132.471   7
   1  -3  28-72.5192 84.2911   7
   1   3  28 34.0892 79.4738   1
   1  -3  29 9720.51 1161.55   7
   1   3  29 8438.15 842.153   7
   1   3  29 9650.68 1061.83   1
   1  -3  30 68.5626 78.6681   7
   1   3  30-153.044 67.7985   1
   1  -3  31 252.873 255.464   7
   1   3  31 92.2815 63.8187   1
   1  -3  32-16.1936 60.4980   7
   1   3  32-1.91522 104.207   1
   1   3  33 8677.88 1120.19   1
   1  -3  33 10578.0 1314.35   7
   1  -3  34 125.510 172.623   7
   1   3  34-201.072 180.764   1
  -1   5  33 109.844 210.964   1
  -1   5  32 134.069 142.186   1
  -1  -5  32-45.8627 208.438   2
  -1   5  31 7040.45 995.014   1
  -1  -5  31 6613.65 1119.22   2
  -1  -5  31 7495.70 1177.19   7
  -1  -5  30 114.245 64.2654   7
  -1   5  30-206.663 135.361   1
  -1   5  29 1718.31 473.031   1
  -1  -5  29 1431.27 497.222   7
  -1  -5  28-74.0231 167.643   7
  -1   5  28 157.220 153.841   1
  -1   5  27 10587.8 1117.28   1
  -1  -5  27 12408.1 1424.72   7
  -1  -5  26 301.887 222.440   7
  -1   5  26 697.097 297.705   1
  -1  -5  25 1177.36 414.606   7
  -1   5  25 911.151 309.705   1
   1   5 -24-16.9940 74.1556   3
  -1   5  24 28.5762 93.1562   1
  -1  -5  23 19300.4 1637.69   7
   1   5 -23 18686.8 1561.02   3
  -1   5  23 18274.1 1348.99   1
  -1   5  23 17456.7 1023.40   3
  -1   5  22 316.450 158.150   3
  -1  -5  22 183.801 161.677   7
  -1   5  22 359.912 157.498   1
   1   5 -22 226.800 245.940   3
  -1   5  21 10084.1 649.004   7
   1   5 -21 11440.1 1173.91   3
  -1   5  21 9288.33 924.760   1
  -1   5  21 10323.8 775.151   3
  -1  -5  21 10486.9 1170.38   7
   1  -5 -20 547.450 205.636   5
  -1   5  20 446.042 212.472   1
  -1   5  20 676.326 202.971   3
  -1   5  20 713.764 174.067   7
  -1  -5  20 512.616 237.799   7
   1   5 -20 580.674 293.732   3
   1   5 -19 6779.24 880.689   3
  -1   5  19 6385.78 603.555   3
  -1   5  19 6498.95 741.687   1
   1  -5 -19 6012.49 690.904   5
  -1   5  19 6057.09 482.492   7
  -1  -5  19 5848.15 847.992   7
  -1   5  18 152.904 89.7212   7
  -1   5  18-9.93504 59.5742   3
   1  -5 -18 11.4909 85.0975   5
  -1  -5  18 418.847 251.550   7
   1   5 -18 216.584 193.642   3
  -1   5  18 85.8656 83.3415   1
  -1  -5  17 1526.32 414.604   7
   1   5 -17 1479.69 401.358   3
  -1   5  17 1711.49 250.841   7
   1  -5 -17 1310.14 319.885   5
  -1   5  17 1310.89 308.355   1
  -1   5  17 1411.06 292.723   3
  -1   5  16-20.7299 22.7795   3
  -1   5  16 2.96973 43.1023   7
  -1   5  16 66.2198 92.4907   1
  -1  -5  16-110.124 138.517   7
   1   5 -16 214.463 101.533   3
   1  -5 -16-95.9713 121.830   5
  -1   5  15 4364.83 491.106   3
   1   5 -15 3497.29 587.509   3
  -1   5  15 4045.38 521.130   1
  -1  -5  15 3911.45 646.524   7
  -1   5  15 4382.95 462.312   2
  -1   5  15 4468.26 388.144   7
   1  -5 -15 3916.31 564.909   5
   1   5 -14-61.1747 91.8410   3
  -1   5  14-9.08510 28.3249   3
   1  -5 -14-69.5084 58.0456   2
   1  -5 -14-104.764 122.807   5
  -1   5  14-67.4196 58.4442   2
  -1   5  14-97.4620 87.3599   1
  -1  -5  14-62.4695 75.5672   7
  -1   5  14 43.3051 37.7433   7
  -1   5  13 17154.4 973.514   3
   1  -5 -13 18069.4 1203.88   5
   1  -5 -13 19622.2 944.543   2
  -1  -5  13 18529.0 1360.90   7
  -1   5  13 18200.1 1040.82   1
  -1  -5  13 19559.6 1448.52   2
  -1   5  13 18735.1 943.349   2
   1   5 -13 17427.1 1254.41   3
  -1   5  13 18941.7 798.105   7
   1  -5 -12-33.7715 66.7987   2
  -1   5  12 75.1934 53.0794   1
   1  -5 -12 97.4474 138.165   5
  -1  -5  12 283.220 236.117   2
   1   5 -12 210.660 152.970   3
  -1   5  12-60.1792 46.2381   3
  -1   5  12-6.86940 22.9068   2
  -1   5  11 6087.21 576.787   3
  -1   5  11 6606.94 586.867   1
  -1   5  11 6862.76 467.621   6
  -1  -5  11 7347.73 858.557   2
   1  -5 -11 5604.04 664.250   5
  -1   5  11 6657.96 559.612   2
   1  -5 -11 6367.14 549.791   2
   1   5 -11 6526.84 725.324   3
  -1   5  10 238.734 117.328   1
  -1   5  10 252.006 127.739   3
   1   5 -10 77.7310 78.7195   3
  -1  -5  10 112.989 79.0990   2
  -1   5  10 331.105 125.692   2
  -1   5  10 270.279 94.2970   6
   1  -5 -10 166.977 127.259   5
   1  -5 -10 170.233 92.4548   2
  -1   5   9 14444.3 631.786   6
   1  -5  -9 14159.5 877.217   2
  -1  -5   9 14398.3 1174.05   2
  -1   5   9 15023.8 848.179   2
   1   5  -9 13645.0 1025.21   3
   1  -5  -9 13646.7 1056.75   5
  -1   5   9 14147.2 802.250   1
  -1   5   9 13666.1 872.158   3
  -1   5   8 30.2046 43.6825   1
   1   5  -8 279.336 193.889   3
  -1   5   8 87.3083 47.6126   6
   1  -5  -8 165.241 183.499   5
  -1   5   8 23.8107 57.8914   3
   1  -5  -8 16.6202 63.1978   2
  -1  -5   8 71.3087 107.596   2
  -1  -5   7 2727.56 483.648   5
  -1  -5   7 2929.14 517.757   2
   1  -5  -7 2251.92 368.734   2
  -1   5   7 2820.05 262.650   6
   1  -5  -7 2549.40 457.801   5
  -1   5   7 2625.49 334.469   7
  -1   5   7 2416.01 307.966   1
   1   5  -7 2100.05 370.988   3
   1  -5  -7 2468.49 323.114   1
  -1   5   7 2151.06 346.926   3
  -1  -5   6 93.1203 167.414   5
   1  -5  -6 65.7182 37.3783   2
  -1   5   6 12.7235 48.2541   1
  -1   5   6-21.1580 30.7726   6
   1  -5  -6 238.928 174.808   5
   1   5  -6-9.36836 59.9712   3
  -1  -5   6 63.2892 73.2535   2
  -1   5   6-8.62395 68.8591   3
   1  -5  -6 82.9106 39.7233   1
  -1   5   6 32.2851 33.9355   7
  -1   5   5 36569.8 1255.44   7
   1   5  -5 33847.8 1521.82   3
  -1  -5   5 35209.4 1766.47   2
   1  -5  -5 35541.5 1697.67   5
  -1  -5   5 34883.3 1169.20   6
  -1   5   5 33530.2 1392.23   3
   1  -5  -5 32305.3 1164.93   1
   1  -5  -5 37366.1 1564.44   2
  -1  -5   5 35021.9 1692.52   5
  -1   5   4 23.6964 17.1342   7
  -1  -5   4 56.1506 46.1788   1
   1   5  -4 15.8284 96.8326   3
  -1   5   4-38.7715 92.1316   3
   1  -5  -4 3.87105 48.0537   1
  -1  -5   4 7.21125 16.6951   6
   1  -5  -4 20.4667 80.1654   2
  -1  -5   4 99.3034 86.4733   2
  -1  -5   4-3.43760 113.504   5
  -1  -5   3 2434.46 276.621   1
  -1   5   3 2493.58 338.860   7
   1  -5  -3 2650.83 458.449   5
  -1  -5   3 2671.56 473.841   2
   1   5  -3 2412.73 397.187   3
   1  -5  -3 2272.04 311.247   1
   1  -5  -3 2793.92 449.287   2
  -1  -5   3 2392.47 434.277   5
  -1  -5   3 2144.39 266.668   6
  -1   5   3 2705.14 390.057   3
   1  -5  -2 65.3816 30.9651   1
  -1   5   2 202.692 93.9048   7
   1  -5  -2 58.4264 68.1229   2
  -1  -5   2 301.054 199.299   5
   1   5  -2 10.3534 83.9825   3
   1  -5  -2 2.25293 81.3902   5
  -1  -5   2 50.4967 51.7906   6
  -1   5   2-1.12670 70.7484   3
  -1  -5   2 56.9769 71.6053   2
  -1  -5   2 140.596 63.7659   1
  -1  -5   1 5448.38 674.372   2
   1   5  -1 5235.29 571.089   3
  -1  -5   1 6899.35 750.881   5
   1  -5  -1 6621.45 746.219   5
  -1   5   1 5898.54 600.617   3
   1  -5  -1 6226.09 502.580   1
  -1  -5   1 5365.11 371.580   6
   1  -5  -1 6336.01 690.978   2
  -1  -5   1 5698.67 426.500   1
  -1  -5   0 477.222 237.528   2
  -1   5   0 467.963 175.228   3
   1  -5   0 277.680 112.358   2
   1  -5   0 619.530 249.636   5
  -1  -5   0 274.071 86.9134   1
   1  -5   0 429.658 132.665   1
   1  -5   0 297.730 87.8538   6
   1   5   0 548.773 184.107   3
  -1  -5   0 370.003 225.486   5
  -1   5  -1 196.008 139.949   3
  -1  -5  -1 573.977 236.113   5
  -1  -5  -1 245.864 80.1981   1
   1   5   1 463.161 191.732   3
   1  -5   1 236.176 95.8199   1
  -1  -5  -1 325.878 175.442   2
   1  -5   1 545.417 202.949   5
   1  -5   1 242.820 98.5000   6
   1  -5   1 366.726 178.274   2
  -1  -5  -2 237.509 148.882   2
   1  -5   2 269.984 106.136   6
   1  -5   2 105.903 66.2326   1
   1  -5   2 478.737 238.464   5
   1  -5   2 368.255 191.147   2
  -1   5  -2 132.478 118.776   3
  -1  -5  -2 683.440 310.413   5
   1   5   2 82.4385 68.7990   3
  -1  -5  -2 126.590 53.2039   1
  -1  -5  -3 65619.7 2301.53   5
   1   5   3 62907.6 1873.80   3
  -1  -5  -3 62309.4 2160.10   2
   1  -5   3 68892.5 2371.03   5
   1  -5   3 66730.7 2346.46   2
  -1  -5  -3 61853.8 1374.13   1
  -1   5  -3 64328.1 2094.83   3
   1  -5   3 65088.7 1630.54   6
   1  -5   3 66543.1 1563.80   1
   1  -5   4 276.353 222.540   5
   1  -5   4 107.877 81.1188   6
   1   5   4 7.57411 76.6369   3
   1  -5   4-16.1427 50.7172   1
  -1   5  -4 50.8854 74.3594   3
  -1  -5  -4-24.8091 45.7188   2
   1  -5   4 63.2123 82.1784   2
  -1  -5  -4 1.12721 24.4925   1
  -1   5  -5 406.352 188.902   3
   1  -5   5 153.847 57.3316   2
   1  -5   5 256.686 162.326   5
  -1  -5  -5 135.138 85.2547   5
  -1  -5  -5 293.761 178.309   2
   1   5   5 3.20594 73.5888   3
   1   5   5 281.995 93.6306   1
  -1   5  -6 104.641 74.5290   3
   1  -5   6 278.697 196.412   2
   1  -5   6 323.127 178.545   5
   1   5   6-7.98974 99.8626   3
  -1  -5  -6 35.2190 133.506   5
   1   5   6 121.642 79.2053   1
  -1  -5  -6-19.8588 88.9320   2
   1   5   7 6445.11 573.121   3
  -1  -5  -7 6741.36 660.285   2
   1  -5   7 7966.44 855.897   2
   1   5   7 6434.29 486.455   1
  -1  -5  -7 6502.02 728.213   5
   1   5   7 6452.02 315.873   6
   1  -5   7 5988.10 698.613   5
  -1   5  -7 5897.30 680.736   3
   1  -5   8 1172.64 340.423   2
   1  -5   8 473.510 195.067   7
   1   5   8 728.239 173.593   1
   1   5   8 727.562 108.707   6
  -1   5  -8 518.581 182.193   3
   1   5   8 670.354 187.359   3
  -1  -5  -8 693.385 221.606   2
   1  -5   8 709.759 268.873   5
  -1  -5  -8 838.679 262.253   5
   1   5   9 234.175 104.260   3
   1   5   9 356.160 127.941   1
   1  -5   9 282.449 167.867   5
  -1  -5  -9 255.665 134.526   2
   1  -5   9 161.306 53.6472   7
   1   5   9 350.697 82.7981   6
  -1  -5  -9 165.611 92.1395   5
  -1   5  -9 212.819 162.983   3
  -1  -5 -10 167.488 136.004   5
   1   5  10 123.797 83.3462   3
   1  -5  10 51.7721 51.0269   5
   1   5  10 72.9663 42.3103   6
   1   5  10 76.8727 40.9043   1
  -1   5 -10 8.80213 53.8917   3
   1  -5  10-2.61639 119.809   7
  -1  -5 -10 45.3254 39.8424   2
   1   5  11 21329.4 1023.05   3
  -1  -5 -11 22740.2 1135.36   2
  -1   5 -11 20680.5 1327.58   3
  -1  -5 -11 20376.4 1274.40   5
   1  -5  11 22346.4 1467.67   7
   1   5  11 21723.8 1048.22   1
  -1  -5 -12 174.097 161.961   5
   1  -5  12-33.3580 93.3570   7
  -1  -5 -12 91.5955 111.632   2
   1   5  12 35.8934 75.0443   1
  -1   5 -12-50.3417 98.3521   3
   1   5  12 43.7392 38.0477   3
  -1   5 -13 1791.37 402.981   3
   1  -5  13 1832.69 448.467   7
   1   5  13 2152.11 357.293   1
  -1  -5 -13 2127.02 340.480   2
  -1  -5 -13 2214.76 426.390   5
   1   5  13 1790.18 295.512   3
   1  -5  14 150.101 120.067   7
  -1   5 -14 215.144 183.029   3
   1   5  14 0.44604 28.0202   3
   1   5  14 95.3920 87.4834   1
  -1  -5 -14-55.3795 83.2519   5
  -1  -5 -14 36.1262 19.6984   2
   1   5  14-42.6014 49.4891   7
   1   5  15 10744.4 854.437   1
  -1  -5 -15 9779.24 880.599   5
   1   5  15 10248.0 674.178   7
   1  -5  15 10097.6 1044.85   7
  -1   5 -15 10127.1 997.402   3
   1   5  15 10364.7 703.224   3
   1   5  16 69.2661 96.7614   3
   1   5  16-71.2917 76.2794   7
   1  -5  16 225.228 220.937   7
   1   5  16 37.6059 61.2792   1
  -1   5 -16 190.592 168.411   3
   1   5  17 18464.3 927.284   7
   1   5  17 17756.2 918.044   3
   1  -5  17 19335.6 1491.37   7
   1   5  17 16600.3 1117.43   1
  -1   5 -17 17329.2 1350.18   3
   1   5  18 28.6826 85.7601   7
   1  -5  18 406.387 283.518   7
   1   5  18 368.279 170.087   1
   1   5  18 37.9809 75.5949   3
  -1   5 -18 58.3238 147.839   3
   1   5  19 32878.3 1282.16   7
   1   5  19 32494.4 1636.82   1
   1  -5  19 32302.9 2006.81   7
  -1   5 -19 30071.4 1861.66   3
   1   5  19 32857.8 1254.11   3
   1   5  20 328.661 163.941   3
   1   5  20 187.302 169.805   1
   1   5  20 89.1033 77.1559   7
  -1   5 -20 225.188 182.633   3
   1  -5  20 244.326 209.366   7
   1  -5  21 13059.8 1314.39   7
   1   5  21 12545.6 815.389   7
  -1   5 -21 12773.3 1251.18   3
   1   5  21 12666.0 1067.30   1
  -1   5 -22-49.2920 114.472   3
   1   5  22 256.906 139.821   1
   1   5  22 7.73596 34.1377   7
   1  -5  22 76.9046 98.0016   7
  -1   5 -23 2876.29 605.262   3
   1  -5  23 2440.24 599.690   7
   1   5  23 2038.02 443.667   1
  -1   5 -24 232.509 192.905   3
   1   5  24 191.074 202.014   1
   1  -5  24 42.6155 94.7177   7
  -1   5 -25 4082.91 755.942   3
   1   5  25 3116.77 575.629   1
   1  -5  25 4590.11 836.149   7
   1   5  26-50.1241 141.879   1
   1  -5  26 655.848 394.897   7
   1   5  27 3668.60 648.335   1
   1  -5  27 4025.30 798.797   7
   1  -5  28 221.799 266.196   7
   1   5  28 32.2055 77.3987   1
   1   5  29 5491.66 834.411   1
   1  -5  29 6681.91 1081.63   7
   1  -5  30-193.223 321.548   7
   1   5  30-26.2393 42.0370   1
   1   5  31-109.283 127.020   1
   1   5  32 242.122 211.165   1
   1   5  33 6542.70 983.710   1
  -1  -7  26 364.809 173.998   2
   1   7 -26 161.308 207.540   3
  -1  -7  25 152.712 113.708   2
   1   7 -25 473.667 252.044   3
  -1  -7  24 16.0269 178.192   2
   1   7 -24 147.508 132.602   3
  -1   7  23 7818.32 910.160   1
   1   7 -23 6855.75 1075.03   3
  -1  -7  23 6386.47 1118.04   2
  -1  -7  22 806.113 407.981   2
  -1   7  22 502.969 224.181   1
   1   7 -22 343.750 281.834   3
  -1   7  21 2710.03 510.304   1
  -1  -7  21 2643.32 695.084   2
   1   7 -21 3042.33 680.320   3
  -1  -7  20 112.471 156.242   2
   1   7 -20 16.8216 204.106   3
  -1   7  20 6.46178 66.8838   1
  -1  -7  19 3678.70 821.611   2
   1   7 -19 4671.90 828.814   3
  -1   7  19 3551.82 556.893   1
  -1  -7  18 121.514 159.976   2
  -1   7  18 49.5855 88.0001   3
   1   7 -18-10.4869 198.357   3
  -1   7  18 108.409 110.316   1
  -1  -7  17 2073.63 606.644   2
  -1   7  17 3079.34 488.066   3
  -1   7  17 2357.93 438.393   1
   1   7 -17 2259.62 561.357   3
   1  -7 -16 70.4060 123.769   5
  -1   7  16 6.24577 60.7403   3
  -1   7  16 64.3050 92.4817   1
   1   7 -16-84.7743 126.599   3
  -1  -7  16-217.138 216.159   2
  -1   7  15 3463.15 521.984   3
  -1  -7  15 3077.28 719.650   2
   1  -7 -15 3838.19 692.077   5
   1   7 -15 3488.74 671.641   3
  -1   7  15 3680.24 513.197   1
  -1   7  14-24.2901 66.8830   1
   1  -7 -14 66.3717 83.7457   2
  -1   7  14-59.6743 123.205   3
  -1  -7  14 180.705 136.022   2
   1   7 -14-82.9762 149.824   3
   1  -7 -14 359.064 273.413   5
  -1   7  13 23508.5 1216.01   1
  -1   7  13 21588.8 1321.93   3
   1   7 -13 19274.5 1539.95   3
   1  -7 -13 20868.8 1620.67   5
  -1  -7  13 21632.0 1868.88   2
   1  -7 -13 23107.1 1246.80   2
   1  -7 -12 77.2175 74.4287   2
  -1   7  12 41.1634 53.8165   1
  -1  -7  12 214.034 242.099   2
   1   7 -12-10.3940 136.852   3
  -1   7  12-24.5985 102.194   3
   1  -7 -12 36.2192 152.771   5
  -1   7  11 6101.07 709.204   3
   1  -7 -11 6047.87 872.563   5
   1   7 -11 5844.39 824.865   3
   1  -7 -11 6562.01 700.654   2
  -1  -7  11 6630.96 1012.92   2
   1   7 -10-51.3627 106.038   3
   1  -7 -10 93.8153 98.2965   2
   1  -7 -10-98.1555 116.605   5
  -1  -7  10-61.1478 94.6698   2
  -1   7  10-45.5523 47.6535   3
  -1  -7   9 7096.01 1029.00   2
   1   7  -9 7383.03 895.024   3
  -1   7   9 7007.02 768.560   3
   1  -7  -9 7415.74 801.327   2
   1  -7  -9 6370.61 893.734   5
  -1   7   8 99.8004 117.394   3
   1   7  -8 6.41957 131.984   3
   1  -7  -8-343.779 250.272   5
   1  -7  -8 51.4122 118.131   2
  -1  -7   8-14.4508 164.012   2
   1  -7  -7 3208.85 547.376   2
  -1  -7   7 2740.90 632.157   2
   1   7  -7 2869.38 544.120   3
  -1   7   7 1969.40 408.421   3
   1  -7  -7 2986.88 612.863   5
   1   7  -6-54.6113 117.810   3
  -1  -7   6 171.801 149.824   2
   1  -7  -6 166.427 69.2284   5
   1  -7  -6 142.118 133.102   2
  -1   7   6 107.756 125.533   3
   1  -7  -5 20964.9 1614.73   5
  -1   7   5 20709.9 1351.09   3
   1   7  -5 20837.0 1446.03   3
  -1  -7   5 20841.5 1707.03   2
   1  -7  -5 22519.2 1511.91   2
  -1   7   4 271.572 179.912   3
   1   7  -4 381.115 211.140   3
   1  -7  -4 180.884 95.2509   2
  -1  -7   4 330.917 188.512   2
   1  -7  -3 354.191 204.434   5
   1   7  -3 462.347 198.411   3
   1  -7  -3 235.688 160.716   2
  -1   7   3 508.951 210.768   3
  -1   7   2 52.8843 69.4412   3
   1   7  -2 176.083 169.419   3
   1  -7  -2 51.6766 161.368   5
   1  -7  -2 145.892 109.527   2
  -1  -7   2-71.1598 93.2922   2
   1  -7  -1 4600.19 747.782   2
  -1   7   1 4817.24 672.916   3
   1   7  -1 4715.26 669.344   3
   1  -7  -1 5024.55 797.270   5
  -1  -7   1 4261.56 751.998   2
  -1  -7   0 226.907 166.059   2
   1   7   0 684.757 259.498   3
  -1   7   0 248.384 169.176   3
   1  -7   0 208.553 159.986   5
   1  -7   0 297.974 266.344   2
  -1  -7   0 354.770 235.450   5
  -1  -7  -1 185.289 149.935   5
  -1  -7  -1 38.2575 87.4101   2
  -1   7  -1 219.199 99.2508   3
   1  -7   1-50.3000 46.3903   2
   1  -7   1-17.4300 102.076   5
   1   7   2 386.851 196.543   3
  -1  -7  -2 471.936 235.187   5
  -1  -7  -2 146.096 66.1923   2
   1  -7   2 119.841 91.7289   2
  -1   7  -2 611.056 260.884   3
   1  -7   2 439.592 291.035   5
  -1  -7  -3 25892.4 1718.75   2
  -1  -7  -3 25672.1 1780.82   5
   1  -7   3 25867.9 1795.92   5
   1  -7   3 23171.1 1763.40   2
   1   7   3 25706.3 1486.17   3
  -1   7  -3 26999.0 1638.73   3
  -1  -7  -4 256.387 126.222   5
  -1   7  -4-24.9045 56.3965   3
   1  -7   4 218.936 192.535   2
  -1  -7  -4-84.3477 95.6372   2
   1   7   4-61.8715 80.3754   3
   1  -7   4 385.681 224.298   5
  -1  -7  -5-0.49597 119.317   2
   1  -7   5-64.1023 107.944   5
  -1   7  -5 252.692 190.538   3
   1   7   5-102.592 140.017   3
  -1  -7  -5-115.119 71.1250   5
   1  -7   5-119.193 177.627   2
   1  -7   6-8.75499 91.6539   5
  -1   7  -6-0.97758 82.5153   3
   1  -7   6-86.2026 170.788   2
   1   7   6 23.4967 35.9432   3
  -1  -7  -6 64.8139 64.5393   2
  -1  -7  -6 44.2647 114.120   5
  -1   7  -7 8412.99 955.696   3
  -1  -7  -7 9170.53 1065.10   5
   1  -7   7 8243.42 1091.00   2
  -1  -7  -7 10296.5 1005.09   2
   1   7   7 8042.74 811.189   3
   1  -7   7 8925.42 1074.84   5
   1  -7   8 463.974 262.589   2
  -1   7  -8-38.4294 110.215   3
  -1  -7  -8 112.906 100.653   2
  -1  -7  -8 281.149 190.166   5
   1   7   8 67.5297 92.9739   3
  -1  -7  -9 1384.13 350.968   2
   1   7   9 1364.64 321.893   3
   1  -7   9 1444.91 461.839   2
  -1   7  -9 1398.63 410.737   3
   1   7  10 283.581 183.169   3
   1  -7  10 17.0554 104.172   2
  -1  -7 -10 69.0926 44.3733   2
  -1   7 -10 46.2589 91.0455   3
   1   7  11 28790.9 1212.19   1
   1   7  11 27555.3 1446.02   3
  -1  -7 -11 30957.2 1597.05   2
  -1   7 -11 28489.2 1839.00   3
   1  -7  11 29739.7 2151.37   2
   1   7  12 110.505 83.7053   3
  -1  -7 -12 11.4938 52.9250   2
   1  -7  12 20.5764 84.0805   2
  -1   7 -12 11.3114 131.800   3
   1   7  12 142.945 99.8910   1
  -1  -7 -13 3497.83 517.274   2
   1   7  13 3429.94 445.203   1
   1  -7  13 3946.02 791.247   2
   1   7  13 3199.29 490.051   3
  -1   7 -13 3081.25 622.832   3
   1   7  14 41.5028 42.5860   3
   1  -7  14-28.2140 71.3101   2
   1   7  14-116.896 80.7436   1
  -1  -7 -14 55.9462 98.4178   2
  -1   7 -14 54.8965 86.6836   3
   1   7  15 6296.61 674.806   3
   1   7  15 6247.96 648.518   1
   1  -7  15 5375.12 944.414   2
  -1   7 -15 6307.32 906.547   3
   1  -7  16 490.195 305.118   2
  -1   7 -16 432.372 234.401   3
   1   7  16 350.973 164.515   3
   1   7  16 564.184 195.400   1
   1  -7  17 5579.34 983.318   2
   1   7  17 5996.86 676.012   1
  -1   7 -17 5614.91 887.077   3
  -1   7 -18-134.781 142.843   3
   1   7  18 51.5091 107.019   1
   1  -7  18 71.1239 200.290   2
  -1   7 -19 14841.1 1480.71   3
   1  -7  19 13416.8 1562.34   2
   1  -7  20 50.1110 119.531   2
  -1   7 -20 262.050 212.363   3
  -1   7 -21 7148.50 1063.51   3
   1  -7  21 6491.77 1097.61   2
  -1   7 -22-97.0863 66.8909   3
   1  -7  22 450.842 338.476   2
  -1   7 -23 1735.39 561.058   3
   1  -7  23 1852.21 598.490   2
   1  -7  24-41.9761 149.153   2
  -1   7 -24 41.5006 182.188   3
   1  -7  25 6522.91 1160.12   2
  -1   7 -25 5687.53 1018.57   3
  -1   7 -26 46.5339 121.725   3
  -1  -9  17 1786.91 639.870   2
   1   9 -17 870.476 382.838   3
  -1  -9  16-599.136 377.693   2
   1   9 -16 30.8050 176.433   3
   1   9 -15 2151.28 588.933   3
  -1  -9  15 2846.78 820.535   2
  -1  -9  14 397.424 336.102   2
   1   9 -14 30.8944 185.239   3
  -1  -9  13 11881.8 1652.76   2
   1   9 -13 11973.5 1400.32   3
  -1   9  12 66.9116 122.899   3
  -1  -9  12 160.372 238.656   2
   1   9 -12-56.1990 74.2459   3
   1   9 -11 4022.52 784.733   3
  -1  -9  11 3069.56 821.092   2
  -1   9  11 3772.26 656.669   3
  -1   9  10 30.0107 139.808   3
   1   9 -10-138.626 201.635   3
  -1  -9  10-108.229 163.009   2
  -1  -9   9 3606.67 877.334   2
  -1   9   9 4232.88 703.778   3
   1   9  -9 4636.14 831.105   3
  -1  -9   8 269.003 267.062   2
   1   9  -8 67.0712 55.1798   3
  -1   9   8 107.225 133.273   3
   1   9  -7 1088.31 391.821   3
  -1  -9   7 1010.93 408.449   2
  -1   9   7 1230.44 391.093   3
  -1   9   6 11.2004 131.703   3
  -1  -9   6-19.3528 128.626   2
   1  -9  -5 12217.6 1304.62   2
   1   9  -5 15052.8 1441.95   3
  -1   9   5 13522.7 1289.57   3
  -1  -9   5 12751.7 1595.28   2
   1   9  -4 234.720 148.310   3
   1  -9  -4 239.226 185.372   2
  -1   9   4 237.457 132.816   3
  -1  -9   4 335.943 196.479   2
   1   9  -3 548.985 311.487   3
  -1  -9   3 303.785 290.323   2
   1  -9  -3 489.362 245.139   2
  -1   9   3 92.1321 47.8008   3
  -1   9   2-163.822 167.345   3
   1   9  -2 68.9594 86.2718   3
  -1  -9   2-3.53682 149.896   2
  -1  -9   1 5424.76 997.770   2
   1  -9  -1 6013.05 996.366   2
   1   9  -1 5640.84 847.482   3
  -1   9   1 5088.53 810.974   3
   1   9   0 165.224 188.295   3
  -1   9   0 15.8217 140.001   3
  -1  -9   0 167.998 130.172   2
   1  -9   1 116.647 247.262   2
  -1  -9  -1 75.5612 51.1560   2
   1   9   1 149.732 165.786   3
  -1   9  -1 270.560 146.833   3
  -1  -9  -2-90.3058 126.592   2
   1  -9   2 12.3630 286.696   2
  -1   9  -2 149.602 178.030   3
   1   9   2 285.641 304.497   3
   1  -9   3 14620.8 1685.26   2
   1   9   3 18192.0 1468.09   3
  -1   9  -3 19123.7 1626.16   3
  -1  -9  -3 19246.0 1735.31   2
  -1   9  -4 232.477 185.805   3
   1  -9   4-54.7333 113.400   2
   1   9   4-130.215 183.285   3
  -1  -9  -4 12.0012 53.5914   2
   1   9   5 158.936 118.107   3
  -1  -9  -5 263.765 238.372   2
   1  -9   5-140.275 248.208   2
  -1   9  -5 179.741 145.655   3
   1  -9   6-121.784 70.0505   2
  -1   9  -6 85.1918 104.157   3
   1   9   6 6.90623 50.1517   3
  -1  -9  -6 41.0539 81.7333   2
   1  -9   7 6030.42 1109.56   2
   1   9   7 7077.30 892.242   3
  -1   9  -7 6617.13 993.243   3
   1   9   8 20.1155 38.1604   3
   1  -9   8 152.293 168.381   2
  -1   9  -8-212.275 186.802   3
  -1   9  -9 738.146 324.766   3
   1   9   9 926.636 320.221   3
   1  -9   9 235.277 234.904   2
   1  -9  10-179.974 217.340   2
  -1   9 -10-107.315 86.6268   3
   1   9  10 22.0329 38.8883   3
   1  -9  11 14855.7 1825.45   2
  -1   9 -11 15803.4 1604.27   3
  -1   9 -12 214.850 178.800   3
   1  -9  12 5.32103 97.1673   2
  -1   9 -13 1786.83 553.633   3
   1  -9  13 1677.14 637.481   2
   1  -9  14-72.1302 64.6654   2
  -1   9 -14 86.8580 194.457   3
   1  -9  15 4210.78 1010.24   2
  -1   9 -15 5031.90 924.042   3
   1  -9  16 424.094 199.257   2
  -1   9 -16 254.057 225.766   3
   1  -9  17 4007.02 994.500   2
  -2   0  37 117.319 164.351   7
  -2   0  36 7440.28 995.353   7
  -2   0  36 9110.56 1168.73   1
  -2   0  35 223.883 179.025   7
  -2   0  34 134.551 179.881   7
  -2   0  33 63.7839 129.226   7
  -2   0  32 5169.89 757.722   7
  -2   0  31 646.319 267.063   7
  -2   0  30 547.215 230.122   7
  -2   0  29 256.821 139.504   7
  -2   0  28 19650.3 1333.61   7
  -2   0  27 72.4009 124.307   7
  -2   0  26 7840.81 797.795   7
  -2   0  25 5.80805 80.6602   7
  -2   0  24 21415.2 1258.88   7
  -2   0  23 185.107 148.080   7
  -2   0  22 8948.51 770.113   7
  -2   0  21-153.346 80.7388   7
  -2   0  20 18093.2 1028.37   7
  -2   0  19 171.978 132.212   7
   2   0 -18 20836.1 510.391   5
   2   0 -18 23929.7 554.036   4
  -2   0  17 83.5538 93.5182   7
   2   0 -17 8.55091 12.8194   4
  -2   0  16 12057.2 759.140   3
   2   0 -16 10893.1 434.260   4
  -2   0  16 11326.9 705.323   7
   2   0 -15 5.80216 22.2654   4
  -2   0  15 23.6769 47.0041   7
   2   0 -15 46.5963 44.1429   7
  -2   0  15 13.1139 22.0744   3
  -2   0  14 9564.50 637.263   3
   2   0 -14 11344.8 679.727   7
  -2   0  14 10245.8 618.323   7
   2   0 -13 0.34904 24.4256   7
  -2   0  13-41.4814 49.8966   3
   2   0 -12 10995.9 613.077   7
  -2   0  12 10260.9 569.300   7
  -2   0  12 10571.6 623.916   3
   2   0 -11 3.84739 44.3141   7
  -2   0  11 9.71131 31.1744   3
  -2   0  10 29762.4 870.939   7
   2   0 -10 32928.1 945.072   7
  -2   0   9-31.5366 31.3503   7
   2   0  -9 32.2810 35.3715   7
  -2   0   8 3008.81 244.470   7
  -2   0   7 16.0096 23.6698   7
  -2   0   6 31390.5 666.670   7
  -2   0   5-4.80049 12.8521   7
  -2   0   4 6973.01 254.312   7
   2   0   3-11.6198 11.7898   3
   2   0   3-26.0754 11.6843   7
  -2   0  -4 4941.55 211.747   3
   2   0   4 4825.46 283.515   7
   2   0   4 5171.46 215.866   3
   2   0   5-0.35788 17.2293   7
   2   0   5 2.06188 20.5617   3
  -2   0  -5-29.8608 20.8113   3
   2   0   6 54741.5 1102.75   7
  -2   0  -6 53611.3 874.529   3
   2   0   6 54123.2 878.182   3
  -2   0  -7-28.9527 31.4004   3
   2   0   7-20.5487 26.2372   3
   2   0   7 50.1459 39.0295   7
   2   0   8 12574.3 489.328   3
   2   0   8 12813.6 602.134   7
   2   0   9 31.9898 43.2415   3
   2   0   9 72.0179 56.2743   7
   2   0  10 16888.6 640.373   3
   2   0  10 16586.6 750.468   7
  -2   0 -11 13.9174 38.1014   7
   2   0  11 46.2372 71.9619   3
   2   0  11-39.9101 58.1837   7
   2   0  12 2075.23 289.209   7
   2   0  12 2207.62 254.175   3
  -2   0 -12 2159.96 309.357   7
   2   0  13 16.9121 85.7681   3
   2   0  13 95.5294 91.1598   7
   2   0  14 46378.6 1481.09   7
   2   0  14 46446.5 1275.80   3
   2   0  15-17.0632 74.9245   7
   2   0  15-43.8686 44.1522   3
   2   0  16 7152.55 613.649   7
   2   0  16 7303.40 552.831   3
   2   0  17 149.157 85.4385   7
   2   0  17 41.1124 40.0481   3
   2   0  18 8227.45 619.169   3
   2   0  18 8456.10 723.049   7
   2   0  19 92.9865 98.8784   7
   2   0  20 8801.17 775.667   7
   2   0  21-24.4390 73.0999   7
   2   0  22 30751.7 1541.30   7
   2   0  23 140.883 120.577   7
   2   0  24 10506.6 946.395   7
   2   0  25 169.435 151.121   7
   2   0  26 1979.31 426.757   7
   2   0  27 77.8877 93.9183   7
   2   0  28 8970.64 967.196   7
   2   0  29-2.53085 114.026   7
   2   0  30 3293.86 613.749   7
   2   0  31 187.474 148.519   7
   2   0  32 7472.36 971.317   7
   2   0  33 53.6673 100.801   7
   2   0  34 114.320 118.502   7
   2   0  35 23.8063 101.652   7
   2   0  36 13971.3 1448.00   7
   2   0  37 464.190 263.336   7
  -2  -2  37 458.009 321.437   7
  -2  -2  36 11379.6 1363.75   7
  -2   2  36 12627.4 1394.80   1
  -2   2  35 112.775 122.751   1
  -2  -2  35 170.677 211.298   7
  -2   2  34-90.6134 125.052   1
  -2  -2  34 380.595 234.870   7
  -2  -2  33-114.325 155.105   7
  -2   2  33-50.6780 129.142   1
  -2   2  32 11768.8 1033.54   7
  -2   2  32 11752.9 1231.55   1
  -2  -2  32 11776.3 1263.74   7
  -2  -2  31 129.821 157.822   7
  -2   2  31 268.246 182.164   1
  -2   2  31 197.992 171.379   7
  -2   2  30 249.027 122.339   7
  -2  -2  30 438.441 268.842   7
  -2   2  30 147.630 102.661   1
  -2   2  29 69.5188 166.588   1
  -2  -2  29 130.638 102.625   7
  -2   2  29 47.0084 82.4425   7
  -2   2  28 11549.3 922.851   7
  -2   2  28 11201.2 1096.46   1
  -2  -2  28 12144.5 1165.95   7
  -2   2  27 323.874 353.117   1
  -2  -2  27 175.027 160.318   7
  -2   2  27 185.275 130.384   7
  -2   2  26 5226.51 707.116   1
  -2   2  26 4705.63 564.077   7
  -2  -2  26 4723.86 695.111   7
  -2  -2  25 692.931 261.298   7
  -2   2  25 582.638 230.124   1
  -2   2  25 224.810 117.118   7
  -2   2  24 14802.1 931.690   7
  -2  -2  24 15116.9 1196.20   7
  -2   2  24 13525.1 1081.02   1
  -2   2  23 127.604 94.0307   7
  -2   2  23 35.1456 78.2836   1
  -2  -2  23 38.9320 116.121   7
  -2  -2  22 6585.71 757.976   7
  -2   2  22 5493.80 532.734   7
   2  -2 -22 4772.88 311.644   5
  -2   2  22 5078.31 623.535   1
  -2   2  21 59.6790 38.6334   2
  -2  -2  21 199.263 134.928   7
  -2   2  21 51.4492 33.2507   7
   2  -2 -21 11.8849 19.8310   5
  -2   2  21-147.415 108.483   1
  -2   2  20 22001.0 992.239   7
   2   2 -20 19466.3 845.208   5
   2  -2 -20 20409.0 722.481   5
  -2   2  20 20267.8 1034.29   2
  -2  -2  20 23117.6 1334.03   7
  -2   2  20 21647.8 1220.53   1
   2  -2 -19 119.153 74.5966   5
  -2   2  19 84.0727 81.9324   7
  -2   2  19 52.6236 47.8465   2
  -2   2  19 515.944 224.880   1
   2   2 -19 99.8568 56.0362   5
  -2  -2  19 588.348 242.745   7
   2  -2 -18 26141.1 868.574   5
   2   2 -18 24723.6 973.511   5
  -2  -2  18 27089.8 1382.15   7
  -2   2  18 25733.5 1080.74   2
  -2   2  18 25179.4 1001.76   7
  -2   2  18 26363.3 1264.44   1
  -2   2  17 189.734 104.581   1
  -2   2  17 166.641 90.7875   2
   2  -2 -17 42.6193 46.2777   5
   2   2 -17 138.421 67.8088   5
  -2   2  17 167.309 86.0010   7
  -2  -2  17 343.170 178.923   7
   2   2 -16 9424.33 598.883   5
  -2   2  16 9543.03 564.822   7
  -2  -2  16 9612.70 783.738   7
   2  -2 -16 9014.01 530.795   5
  -2   2  16 9554.61 604.248   2
  -2   2  16 10471.2 752.737   1
   2  -2 -15 148.195 65.8727   5
  -2   2  15 81.0376 62.0116   7
  -2   2  15 39.8021 46.6857   2
   2   2 -15 71.4450 53.9792   5
   2   2 -15 28.4823 92.8795   3
  -2   2  15 155.106 100.796   1
  -2  -2  15 43.1595 109.723   7
  -2   2  14 10033.9 518.123   7
  -2   2  14 10690.7 601.932   4
  -2  -2  14 11004.3 791.508   7
  -2   2  14 11127.4 723.218   1
   2   2 -14 9915.13 612.158   5
  -2   2  14 10010.3 567.091   2
   2   2 -14 9875.15 739.629   3
   2  -2 -14 9283.09 552.376   5
  -2   2  13 126.551 73.4083   1
  -2   2  13 84.7737 53.8119   2
  -2   2  13 141.772 63.6989   4
   2   2 -13 98.4747 59.5101   5
   2  -2 -13 41.4802 63.2025   5
  -2   2  13 15.0701 15.1783   7
  -2  -2  13 102.542 119.250   7
   2   2 -13 34.8658 41.6762   3
  -2   2  12 7469.93 394.872   7
  -2  -2  12 7284.01 608.051   7
   2   2 -12 8146.20 654.989   3
  -2   2  12 7456.19 444.899   2
  -2   2  12 7152.82 548.664   1
  -2   2  12 7513.13 497.523   4
   2   2 -12 7877.19 543.745   5
   2   2 -11 460.497 146.503   5
  -2   2  11 464.541 105.209   2
  -2  -2  11 546.979 194.650   7
  -2   2  11 530.934 94.8224   7
  -2   2  11 536.955 138.675   4
  -2   2  11 413.362 114.864   1
   2   2 -11 416.327 130.869   3
  -2  -2  10 54771.8 1567.62   7
  -2   2  10 51631.1 1078.70   2
  -2   2  10 51159.9 909.359   7
   2   2 -10 51400.5 1374.02   5
  -2   2  10 54649.9 1406.28   1
  -2   2  10 53213.9 1317.15   4
   2   2 -10 50372.0 1535.10   3
   2   2  -9 170.728 80.0471   3
  -2   2   9 3.80200 14.2557   2
  -2   2   9 96.6853 34.9178   4
  -2   2   9 64.1814 43.1545   1
   2   2  -9 202.511 93.7056   5
  -2   2   9 73.0896 31.4097   7
  -2  -2   9 67.5401 59.9832   7
  -2   2   8 20000.8 800.790   4
  -2   2   8 19802.7 487.718   7
  -2   2   8 18121.5 552.031   2
  -2  -2   8 19215.6 887.845   7
  -2   2   8 18945.0 766.475   1
   2   2  -8 19033.5 818.440   5
   2   2  -8 19699.6 875.705   3
   2  -2  -8 19804.6 517.916   2
  -2   2   7 762.085 92.7362   7
   2  -2  -7 940.140 158.114   1
  -2   2   7 796.025 122.271   2
  -2   2   7 779.635 148.611   1
   2  -2  -7 816.824 104.904   2
   2   2  -7 909.705 181.187   5
  -2  -2   7 714.861 162.469   7
  -2   2   7 896.390 170.330   4
   2   2  -7 804.046 179.727   3
   2  -2  -6 29554.2 879.024   1
  -2   2   6 28872.2 874.963   1
  -2   2   6 29957.2 660.264   2
   2  -2  -6 28168.5 635.705   2
  -2  -2   6 28965.4 1021.97   7
   2   2  -6 29183.6 989.608   3
   2  -2  -5 199.004 56.1807   2
  -2  -2   5 108.779 69.2576   2
  -2   2   5 133.763 52.9541   1
  -2   2   5 96.8733 33.7984   2
   2   2  -5 159.331 62.7578   3
   2  -2  -4 3344.21 242.388   2
  -2  -2   4 3109.86 328.984   2
  -2   2   4 3242.82 287.650   3
   2   2  -4 3411.17 310.334   3
  -2   2   4 3178.43 258.348   1
   2   2  -3 50.0251 53.2857   3
  -2   2   3 196.439 67.1101   1
  -2   2   3-82.0667 78.0832   6
  -2  -2   3 269.253 117.671   2
   2  -2  -3 136.694 47.1029   2
  -2   2   3 103.384 24.5414   3
  -2   2   3 117.149 23.5954   7
  -2   2   2 13050.3 483.650   1
  -2   2   2 13191.9 465.282   6
  -2  -2   2 12937.1 658.087   2
  -2   2   2 13221.4 566.092   3
   2   2  -2 13021.6 557.672   3
  -2   2   2 12368.1 412.435   7
   2  -2  -2 12814.8 507.099   2
   2  -2  -1 174.708 32.1992   7
  -2  -2   1 257.372 98.4723   2
   2  -2  -1 333.965 105.673   5
   2  -2  -1 356.740 86.1704   6
  -2   2   1 326.875 81.2018   6
  -2   2   1 361.817 73.4445   7
  -2  -2   1 314.677 48.7186   1
  -2  -2   1 323.490 106.713   5
  -2   2   1 377.460 110.142   3
   2   2  -1 369.675 96.2808   3
   2  -2   0 3216.51 244.691   6
  -2   2   0 2820.24 224.918   7
  -2  -2   0 3109.11 316.837   5
  -2   2   0 2835.63 273.243   3
   2   2   0 3203.67 256.972   3
  -2  -2   0 2330.14 281.191   2
   2  -2   0 2921.78 247.529   7
  -2  -2   0 2373.37 130.631   1
   2  -2   0 2727.25 297.339   5
   2   2   1 5604.05 320.819   3
   2  -2   1 5972.66 363.424   7
  -2   2  -1 5438.92 333.174   7
  -2  -2  -1 5062.95 321.734   3
  -2  -2  -1 5454.59 416.688   2
   2  -2   1 5383.92 411.395   5
  -2   2  -1 4858.54 358.776   3
   2   2   1 5381.80 400.911   2
   2   2   1 5221.08 200.907   1
  -2  -2  -1 6269.52 443.710   5
  -2  -2  -2 1491.02 224.807   5
  -2  -2  -2 1367.31 207.015   2
   2   2   2 1379.59 204.948   2
   2   2   2 1152.75 138.517   3
   2  -2   2 1212.92 197.724   5
  -2  -2  -2 1375.62 159.974   3
  -2   2  -2 1042.19 168.247   3
  -2   2  -2 1017.76 154.623   7
   2  -2   2 1633.17 208.030   7
   2   2   2 1345.88 119.922   1
   2   2   3 7964.82 359.489   3
   2   2   3 7978.83 484.479   5
  -2   2  -3 7822.82 491.684   3
   2  -2   3 7499.52 485.087   5
   2   2   3 8091.45 496.943   2
   2  -2   3 8266.18 478.489   7
  -2  -2  -3 8217.78 377.424   3
  -2  -2  -3 8078.03 499.497   2
   2   2   3 7883.94 324.134   1
  -2  -2  -3 7481.61 488.268   5
  -2  -2  -4 582.547 136.451   5
   2   2   4 518.222 121.205   5
   2   2   4 458.701 123.759   2
  -2   2  -4 381.259 122.214   3
  -2  -2  -4 319.527 91.2822   2
   2   2   4 429.180 82.1877   1
   2  -2   4 491.850 142.227   7
   2   2   4 417.433 78.0234   3
   2  -2   4 442.932 120.887   5
   2   2   5 172.259 73.7334   5
   2   2   5 191.968 47.8211   3
  -2   2  -5 130.150 96.8013   3
   2   2   5 184.721 85.2548   2
  -2  -2  -5 227.145 88.9843   2
   2  -2   5 94.0162 43.3161   5
   2  -2   5 337.425 130.413   7
   2   2   6 123271. 1873.44   5
   2   2   6 122143. 1364.15   3
  -2  -2  -6 126921. 1939.31   2
  -2  -2  -6 124809. 1922.58   5
   2   2   6 134167. 2160.54   2
  -2   2  -6 125181. 2104.93   3
   2  -2   6 124360. 1979.85   5
   2  -2   6 125898. 2139.92   7
   2   2   7 338.704 93.3687   5
  -2  -2  -7 234.064 76.8197   2
   2  -2   7 802.851 288.120   7
  -2   2  -7 193.215 81.7522   3
   2  -2   7 334.382 105.150   5
   2   2   7 456.730 130.070   2
   2   2   7 269.923 61.2432   3
  -2  -2  -7 651.122 162.697   5
  -2   2  -8 4595.92 430.938   3
  -2  -2  -8 3933.21 355.812   2
   2  -2   8 4160.06 357.799   5
  -2  -2  -8 4386.62 356.976   5
   2   2   8 4550.32 417.322   2
   2   2   8 4511.55 345.765   7
   2  -2   8 4165.15 420.955   7
   2  -2   8 4175.15 426.969   3
   2  -2   9 414.058 123.998   5
   2  -2   9 452.216 136.379   3
  -2   2  -9 365.662 115.052   3
   2   2   9 284.154 85.9097   7
   2   2   9 290.562 109.284   2
   2  -2   9 493.031 168.263   7
   2  -2  10 23865.7 1078.69   7
   2  -2  10 22161.0 838.020   5
  -2   2 -10 21851.5 989.166   3
   2  -2  10 22833.1 1018.02   3
   2   2  10 24030.4 1003.66   2
   2   2  10 22328.1 835.570   7
   2  -2  11 278.248 112.866   3
   2  -2  11 358.217 180.144   7
   2   2  11 207.530 75.1147   2
   2  -2  11 195.983 85.5598   5
  -2   2 -11 245.066 113.012   3
   2   2  11 285.026 87.2177   7
   2  -2  12 7751.99 646.626   7
  -2   2 -12 7292.50 608.297   3
   2   2  12 7972.74 615.103   2
   2   2  12 7597.46 524.180   7
   2  -2  13 272.518 124.618   7
   2   2  13 239.373 92.5752   7
   2   2  13 145.453 45.7620   4
  -2   2 -13 193.883 88.1503   3
   2   2  13 92.7691 57.8518   2
   2   2  14 28447.5 1228.12   2
   2   2  14 26648.4 794.683   4
   2   2  14 27245.0 1054.25   7
  -2   2 -14 26974.7 1228.84   3
   2  -2  14 28812.6 1335.62   7
   2   2  15 112.944 76.7200   2
   2   2  15 85.5730 85.1217   7
   2  -2  15 47.1733 116.505   7
   2   2  15-2.09508 13.2452   4
  -2   2 -15-3.59936 87.4447   3
   2   2  16 4455.91 307.487   4
   2   2  16 4988.73 483.443   7
  -2   2 -16 4616.39 540.174   3
   2  -2  16 5013.30 588.385   7
   2  -2  17 94.4773 94.4974   7
   2   2  17 85.8126 30.5292   3
   2   2  17 216.760 107.537   7
  -2   2 -17 279.860 165.307   3
  -2   2 -17 60.3800 33.6564   4
   2   2  18 7172.02 622.109   7
   2  -2  18 7171.82 738.660   7
   2   2  18 7315.38 519.550   3
  -2   2 -18 6796.59 443.892   4
  -2   2 -18 6806.81 705.348   3
   2  -2  19 257.852 181.422   7
   2   2  19 81.3925 71.0048   3
  -2   2 -19 38.5969 12.5720   4
   2   2  19 103.492 88.2369   7
   2  -2  20 3234.54 522.645   7
   2   2  20 3283.21 360.762   3
  -2   2 -20 2831.65 269.041   4
   2   2  20 3159.88 439.192   7
   2   2  21-4.71497 87.0397   7
   2   2  21-41.8540 61.6250   3
   2  -2  21 195.005 150.456   7
  -2   2 -21 35.7867 40.0972   4
   2  -2  22 22427.6 1448.73   7
   2   2  22 22948.5 1244.44   7
   2   2  23 112.670 50.1671   7
   2  -2  23 254.117 133.886   7
   2  -2  24 9813.10 1007.88   7
   2   2  24 10270.4 880.644   7
   2  -2  25 142.269 128.646   7
   2   2  25 53.9246 42.8418   7
   2   2  26 1601.14 371.588   7
   2  -2  26 1229.55 376.471   7
   2   2  27 152.155 100.974   7
   2  -2  27 255.022 212.853   7
   2  -2  28 13035.7 1290.05   7
   2   2  28 12667.8 1069.52   7
   2  -2  29-24.8482 71.9154   7
   2   2  29 40.1008 120.059   7
   2   2  30 6634.06 811.833   7
   2  -2  30 7494.66 1002.82   7
   2   2  31-58.0551 71.2641   7
   2   2  31 72.4040 75.5186   1
   2  -2  31 164.553 142.488   7
   2  -2  32 10671.5 1260.02   7
   2   2  32 10025.3 1157.97   1
   2   2  32 9604.13 1018.26   7
   2   2  33 186.827 117.125   1
   2  -2  33 114.568 50.9073   7
   2  -2  34 29.0547 117.498   7
   2   2  34-115.741 204.743   1
   2  -2  35 471.318 343.820   7
  -2  -4  35-118.448 165.463   2
  -2  -4  34 287.981 238.859   7
  -2   4  34 204.698 171.577   1
  -2   4  33 115.005 97.4440   1
  -2  -4  33 87.2470 188.535   7
  -2   4  32 7279.99 996.053   1
  -2  -4  32 8741.77 1216.76   7
  -2   4  31-90.3885 155.276   1
  -2  -4  31 84.8620 141.032   7
  -2   4  30 225.403 147.362   1
  -2  -4  30 199.818 195.040   7
  -2   4  29 125.614 160.203   1
  -2  -4  29-179.085 229.419   7
  -2   4  28 12325.2 1195.68   1
  -2  -4  28 13735.3 1421.10   7
  -2   4  27-32.4471 59.3011   1
  -2  -4  27 134.805 176.991   7
  -2  -4  26 5645.01 875.533   7
  -2   4  26 6340.59 821.592   1
  -2  -4  25 669.208 254.718   7
  -2   4  25 566.252 271.956   1
  -2   4  24 15707.7 1235.77   1
  -2   4  24 17031.7 893.590   7
  -2  -4  24 17773.6 1493.64   7
  -2   4  23-18.9677 51.6995   7
   2  -4 -23 98.9886 94.1090   5
  -2  -4  23 231.802 151.294   7
  -2   4  23 207.599 162.396   1
  -2   4  22 2662.11 478.408   1
  -2   4  22 3101.66 361.069   7
  -2  -4  22 2432.86 544.848   7
   2  -4 -22 3181.39 435.551   5
  -2  -4  21 74.3023 171.051   7
  -2   4  21 32.7266 65.6427   1
   2  -4 -21 148.394 155.949   5
  -2   4  21 26.8843 62.4299   7
   2   4 -21 134.674 127.538   3
  -2   4  20 13220.5 1031.02   1
  -2   4  20 14485.7 732.181   7
  -2  -4  20 14095.2 1230.20   7
   2   4 -20 13251.7 1163.37   3
   2  -4 -20 13506.7 902.865   5
  -2   4  19 143.711 85.4392   7
  -2  -4  19 429.524 207.400   7
   2  -4 -19 125.837 84.3384   5
   2   4 -19 273.584 188.478   3
  -2   4  19 91.5674 69.8144   2
  -2   4  19 399.297 194.544   1
  -2  -4  18 23155.0 1507.20   7
   2   4 -18 21191.2 1412.00   3
   2  -4 -18 21930.4 1175.45   5
  -2   4  18 21411.0 1244.26   1
  -2   4  18 22269.2 851.095   7
  -2   4  18 20894.6 954.356   2
  -2   4  17 199.908 76.3511   7
  -2   4  17 19.5271 42.8286   2
  -2   4  17 46.8141 42.7855   1
   2  -4 -17 282.541 171.590   5
   2   4 -17 104.967 75.7097   3
  -2  -4  17 240.113 237.731   7
  -2  -4  16 11941.2 1048.74   7
  -2   4  16 11858.2 581.420   7
  -2   4  16 10824.1 660.589   2
   2  -4 -16 10271.5 810.485   5
   2   4 -16 10504.3 946.161   3
  -2   4  16 10827.5 848.622   1
  -2  -4  15-145.221 93.0411   7
   2   4 -15-8.73722 67.5426   3
   2  -4 -15-17.3490 82.1272   5
  -2   4  15 48.6823 43.1441   2
  -2   4  15-25.4768 62.1036   7
  -2   4  15 53.6206 88.8249   1
  -2   4  15 3.44003 29.1706   3
  -2   4  14 5738.56 382.297   7
  -2   4  14 4972.19 428.476   2
  -2   4  14 4970.10 541.961   1
   2  -4 -14 5287.81 580.065   5
  -2  -4  14 5060.15 661.111   7
  -2   4  14 5314.66 505.193   3
   2   4 -14 5180.63 630.789   3
  -2   4  13 31.9878 13.8054   2
   2  -4 -13 68.5702 74.0508   5
  -2   4  13 72.2314 29.3471   7
  -2   4  13-59.8310 106.334   1
  -2   4  13-28.5802 86.3951   3
   2   4 -13 30.9047 128.995   3
  -2  -4  13-209.351 141.580   7
  -2   4  12 6140.95 535.343   3
  -2   4  12 6804.13 403.787   7
   2  -4 -12 6365.80 636.890   5
  -2  -4  12 7396.89 769.385   7
   2  -4 -12 7174.12 474.104   2
  -2   4  12 6686.48 484.927   2
   2   4 -12 6521.05 681.223   3
  -2   4  12 6802.19 597.505   1
  -2   4  11 288.574 91.9761   2
   2  -4 -11 383.892 109.663   2
   2  -4 -11 492.324 202.113   5
  -2   4  11 608.386 178.975   1
  -2  -4  11 447.072 168.476   7
  -2  -4  11 860.611 307.130   2
   2   4 -11 407.632 207.661   3
  -2   4  11 592.282 161.286   3
   2  -4 -10 29011.1 1372.78   5
   2  -4 -10 30309.8 1009.80   2
  -2   4  10 29397.4 1174.86   3
  -2   4  10 30014.5 1181.10   1
   2   4 -10 30934.2 1433.80   3
  -2   4  10 30401.5 1010.03   2
  -2  -4  10 32053.3 1584.50   2
  -2  -4   9 158.932 110.766   2
  -2   4   9 160.534 83.1987   3
  -2   4   9 191.487 100.679   1
   2   4  -9 66.0263 50.4156   3
   2  -4  -9 310.057 183.551   5
   2  -4  -9 25.4381 24.2954   2
  -2   4   9 185.173 77.4059   2
  -2   4   8 7924.56 514.516   2
   2  -4  -8 7569.03 695.296   5
   2  -4  -8 7046.80 522.869   2
  -2  -4   8 7633.85 752.935   2
  -2   4   8 7328.40 459.125   6
  -2   4   8 8192.63 608.058   3
   2   4  -8 7876.08 691.654   3
  -2   4   8 7114.57 533.838   1
   2  -4  -8 7547.11 555.900   1
   2  -4  -7 540.385 189.226   5
   2  -4  -7 271.251 106.460   1
  -2   4   7 389.672 96.7655   6
  -2  -4   7 624.210 180.264   2
  -2   4   7 318.276 94.0146   1
  -2   4   7 397.980 134.578   3
   2   4  -7 167.531 91.3052   3
   2  -4  -7 379.191 112.730   2
   2  -4  -6 16585.1 813.496   1
  -2   4   6 16785.0 762.650   1
   2   4  -6 17967.5 1011.03   3
   2  -4  -6 17898.9 870.385   2
  -2   4   6 16993.7 666.384   6
  -2  -4   6 17579.0 1108.05   2
  -2   4   6 17544.1 898.774   3
  -2   4   6 16650.2 700.809   7
   2  -4  -6 16747.7 1028.08   5
   2  -4  -5-20.7676 46.3654   2
   2  -4  -5 128.672 127.546   5
  -2  -4   5 104.630 120.601   2
  -2   4   5 29.0127 33.0599   7
   2   4  -5 171.993 91.2898   3
  -2   4   5 83.1025 54.2390   6
   2  -4  -5 54.5867 38.2051   1
  -2   4   5 46.4290 37.9772   1
  -2   4   5 30.9795 68.5432   3
   2  -4  -4 2453.55 313.785   1
  -2  -4   4 2657.96 419.709   5
  -2   4   4 1964.67 243.988   7
  -2  -4   4 2089.08 367.808   2
  -2   4   4 2481.83 249.722   6
   2  -4  -4 2044.38 317.576   2
  -2   4   4 2369.98 335.214   3
   2  -4  -4 2095.86 371.134   5
   2   4  -4 1882.18 312.264   3
  -2   4   3 408.735 103.299   7
   2   4  -3 374.759 127.358   3
  -2  -4   3 517.101 232.815   5
  -2  -4   3 237.573 105.413   2
   2  -4  -3 576.513 244.535   5
   2  -4  -3 398.751 132.454   2
  -2   4   3 166.891 55.3775   3
   2  -4  -3 306.321 109.215   1
  -2  -4   3 309.759 73.1721   1
   2  -4  -2 45631.1 1712.30   5
  -2  -4   2 46465.8 1743.83   2
  -2  -4   2 54807.6 1884.68   5
  -2   4   2 47025.4 1514.79   3
  -2  -4   2 43736.7 954.519   6
   2  -4  -2 48644.6 1299.59   1
   2   4  -2 48222.1 1558.29   7
   2  -4  -2 45530.8 1561.24   2
   2   4  -2 45578.7 1475.17   3
  -2   4   2 45214.7 1233.90   7
  -2  -4   2 45917.8 961.232   1
   2   4  -1 31.3451 74.6124   7
   2  -4  -1-11.9818 45.0906   6
  -2  -4   1-4.07911 10.1631   6
   2  -4  -1-56.8845 52.8724   2
  -2  -4   1-16.3716 36.8164   1
  -2  -4   1 205.934 175.868   5
   2   4  -1 113.947 103.321   3
  -2   4   1 59.7062 47.9169   7
   2  -4  -1-56.8508 44.3253   1
  -2  -4   1 71.9128 45.1291   2
   2  -4  -1 356.799 264.877   5
  -2   4   1-86.3816 99.1450   3
  -2  -4   0 1347.14 277.224   5
  -2   4   0 1386.37 269.773   3
  -2   4   0 1542.58 239.751   7
   2  -4   0 2061.40 337.720   2
  -2  -4   0 1385.84 143.636   6
   2  -4   0 1602.08 219.427   6
   2  -4   0 1472.04 219.884   1
   2   4   0 1570.69 269.182   7
   2   4   0 1535.76 258.900   3
  -2  -4   0 1276.25 290.560   2
  -2  -4   0 1395.16 165.355   1
  -2  -4   0 49.3797 69.3109   3
   2  -4   0 1363.44 301.861   5
   2  -4   1 3762.55 463.308   2
  -2   4  -1 3287.71 425.518   3
  -2  -4  -1 3544.63 399.434   3
  -2   4  -1 3209.90 359.688   7
  -2  -4  -1 3044.54 445.520   2
  -2  -4  -1 3432.30 257.033   1
  -2  -4  -1 3717.83 495.942   5
   2  -4   1 3674.55 492.524   5
   2   4   1 4092.74 461.564   2
   2   4   1 3346.57 378.972   3
   2  -4   1 3476.68 344.844   6
   2  -4   1 3860.90 348.673   1
  -2  -4  -2 2341.02 318.402   3
  -2  -4  -2 2103.93 203.198   1
  -2   4  -2 1949.84 324.060   3
   2   4   2 2023.00 286.649   3
   2  -4   2 2432.36 280.128   1
   2  -4   2 2693.49 400.608   2
   2  -4   2 2524.38 302.919   6
   2  -4   2 2411.14 393.930   5
  -2   4  -2 2252.52 302.542   7
  -2  -4  -2 2139.53 367.371   5
   2   4   2 2709.08 374.809   2
  -2  -4  -2 2146.80 358.543   2
   2  -4   3 4464.74 499.638   7
   2   4   3 5156.00 518.529   2
  -2  -4  -3 4439.88 433.635   3
  -2   4  -3 4658.47 445.090   7
   2  -4   3 5297.41 584.318   5
  -2   4  -3 4014.87 473.234   3
  -2  -4  -3 4980.83 565.315   5
   2   4   3 4115.22 408.170   3
   2   4   3 4528.48 294.638   1
  -2  -4  -3 4771.11 529.795   2
   2  -4   3 4244.53 410.891   6
   2   4   4 527.830 141.933   3
   2  -4   4 471.742 140.739   6
  -2   4  -4 414.238 169.421   3
   2  -4   4 446.312 178.095   5
  -2  -4  -4 831.916 234.046   5
   2  -4   4 531.553 177.397   7
  -2  -4  -4 568.580 175.811   2
  -2  -4  -4 699.608 170.248   3
   2   4   4 676.102 192.278   2
   2   4   4 459.160 101.093   1
  -2   4  -5-5.72844 86.0544   3
   2   4   5-5.61002 19.0630   6
   2   4   5 39.8403 52.2267   1
   2   4   5 41.9260 43.8882   2
  -2  -4  -5 135.683 71.0581   2
   2  -4   5-10.0428 96.2066   5
   2   4   5 17.4437 50.0271   3
   2  -4   6 56644.1 1903.00   7
  -2  -4  -6 52887.0 1695.38   2
   2   4   6 53850.6 1253.99   1
   2   4   6 53443.9 1691.79   2
  -2  -4  -6 52852.7 1812.54   5
   2   4   6 47753.9 748.877   6
   2   4   6 50363.8 1378.39   3
   2  -4   6 52872.7 1839.11   5
  -2   4  -6 52795.2 1792.65   3
  -2   4  -7 151.021 83.8213   3
  -2  -4  -7 607.546 232.984   5
   2   4   7 397.182 153.788   2
   2   4   7 268.882 92.7684   3
   2  -4   7 210.250 111.310   5
   2   4   7 346.141 106.204   1
   2  -4   7 570.237 207.014   7
  -2  -4  -7 412.194 140.158   2
   2   4   8 2380.31 293.291   3
   2   4   8 2203.31 284.233   1
  -2   4  -8 2152.83 376.380   3
   2  -4   8 2657.98 414.390   7
   2  -4   8 2654.08 414.368   5
  -2  -4  -8 2400.66 391.824   5
  -2  -4  -8 2386.70 353.310   2
   2   4   8 2517.32 372.157   2
   2  -4   9-19.1530 45.6347   5
   2   4   9 89.1043 69.9895   3
  -2  -4  -9 253.427 159.894   5
  -2  -4  -9 156.652 110.534   2
  -2   4  -9 141.224 106.741   3
   2   4   9 126.880 87.7895   2
   2  -4   9 304.039 141.253   7
   2   4   9 66.1443 66.7730   1
  -2   4 -10 12172.0 920.998   3
   2   4  10 10941.2 799.823   2
  -2  -4 -10 11422.5 751.863   2
  -2  -4 -10 11523.6 843.935   5
   2  -4  10 12113.4 943.516   7
   2   4  10 10918.1 618.162   3
   2  -4  10 12008.4 887.548   5
   2   4  10 10537.9 675.753   1
   2   4  11 251.780 108.728   2
   2  -4  11 511.338 215.945   7
  -2   4 -11 137.908 80.1198   3
   2   4  11 155.291 71.2681   3
  -2  -4 -11 236.579 113.741   5
   2   4  11 217.122 113.448   1
   2  -4  11 211.292 84.6316   5
  -2  -4 -11 271.285 121.253   2
   2   4  12 3346.33 405.793   1
   2   4  12 3736.63 477.362   2
   2  -4  12 3818.38 562.584   7
   2  -4  12 3853.68 506.436   5
   2   4  12 3460.96 378.855   7
  -2  -4 -12 3525.61 417.356   2
   2   4  12 3432.69 341.603   3
  -2   4 -12 3558.32 528.438   3
  -2   4 -13 389.158 215.879   3
   2   4  13 51.4875 43.0023   2
   2   4  13 225.451 144.943   1
  -2  -4 -13 252.975 122.771   2
   2   4  13 243.004 88.5087   3
   2   4  13 241.620 99.7274   7
   2  -4  14 30845.7 1637.82   7
   2   4  14 30898.2 1317.30   1
  -2   4 -14 30056.8 1560.42   3
   2   4  14 32127.1 1183.22   7
   2   4  14 31471.5 1049.88   3
   2   4  15 44.8018 36.2705   7
  -2   4 -15-101.811 124.329   3
   2   4  15 27.9623 27.3594   3
   2   4  15 22.8314 70.4231   1
   2   4  16 3590.42 353.250   3
   2  -4  16 3606.32 587.737   7
   2   4  16 3545.38 475.337   1
   2   4  16 3974.49 428.080   7
  -2   4 -16 3650.44 567.689   3
   2   4  17 343.970 114.829   3
   2  -4  17 695.962 295.206   7
  -2   4 -17 119.439 85.1087   3
   2   4  17 158.106 111.669   1
   2   4  17 271.908 135.832   7
   2   4  18 6629.26 592.073   7
   2  -4  18 6890.03 840.694   7
   2   4  18 6386.88 482.224   3
  -2   4 -18 5878.09 747.721   3
   2   4  18 5887.38 651.724   1
   2  -4  19 443.752 266.474   7
   2   4  19 48.6697 68.3653   7
   2   4  19 69.8495 81.8969   1
   2   4  19 136.365 95.0142   3
  -2   4 -19 146.368 137.857   3
   2   4  20 4966.33 633.430   1
  -2   4 -20 4187.66 669.338   3
   2   4  20 5338.04 446.497   3
   2   4  20 5284.89 545.986   7
   2  -4  20 5081.84 751.672   7
   2   4  21-31.0451 44.2657   1
   2   4  21-70.6419 49.1345   3
   2  -4  21 59.5073 94.6621   7
  -2   4 -21-108.220 80.1360   3
   2   4  21 161.324 98.0443   7
  -2   4 -22 19824.5 1510.87   3
   2   4  22 20832.7 1140.68   7
   2  -4  22 21485.3 1624.97   7
   2   4  22 20631.5 1356.89   1
   2   4  23 200.566 151.221   1
   2   4  23 166.453 149.225   7
   2  -4  23 684.061 323.277   7
  -2   4 -23 473.548 289.402   3
   2   4  24 8619.78 766.596   7
   2   4  24 10574.8 1018.82   1
   2  -4  24 9818.08 1134.90   7
   2  -4  25 122.044 104.205   7
   2   4  25-28.9079 39.8789   1
   2   4  25 50.7246 106.580   7
   2   4  26 3497.57 612.698   1
   2  -4  26 3231.13 672.241   7
   2   4  26 2993.40 465.188   7
   2  -4  27 55.2594 153.013   7
   2   4  27 124.637 83.6700   1
   2  -4  28 7761.80 1096.56   7
   2   4  28 7023.57 911.716   1
   2  -4  29 139.757 173.061   7
   2   4  29 62.2094 100.714   1
   2  -4  30 4033.27 804.438   7
   2   4  30 4168.38 729.147   1
   2  -4  31 203.937 230.848   7
   2   4  31 294.268 237.426   1
   2  -4  32 8156.35 1184.49   7
   2   4  32 7017.12 1005.08   1
   2   4  33 57.0181 99.0212   1
  -2   6  32 6033.10 946.188   1
  -2   6  31 49.8730 89.9642   1
  -2   6  30-1.95205 161.620   1
  -2  -6  30-41.3427 106.269   2
  -2  -6  29-167.250 200.870   2
  -2   6  29 103.565 146.776   1
  -2   6  28 11772.9 1244.12   1
  -2  -6  28 11680.8 1503.18   2
  -2  -6  27 184.757 176.819   2
  -2   6  27-101.947 155.609   1
  -2   6  26 3889.35 692.016   1
  -2  -6  26 4377.67 885.757   2
  -2   6  25 480.934 240.702   1
  -2  -6  25 427.434 221.401   2
   2   6 -24 15717.1 1539.39   3
  -2   6  24 14830.6 1282.73   1
  -2  -6  24 14921.2 1600.65   2
  -2   6  23-100.187 149.181   1
   2   6 -23 49.6065 105.700   3
  -2  -6  23-7.05256 70.6258   2
   2   6 -22 1146.51 375.859   3
  -2   6  22 923.949 296.955   1
  -2  -6  22 1222.30 438.211   2
  -2   6  21-28.4890 70.7592   1
  -2   6  21 270.802 127.623   3
  -2  -6  21 174.736 136.879   2
   2  -6 -21 194.656 143.560   5
   2   6 -21 149.874 56.6012   3
  -2  -6  20 11014.2 1317.76   2
  -2   6  20 9681.70 937.897   1
   2   6 -20 9174.48 1096.53   3
   2  -6 -20 9441.67 978.891   5
  -2   6  20 9609.78 829.531   3
  -2   6  19 336.132 214.000   1
   2   6 -19 100.703 75.8456   3
  -2  -6  19 200.842 189.932   2
  -2   6  19 129.582 56.6737   3
   2  -6 -19 405.584 211.318   5
   2   6 -18 15074.6 1355.55   3
  -2  -6  18 13451.8 1414.25   2
   2  -6 -18 14415.9 1225.73   5
  -2   6  18 14692.1 1020.15   3
  -2   6  18 13982.0 1075.61   1
   2  -6 -17-129.399 132.337   5
  -2   6  17 135.705 130.634   3
  -2  -6  17 405.635 245.961   2
  -2   6  17 121.856 104.617   1
   2   6 -17 84.2340 146.222   3
   2   6 -16 9091.78 1022.05   3
  -2  -6  16 9400.00 1146.91   2
  -2   6  16 9633.34 669.198   6
  -2   6  16 9882.51 560.438   7
   2  -6 -16 8299.34 925.718   5
  -2   6  16 10476.6 852.891   3
  -2   6  16 8814.38 812.364   1
   2  -6 -15-38.0996 26.2611   2
  -2   6  15-10.4948 50.0300   1
  -2   6  15-23.0246 37.7266   6
  -2   6  15-13.2716 46.9605   3
   2  -6 -15 19.6841 57.3699   5
  -2   6  15-69.7841 69.0122   7
  -2  -6  15 142.420 178.204   2
   2   6 -15-136.436 187.797   3
  -2   6  14 3949.70 515.405   1
   2   6 -14 3873.20 652.698   3
  -2   6  14 4152.11 538.343   3
  -2  -6  14 4457.45 768.380   2
  -2   6  14 4551.58 387.374   7
   2  -6 -14 4226.87 448.885   2
  -2   6  14 3913.89 398.402   6
   2  -6 -14 4207.74 655.542   5
  -2  -6  13-37.3865 83.3395   2
  -2   6  13-26.1507 60.9037   6
   2  -6 -13-52.0403 25.5583   2
   2   6 -13-157.411 183.530   3
  -2   6  13-12.2320 34.4218   1
   2  -6 -13-8.14941 51.2834   5
  -2   6  13 97.6818 90.2855   3
  -2   6  12 5744.31 459.122   6
   2  -6 -12 6526.94 590.280   2
   2   6 -12 6070.10 765.412   3
  -2   6  12 5401.09 612.289   3
   2  -6 -12 5405.13 749.340   5
  -2  -6  12 5179.22 811.714   2
  -2   6  12 5932.31 601.039   1
   2  -6 -11 270.311 165.721   5
  -2   6  11 263.767 122.205   1
   2   6 -11 416.480 200.363   3
  -2   6  11 232.565 121.273   3
   2  -6 -11 416.300 161.949   2
  -2   6  11 357.580 104.591   6
  -2  -6  11 221.156 199.900   2
   2  -6 -10 18582.8 1378.44   5
   2  -6 -10 22677.0 1180.58   2
  -2   6  10 19344.7 1172.57   3
  -2   6  10 20545.1 821.058   6
  -2   6  10 19977.8 1038.27   1
  -2  -6  10 19493.6 1558.90   2
   2   6 -10 18882.1 1316.80   3
  -2   6   9 168.808 96.5266   1
  -2   6   9 86.5747 45.0580   6
   2  -6  -9 86.5077 72.4861   2
  -2   6   9-12.8050 27.5130   7
   2   6  -9-26.9491 62.4974   3
  -2  -6   9 211.980 144.012   2
  -2   6   9 38.4889 42.6791   3
   2  -6  -9 166.219 171.253   5
   2  -6  -8 3497.88 596.697   5
   2  -6  -8 4257.92 539.899   2
  -2  -6   8 3678.05 646.021   2
   2   6  -8 3720.09 578.908   3
  -2   6   8 4357.31 443.852   7
  -2   6   8 4276.53 555.393   3
  -2  -6   7 174.777 81.9941   1
  -2   6   7 120.095 73.3295   7
   2  -6  -7-54.0241 46.1148   2
   2   6  -7 200.633 142.613   3
  -2   6   7 148.712 93.3140   3
   2  -6  -7 206.019 190.737   5
   2   6  -6 12158.2 1005.62   3
  -2   6   6 11709.7 924.760   3
  -2  -6   6 10967.6 1117.59   2
  -2  -6   6 10887.8 631.836   1
   2  -6  -6 12157.1 967.396   2
   2  -6  -6 11753.0 1097.26   5
  -2  -6   5 24.0205 18.8798   6
  -2   6   5-111.717 121.562   3
  -2  -6   5 3.69661 88.6774   2
   2  -6  -5 156.448 144.084   5
   2   6  -5 132.320 86.6660   3
  -2  -6   5 23.1814 30.7345   1
   2  -6  -5-59.2276 113.908   2
  -2  -6   4 1930.53 263.792   1
   2   6  -4 2053.77 412.490   3
  -2  -6   4 2039.30 481.402   2
  -2   6   4 1752.25 372.445   3
   2  -6  -4 2271.64 453.337   2
  -2  -6   4 1733.07 257.143   6
   2  -6  -4 2436.78 499.711   5
  -2  -6   3 273.210 101.895   1
   2  -6  -3 869.427 333.759   5
  -2  -6   3 251.345 86.8072   6
   2   6  -3 337.869 170.571   3
   2  -6  -3 399.760 194.014   2
  -2   6   3 330.828 159.313   3
  -2  -6   3 343.270 209.056   2
  -2   6   2 39080.6 1757.34   3
  -2  -6   2 40030.5 1069.61   6
   2   6  -2 39712.1 1725.71   3
  -2  -6   2 39020.1 2049.47   2
   2  -6  -2 41015.8 2042.06   5
   2  -6  -2 38069.9 1893.28   2
  -2  -6   2 42154.9 1215.67   1
   2  -6  -1 180.081 132.673   2
   2  -6  -1 327.679 237.120   5
  -2  -6   1 56.5404 33.0800   1
   2   6  -1 202.528 149.173   3
  -2   6   1-13.6828 144.006   3
  -2  -6   1 45.1642 128.232   2
   2  -6   0 1700.37 418.131   5
  -2  -6   0 1136.97 323.410   2
  -2   6   0 1770.98 387.634   3
  -2  -6   0 1632.16 401.121   5
  -2  -6   0 1885.06 240.478   1
   2   6   0 1813.73 366.596   3
   2  -6   0 1174.78 338.409   2
   2   6   1 549.336 215.963   3
   2  -6   1-64.2650 53.2649   6
  -2  -6  -1 674.368 136.798   1
   2  -6   1 367.600 175.464   2
   2  -6   1 870.573 317.386   5
  -2  -6  -1 577.926 255.032   5
  -2   6  -1 362.031 151.947   3
  -2  -6  -1 469.243 204.593   2
  -2  -6  -2 4359.38 347.852   1
   2   6   2 5113.15 593.075   3
   2  -6   2 4527.67 684.770   2
  -2  -6  -2 4698.83 681.153   2
  -2   6  -2 4566.38 617.330   3
   2  -6   2 4548.27 695.080   5
  -2  -6  -2 4571.38 660.937   5
  -2  -6  -3 767.933 277.028   2
   2  -6   3 1127.17 343.357   5
  -2   6  -3 438.794 223.128   3
   2  -6   3 619.040 260.886   2
   2   6   3 880.383 244.395   3
  -2  -6  -3 670.567 243.061   5
  -2  -6  -4 336.434 148.136   2
   2  -6   4 28.1468 130.129   5
  -2   6  -4 113.001 101.665   3
   2  -6   4 65.2073 121.031   2
  -2  -6  -4 300.299 169.966   5
   2   6   4 307.742 152.209   3
  -2   6  -5 152.625 157.297   3
  -2  -6  -5 69.9963 145.558   5
   2   6   5-116.468 106.346   3
   2  -6   5 289.152 202.936   5
  -2  -6  -5 129.220 141.860   2
   2  -6   5-9.83241 64.2640   2
   2  -6   6 31574.6 1883.76   2
   2  -6   6 30894.3 1782.84   5
  -2  -6  -6 30551.0 1632.25   2
  -2  -6  -6 29562.7 1730.75   5
  -2   6  -6 30334.9 1653.65   3
   2   6   6 30031.5 1388.18   3
  -2  -6  -7-14.9736 87.7739   5
  -2  -6  -7 457.269 212.659   2
   2  -6   7 474.712 257.018   2
   2   6   7 279.584 159.595   3
  -2   6  -7 145.168 152.147   3
   2  -6   7 32.2896 145.497   5
  -2   6  -8 601.344 233.804   3
   2   6   8 1376.23 232.631   1
   2  -6   8 1630.73 402.247   5
   2  -6   8 1035.10 344.506   2
  -2  -6  -8 1438.55 351.693   2
   2   6   8 1418.63 305.590   3
   2   6   9 72.5694 57.1025   1
   2   6   9 13.9209 39.0679   3
   2  -6   9 79.4010 92.5013   5
  -2   6  -9-145.427 131.485   3
  -2  -6  -9 54.8646 59.1173   2
  -2   6 -10 7163.26 834.161   3
   2  -6  10 9638.71 1091.46   2
  -2  -6 -10 8036.42 779.634   2
   2  -6  10 8973.12 977.880   5
   2   6  10 8712.60 726.206   3
   2   6  10 8530.13 628.165   1
   2  -6  11 71.9961 63.2471   5
  -2   6 -11 112.362 127.032   3
   2   6  11 139.970 85.8741   3
   2  -6  11 134.147 169.742   2
  -2  -6 -11 113.408 100.107   2
   2   6  11 261.264 138.886   1
   2  -6  11 186.579 143.415   7
  -2   6 -12 2663.71 541.689   3
  -2  -6 -12 2275.72 404.412   2
   2  -6  12 2670.28 573.175   2
   2  -6  12 2277.97 501.129   7
   2   6  12 2488.22 367.106   1
   2   6  12 2183.85 348.490   3
   2   6  13 56.2075 90.2115   3
   2   6  13 163.043 101.996   1
  -2   6 -13-122.502 182.728   3
   2  -6  13 28.3450 57.5395   7
  -2  -6 -13 7.46218 43.0986   2
   2   6  14 25375.3 1149.25   7
   2   6  14 22706.2 1190.34   1
  -2  -6 -14 25178.4 1301.59   2
   2   6  14 23231.6 1149.78   3
  -2   6 -14 23966.1 1628.32   3
   2  -6  14 23912.8 1745.24   7
   2   6  15 100.590 81.1395   7
   2   6  15-90.8708 108.189   1
  -2  -6 -15 3.40679 49.4055   2
   2   6  15 159.310 102.181   3
   2  -6  15 22.6276 92.9504   7
  -2   6 -15 12.3675 51.9771   3
   2   6  16 2626.62 375.079   3
   2   6  16 2764.16 444.091   1
   2   6  16 2757.00 386.741   7
  -2   6 -16 2103.41 490.314   3
   2  -6  16 2668.88 593.621   7
   2   6  17-93.7373 72.5585   3
   2  -6  17 106.209 121.173   7
   2   6  17 72.7954 108.769   1
   2   6  17 40.1235 43.3954   7
  -2   6 -17 47.6585 112.490   3
   2   6  18 4975.59 653.077   1
  -2   6 -18 4104.45 704.030   3
   2  -6  18 3872.86 733.462   7
   2   6  18 4743.34 510.516   7
  -2   6 -19-91.8629 565.989   3
   2   6  19 96.0468 122.425   1
   2  -6  19 50.1431 154.095   7
   2  -6  20 4720.72 850.226   7
  -2   6 -20 5123.64 834.783   3
   2   6  20 4967.54 674.041   1
   2   6  21 102.088 111.857   1
   2  -6  21 260.556 237.793   7
  -2   6 -21-126.217 97.6595   3
  -2   6 -22 16409.0 1573.90   3
   2  -6  22 16556.5 1637.73   7
   2   6  22 16151.3 1276.00   1
   2   6  23-40.0260 152.587   1
  -2   6 -23-1.41070 101.182   3
   2  -6  24 8931.04 1253.60   7
   2   6  24 7514.41 909.270   1
  -2   6 -24 8208.97 1130.85   3
  -2   6 -25 137.908 97.1651   3
   2  -6  25 152.040 286.236   7
   2   6  25 167.446 164.580   1
   2  -6  26 5058.76 959.169   7
   2   6  26 4044.05 691.825   1
  -2   6 -26 3689.55 782.110   3
   2   6  27 9.37965 76.5676   1
   2  -6  27 33.4249 130.147   7
   2  -6  28 5461.22 1039.34   7
   2   6  28 3954.21 716.854   1
   2   8 -22 746.434 370.301   3
  -2  -8  22 864.273 457.220   2
  -2  -8  21-62.8768 126.696   2
   2   8 -21 169.159 166.639   3
   2   8 -20 10570.9 1329.00   3
  -2  -8  20 9342.64 1433.26   2
   2   8 -19-21.4176 141.688   3
  -2  -8  19-16.8951 146.033   2
  -2  -8  18 8471.30 1328.68   2
   2   8 -18 8169.17 1155.34   3
   2   8 -17-247.653 233.704   3
  -2  -8  17-307.218 263.897   2
  -2   8  16 5271.76 717.767   3
  -2  -8  16 5882.66 1085.57   2
   2  -8 -16 4376.58 820.207   5
   2   8 -16 5215.23 887.840   3
   2   8 -15-118.944 126.238   3
   2  -8 -15 199.169 225.040   5
  -2  -8  15 261.170 249.831   2
  -2   8  15 224.684 177.262   3
  -2  -8  14 3676.46 850.956   2
   2  -8 -14 4502.89 820.520   5
  -2   8  14 3825.39 610.761   3
   2   8 -14 3609.65 711.710   3
  -2  -8  13-183.250 202.353   2
  -2   8  13-176.309 167.427   3
   2   8 -13-91.0586 136.390   3
   2  -8 -12 4203.94 813.196   5
  -2   8  12 4232.74 658.024   3
   2   8 -12 4519.80 778.344   3
  -2  -8  12 2965.44 739.802   2
  -2  -8  11 590.065 366.639   2
  -2   8  11 321.022 197.371   3
   2  -8 -11 651.201 308.025   5
   2   8 -11 453.546 267.956   3
   2   8 -10 17295.2 1502.56   3
   2  -8 -10 16835.8 1615.42   5
  -2   8  10 16662.0 1320.50   3
  -2  -8  10 17973.8 1820.27   2
  -2  -8   9-109.467 158.636   2
   2   8  -9 47.3869 64.1763   3
   2  -8  -9 293.580 216.730   5
   2  -8  -9 217.436 146.614   2
  -2   8   9 63.2769 110.954   3
   2  -8  -8 3368.42 714.673   5
  -2  -8   8 3955.49 841.447   2
  -2   8   8 3764.24 633.602   3
   2  -8  -8 4289.95 659.352   2
   2   8  -8 4865.89 767.782   3
  -2  -8   7-29.6171 159.859   2
   2  -8  -7-96.5351 118.376   2
  -2   8   7-66.8107 139.477   3
   2  -8  -7 107.018 183.668   5
   2   8  -7-59.3438 103.457   3
  -2  -8   6 7292.17 1133.21   2
   2   8  -6 8313.83 993.520   3
   2  -8  -6 9416.20 1024.96   2
  -2   8   6 7919.79 911.441   3
   2  -8  -6 8661.05 1140.18   5
   2  -8  -5 1.10315 100.921   2
  -2  -8   5-154.749 218.740   2
   2   8  -5 238.753 161.191   3
   2  -8  -5-61.3840 107.840   5
  -2   8   5 90.8014 129.512   3
   2   8  -4 1864.55 461.637   3
   2  -8  -4 1243.64 476.015   5
  -2  -8   4 1480.89 476.366   2
  -2   8   4 1587.60 410.458   3
   2  -8  -4 1464.24 424.235   2
   2   8  -3 250.569 183.811   3
   2  -8  -3 116.857 182.633   5
   2  -8  -3 313.689 190.876   2
  -2   8   3 240.137 208.910   3
  -2  -8   3 162.296 89.9741   2
   2  -8  -2 15119.6 1464.72   2
   2   8  -2 14691.5 1268.61   3
   2  -8  -2 16551.7 1582.48   5
  -2   8   2 13622.7 1223.69   3
  -2  -8   2 13354.4 1471.63   2
  -2  -8   1-139.881 145.792   2
   2  -8  -1 128.629 203.420   5
  -2   8   1 123.020 172.784   3
   2  -8  -1-141.997 148.193   2
   2   8  -1 6.42657 93.6563   3
   2  -8   0 104.297 92.3099   2
  -2  -8   0-66.9446 107.860   2
  -2   8   0 14.3404 86.1097   3
   2  -8   0-53.4233 71.5647   5
   2   8   0-33.9627 127.882   3
   2  -8   1-319.620 224.413   2
   2  -8   1-75.9346 200.999   5
  -2  -8  -1 35.1816 49.0487   2
  -2   8  -1-117.069 195.628   3
   2   8   1-151.336 182.792   3
  -2   8  -2 4157.72 715.212   3
   2  -8   2 3149.65 702.459   2
   2  -8   2 4770.22 841.357   5
  -2  -8  -2 3390.91 693.729   2
   2   8   2 3681.60 602.348   3
   2  -8   3-266.841 263.578   2
   2   8   3-122.893 58.4714   3
   2  -8   3-195.483 204.584   5
  -2   8  -3 41.9307 104.035   3
  -2  -8  -4-18.1435 90.1687   2
   2  -8   4 10.8917 71.6098   2
   2   8   4 331.277 209.434   3
   2  -8   4 93.5986 117.949   5
  -2   8  -4-174.496 175.609   3
  -2  -8  -5-54.2737 136.209   2
   2  -8   5 479.381 359.619   5
   2   8   5 91.2350 109.592   3
   2  -8   5-47.6894 239.759   2
  -2   8  -5-57.3089 83.7049   3
  -2   8  -6 30833.3 2010.97   3
  -2  -8  -6 33186.9 2043.52   2
   2   8   6 30481.3 1689.97   3
   2  -8   6 27728.4 2193.03   2
  -2   8  -7-101.228 161.316   3
   2  -8   7 307.112 248.869   2
   2   8   7 96.8259 59.6122   3
  -2  -8  -7-61.8822 119.110   2
  -2   8  -8 392.570 267.641   3
   2   8   8 382.879 187.381   3
   2  -8   8 176.174 216.141   2
  -2  -8  -8 228.642 197.084   2
   2   8   9 81.2414 164.283   3
   2  -8   9-341.300 260.974   2
  -2  -8  -9-280.699 176.476   2
  -2   8  -9-204.223 91.8503   3
   2  -8  10 7041.53 1127.60   2
   2   8  10 7346.33 809.244   3
  -2  -8 -10 7969.67 905.213   2
  -2   8 -10 6152.64 917.786   3
  -2   8 -11 358.988 247.957   3
  -2  -8 -11 46.2911 45.7359   2
   2  -8  11 194.643 253.117   2
   2   8  11 146.394 115.269   3
  -2   8 -12 2079.28 546.471   3
   2   8  12 2115.23 432.201   3
   2  -8  12 1853.11 579.483   2
  -2   8 -13 209.335 259.414   3
   2  -8  13 413.741 311.496   2
  -2   8 -14 13263.2 1416.86   3
   2  -8  14 11639.9 1511.70   2
  -2   8 -15 231.033 266.002   3
   2  -8  15 104.528 135.175   2
   2  -8  16 1684.51 582.536   2
  -2   8 -16 1530.57 512.262   3
   2  -8  17 323.415 268.011   2
  -2   8 -17 398.321 267.154   3
  -2   8 -18 3090.92 740.121   3
   2  -8  18 3495.53 852.841   2
  -2   8 -19-65.6168 137.236   3
   2  -8  19-207.012 131.739   2
  -2   8 -20 2599.29 670.339   3
   2  -8  20 2398.92 714.590   2
  -2   8 -21 314.028 213.759   3
   2  -8  21 419.420 339.702   2
  -2 -10  11 6.11797 105.977   2
  -2  10  10 5798.01 884.534   3
  -2 -10  10 6229.19 1266.94   2
   2  10 -10 4939.71 904.204   3
  -2  10   9-152.761 147.988   3
   2  10  -9-161.552 279.271   3
  -2 -10   9-27.3684 158.164   2
   2  10  -8 858.580 378.506   3
  -2 -10   8 291.462 290.471   2
  -2  10   8 1081.66 381.070   3
   2  10  -7 15.0876 70.7567   3
  -2  10   7 184.572 171.246   3
  -2 -10   7-205.025 230.154   2
   2  10  -6 4589.24 851.957   3
  -2 -10   6 3933.84 972.619   2
  -2  10   6 4815.26 831.758   3
  -2 -10   5 56.8251 285.643   2
   2  10  -5-187.718 251.732   3
  -2  10   5 131.867 201.804   3
  -2  10   4 1487.77 492.096   3
  -2 -10   4 1333.10 599.401   2
   2  10  -4 996.191 378.444   3
   2  10  -3-99.2218 151.907   3
  -2  10   3 53.7821 147.493   3
  -2 -10   3-95.9994 150.724   2
  -2 -10   2 15224.7 1813.22   2
  -2  10   2 18223.9 1665.30   3
   2  10  -2 16765.3 1589.12   3
  -2  10   1-21.9764 71.3369   3
   2  10  -1-166.748 244.999   3
  -2 -10   1-29.4141 86.5679   2
   2  10   0 52.4813 94.6900   3
  -2  10   0 384.316 280.422   3
   2 -10   0 224.908 276.661   2
  -2 -10   0 538.249 329.166   2
  -2  10  -1 38.7077 101.178   3
   2 -10   1-380.835 278.388   2
  -2 -10  -1-257.211 224.817   2
   2  10   1-105.131 63.1609   3
   2 -10   2 3767.39 889.401   2
  -2  10  -2 4533.00 838.577   3
   2  10   2 4009.51 732.651   3
   2  10   3 64.4065 116.675   3
  -2  10  -3 388.213 273.270   3
   2 -10   4 359.577 337.539   2
  -2  10  -4 357.133 271.506   3
   2  10   4 489.643 285.702   3
   2 -10   5 130.534 154.811   2
   2  10   5-183.089 156.322   3
  -2  10  -5 57.7007 167.066   3
  -2  10  -6 9432.75 1261.12   3
   2 -10   6 8933.68 1460.12   2
  -2  10  -7-152.251 294.276   3
   2 -10   7-240.786 244.804   2
   2 -10   8 1367.20 618.071   2
   2 -10   9 308.241 273.795   2
   2 -10  10 2676.16 825.390   2
  -3  -1  38-4.29602 43.0463   7
  -3  -1  37 8083.72 1101.01   7
  -3  -1  36 254.438 202.829   7
  -3   1  36 95.3478 236.330   1
  -3   1  35 1969.83 526.937   1
  -3  -1  35 2239.01 552.057   7
  -3   1  34 126.537 100.567   7
  -3  -1  34 258.484 196.228   7
  -3   1  34 121.495 118.736   1
  -3  -1  33 8768.92 1056.95   7
  -3   1  33 8471.99 928.601   7
  -3   1  33 9834.08 1138.64   1
  -3  -1  32 278.987 180.007   7
  -3   1  32-34.9361 72.7546   1
  -3   1  32 148.879 124.772   7
  -3   1  31 1714.52 453.863   1
  -3   1  31 1572.98 383.324   7
  -3  -1  31 1679.67 441.456   7
  -3   1  30 7.39639 105.598   1
  -3   1  30-21.2621 62.0192   7
  -3   1  29 13777.1 1073.94   7
  -3   1  29 13152.8 1195.48   1
  -3  -1  29 14593.0 1237.38   7
  -3   1  28-15.1552 66.0567   7
  -3  -1  28-56.8320 134.457   7
  -3   1  27 261.914 120.928   7
  -3  -1  27 223.682 122.235   7
  -3   1  26-128.288 103.096   7
  -3  -1  26 6.29759 61.7624   7
  -3   1  25 13957.8 966.892   7
  -3  -1  25 12445.6 1033.74   7
  -3  -1  24 179.488 157.173   7
   3   1 -24 66.5034 33.8625   4
  -3   1  24 184.777 111.627   7
  -3   1  23 17434.1 1017.13   7
   3   1 -23 14874.6 532.632   5
  -3  -1  23 16195.6 1124.45   7
   3   1 -22 24.2860 20.9957   5
   3  -1 -22 21.0774 14.5063   5
  -3   1  22 116.597 134.064   7
   3   1 -21 12480.0 557.071   5
  -3  -1  21 14746.7 1006.33   7
   3  -1 -21 12847.2 456.381   5
  -3   1  21 14526.1 863.141   7
  -3   1  20 83.3803 51.2724   7
   3   1 -20 57.7108 45.3460   5
  -3  -1  20 75.0658 92.8622   7
   3   1 -19 1988.27 231.392   5
  -3  -1  19 2461.47 384.384   7
  -3   1  19 1967.83 295.760   7
  -3  -1  18 96.2256 122.375   7
  -3   1  18 98.3525 84.4928   7
   3  -1 -18-28.5544 60.9801   7
   3   1 -18 2.97062 21.7201   5
   3   1 -17 17129.7 691.859   5
  -3   1  17 17964.1 827.939   7
   3  -1 -17 18033.8 874.198   7
  -3  -1  17 18110.0 992.014   7
  -3   1  16 19.5770 80.5380   7
   3   1 -16-13.9299 40.3183   5
   3  -1 -16-16.9676 26.9087   7
  -3   1  15 16046.5 711.332   7
   3  -1 -15 15934.4 741.918   7
  -3  -1  15 15897.5 871.640   7
  -3  -1  14 240.647 112.443   3
  -3   1  14 234.018 108.057   7
   3  -1 -14 9.13644 49.3387   7
  -3  -1  14 98.7574 138.327   7
   3   1 -14 64.5943 54.8368   7
   3   1 -13 36093.5 1266.50   7
  -3  -1  13 36192.3 1278.44   3
  -3  -1  13 34802.6 1212.10   7
   3  -1 -13 33435.9 930.484   4
   3  -1 -13 36689.6 1008.20   7
  -3   1  13 34778.0 945.255   7
  -3   1  12 188.148 82.4055   7
   3  -1 -12 92.0511 69.1275   4
  -3  -1  12-16.3883 71.9090   7
   3  -1 -12 43.9489 40.2642   7
  -3  -1  12-53.1275 52.2298   3
  -3   1  11 12160.4 654.563   1
  -3   1  11 11733.7 478.001   7
  -3  -1  11 11857.3 658.374   7
   3  -1 -11 12412.1 507.207   7
  -3  -1  11 12131.5 688.581   3
   3  -1 -11 11591.2 542.653   4
  -3   1  10 10.5039 57.0846   1
   3  -1 -10 31.1337 37.1319   7
  -3   1  10 71.7611 43.2643   7
   3  -1 -10 65.8743 64.9741   4
  -3  -1  10 81.2682 71.2931   7
  -3  -1   9 16924.0 722.604   7
  -3   1   9 18203.4 739.035   1
   3  -1  -9 17390.9 502.132   7
  -3   1   9 16976.3 484.811   7
   3  -1  -9 17486.6 655.816   4
  -3   1   8-9.44016 50.9724   1
  -3   1   8 82.1396 37.1095   7
   3  -1  -8 207.304 55.3060   7
   3  -1  -8 343.684 106.824   4
  -3  -1   8 139.871 77.6747   7
   3  -1  -7 69558.5 1274.79   4
   3  -1  -7 67932.6 745.655   7
  -3   1   7 67668.4 735.560   7
  -3   1   7 69561.0 1317.62   1
  -3  -1   7 69429.0 1366.95   7
  -3  -1   6 36.2609 43.1537   7
   3  -1  -6 402.681 119.248   4
  -3   1   6 101.120 43.1229   4
   3   1  -6 50.2768 28.6327   3
  -3   1   6 217.358 107.959   1
  -3  -1   6 153.492 67.3162   2
  -3  -1   5 5576.41 363.252   2
  -3   1   5 4902.97 321.961   1
   3  -1  -5 5075.41 334.161   4
   3   1  -5 4450.01 331.826   3
  -3  -1   4 268.495 81.1631   2
   3   1  -4 158.944 56.6293   3
  -3   1   4 106.234 43.9817   1
   3  -1  -4 171.126 58.6454   4
   3   1  -3 18005.9 557.800   3
   3  -1  -3 18798.5 630.896   4
  -3   1   3 18635.3 565.416   1
  -3  -1   3 19286.9 663.496   2
  -3   1   2 199.002 49.1868   6
  -3   1   2 132.695 27.1058   7
  -3  -1   2 134.359 56.8331   2
   3  -1  -2 152.867 61.0979   4
   3   1  -2 104.187 39.3681   3
  -3   1   2 149.112 52.0961   1
  -3   1   1 480.862 85.0706   3
  -3  -1   1 509.222 104.455   2
   3  -1  -1 494.594 102.124   4
   3   1  -1 477.988 78.8971   3
  -3   1   1 500.916 91.6752   6
  -3   1   1 501.533 66.2215   7
  -3  -1   0 14.8447 30.7341   2
   3   1   0 25.2784 15.9745   3
  -3   1   0-36.8194 39.6568   6
   3  -1   0 25.5423 22.5907   4
  -3   1   0 12.4491 21.6714   3
   3  -1   1 87759.6 1146.90   7
   3   1   1 89211.0 787.104   3
  -3  -1  -1 96997.5 1474.06   2
  -3   1  -1 88499.5 1248.11   3
  -3   1  -2 165.652 52.9211   3
  -3  -1  -2 253.932 77.6896   2
   3  -1   3 199.123 68.4084   7
  -3   1  -3 183.958 68.3824   3
  -3  -1  -3 255.109 86.0851   2
  -3   1  -4 430.094 90.8997   3
  -3   1  -4 289.022 82.7999   4
   3  -1   4 307.468 81.7990   3
   3  -1   4 400.322 101.788   7
  -3  -1  -4 374.723 96.5954   2
  -3   1  -5 15257.5 594.076   3
   3   1   5 14757.0 483.894   5
   3  -1   5 14991.3 584.399   3
  -3  -1  -5 14827.9 619.054   2
   3   1   5 16190.9 672.480   2
   3  -1   5 14944.3 641.154   7
  -3   1  -5 14090.6 520.341   4
   3   1   5 14693.4 573.203   7
   3  -1   6 31.5948 32.2259   3
  -3   1  -6 12.2413 29.5160   4
   3   1   6 21.6098 39.5230   2
   3  -1   6-36.7662 34.1368   7
  -3   1  -6-9.76853 37.5814   3
   3   1   6-5.44477 28.8531   5
   3   1   6 61.5408 51.6321   7
  -3   1  -7 2004.05 196.710   4
   3  -1   7 2137.55 261.556   7
   3  -1   7 2228.56 243.912   3
   3   1   7 2076.53 235.415   7
   3   1   7 2255.29 175.226   5
   3  -1   7 2389.58 202.389   5
   3   1   7 2225.21 263.200   2
  -3   1  -7 2070.22 241.627   3
   3   1   7 1944.73 138.121   3
   3   1   8 149.666 78.4911   2
  -3   1  -8 233.487 82.0792   3
   3   1   8 179.016 45.1161   5
   3  -1   8 427.648 150.319   7
   3  -1   8 133.813 42.9066   5
   3   1   8 147.510 64.3347   7
   3  -1   8 164.509 62.9602   3
  -3   1  -8 120.675 44.8664   4
   3   1   8 146.204 43.7658   3
  -3   1  -9 48801.1 1243.68   3
   3   1   9 50516.6 1356.38   2
  -3   1  -9 44953.4 912.260   4
   3  -1   9 50112.7 1257.09   3
   3  -1   9 48836.5 1380.76   7
   3   1   9 46600.5 744.821   5
   3  -1   9 46905.4 873.530   5
   3   1   9 46075.4 803.256   3
   3   1   9 49123.4 1251.22   7
   3  -1  10 49.5352 90.7048   7
   3   1  10 15.6838 24.2831   3
  -3   1 -10 13.3257 9.69390   4
   3   1  10-60.0679 63.7118   2
   3  -1  10 42.8603 43.7402   3
  -3   1 -10 48.0514 23.5734   3
   3  -1  10 2.82515 22.9485   5
   3   1  10-53.6640 64.3484   7
   3  -1  11 6465.72 320.558   5
   3   1  11 8107.38 585.166   2
  -3   1 -11 7103.20 352.620   4
  -3   1 -11 6877.50 506.917   3
   3  -1  11 7521.12 592.336   7
   3  -1  11 7691.53 533.441   3
   3   1  11 6866.16 506.725   7
   3   1  11 6917.02 360.643   3
  -3  -1 -11 6923.76 524.090   7
   3   1  12-17.1435 24.0646   3
   3   1  12-0.62961 17.3198   2
  -3   1 -12 65.7413 48.3432   3
   3  -1  12 25.3357 49.0896   3
  -3  -1 -12-26.7651 52.3592   7
  -3   1 -12 10.7163 14.6835   4
   3  -1  12 33.1268 87.0130   7
   3   1  12 63.9839 65.1570   7
  -3   1 -13 11788.7 711.308   3
   3   1  13 11706.5 535.993   3
   3   1  13 12344.1 775.611   2
   3  -1  13 12327.6 718.621   3
   3   1  13 12495.9 735.737   7
   3  -1  13 12364.3 805.182   7
   3   1  14-34.0760 37.6537   3
   3  -1  14-12.8486 42.4142   3
   3   1  14-131.223 117.991   7
   3  -1  14 130.081 147.451   7
  -3   1 -14 34.9496 40.1024   3
   3   1  15 6025.58 419.300   3
   3   1  15 6969.49 586.832   7
   3  -1  15 6134.32 601.633   7
   3  -1  15 5506.28 507.012   3
  -3   1 -15 5406.24 517.051   3
   3  -1  16 94.5241 128.025   7
   3   1  16 68.0455 78.6438   7
   3   1  16-18.1679 20.2210   3
   3   1  17 41774.5 1535.67   7
   3   1  17 40376.5 1188.80   3
   3  -1  17 41525.2 1681.22   7
   3   1  18 24.1259 35.8253   3
   3   1  18-38.0045 51.8099   7
   3  -1  18 85.4476 58.5859   7
   3   1  19 3848.42 390.587   3
   3  -1  19 4031.80 542.086   7
   3   1  19 4404.68 530.840   7
   3  -1  20 195.695 150.170   7
   3   1  20 126.967 71.7102   3
   3   1  20 26.2578 46.1013   7
   3   1  21 702.621 190.529   3
   3  -1  21 209.398 110.961   7
   3   1  21 361.680 156.403   7
   3  -1  22 3031.68 531.023   7
   3   1  22 167.803 118.891   7
   3  -1  23 8322.36 870.789   7
   3   1  23 8310.48 810.603   7
   3   1  24 201.875 160.508   7
   3  -1  24-57.0267 88.5298   7
   3  -1  25 10031.9 1005.04   7
   3   1  25 9255.19 902.553   7
   3  -1  26 291.192 194.861   7
   3   1  26 172.991 169.092   7
   3   1  27 10279.8 1004.62   7
   3  -1  27 10779.1 1098.31   7
   3   1  28 47.6295 51.4671   7
   3  -1  28 56.9540 65.0656   7
   3   1  29 984.825 311.311   7
   3  -1  29 640.695 278.025   7
   3   1  30 189.006 112.905   7
   3  -1  30-7.78499 92.6258   7
   3  -1  31 9477.93 1122.88   7
   3   1  31 9755.90 1061.74   7
   3  -1  32 195.482 166.967   7
   3   1  32 125.997 162.067   7
   3   1  33 4196.88 720.480   7
   3  -1  33 4048.81 778.044   7
   3   1  34-42.6983 110.600   7
   3  -1  34 169.947 155.187   7
   3  -1  35 5176.37 909.046   7
   3   1  35 4711.58 800.879   7
   3  -1  36-10.6914 61.8431   7
  -3  -3  37 6156.50 1056.33   2
  -3  -3  36 199.240 76.0516   7
  -3   3  35 2093.53 555.169   1
  -3  -3  35 1549.35 519.535   7
  -3   3  34-33.6961 79.3387   1
  -3  -3  34 176.220 130.706   7
  -3   3  33 10789.7 1219.13   1
  -3  -3  33 12367.5 1386.31   7
  -3  -3  32 72.7325 69.7732   7
  -3   3  32 220.362 174.265   1
  -3   3  31 2019.39 501.549   1
  -3  -3  31 2670.22 607.571   7
  -3   3  30 428.022 264.198   1
  -3  -3  30-204.796 160.027   7
  -3   3  29 18501.9 1467.64   1
  -3  -3  29 18114.1 1556.01   7
  -3   3  28 113.698 114.933   7
  -3  -3  28 267.914 238.275   7
  -3   3  28 319.059 186.264   1
  -3   3  27-180.378 112.249   1
  -3  -3  27-130.599 112.442   7
  -3   3  27 57.5809 70.0271   7
  -3  -3  26 206.403 188.964   7
  -3   3  26 165.801 130.303   1
  -3   3  26 31.6983 60.5539   7
  -3   3  25 5093.53 708.209   1
  -3  -3  25 5245.08 765.488   7
  -3   3  25 5058.66 509.509   7
  -3  -3  24 315.936 140.549   7
   3  -3 -24 6.42794 34.6616   5
  -3   3  24 77.6323 59.7336   7
  -3   3  24 121.000 121.582   1
  -3  -3  23 6438.45 805.517   7
  -3   3  23 6024.87 721.174   1
  -3   3  23 6593.61 545.417   7
   3  -3 -23 5664.89 481.600   5
  -3  -3  22-31.5635 73.1389   7
  -3   3  22 31.8716 73.7017   1
  -3   3  22-20.8689 36.0111   7
   3  -3 -22 57.0647 61.1453   5
  -3   3  21 7781.10 616.410   2
   3  -3 -21 8870.33 630.436   5
  -3   3  21 8642.34 817.181   1
  -3   3  21 9430.87 607.269   7
  -3  -3  21 9163.92 927.045   7
  -3   3  20 252.780 142.676   1
  -3   3  20 140.930 97.6432   7
  -3   3  20 161.156 89.2261   2
   3  -3 -20 209.623 101.078   5
  -3  -3  20 340.438 187.635   7
  -3   3  19 2114.56 299.339   2
  -3   3  19 2229.95 268.470   7
  -3  -3  19 2816.11 494.614   7
  -3   3  19 2389.07 408.735   1
   3  -3 -19 2291.77 327.960   5
  -3   3  18-58.2228 48.1084   2
  -3  -3  18 109.404 146.417   7
   3  -3 -18 29.3997 87.6067   5
  -3   3  18-23.7892 38.5091   7
   3   3 -18 3.02927 79.0598   3
  -3   3  18-13.3750 80.4130   1
   3   3 -17 38668.4 1723.23   3
  -3   3  17 37417.5 1023.10   7
  -3   3  17 35300.4 1354.28   4
  -3  -3  17 38779.0 1750.51   7
  -3   3  17 35510.5 1512.25   1
  -3   3  17 35746.2 1129.37   2
   3  -3 -17 34886.6 1320.08   5
   3   3 -16 107.378 138.914   3
  -3   3  16 46.3159 44.7205   2
  -3   3  16 14.9709 36.9814   7
  -3  -3  16 371.133 225.353   7
   3  -3 -16 34.3911 76.5547   5
  -3   3  16 27.6043 129.551   1
  -3   3  16 105.009 70.5689   4
   3   3 -15 30968.0 1500.17   3
  -3   3  15 32525.9 1357.83   1
  -3   3  15 30781.6 1252.34   4
  -3   3  15 31461.4 960.815   2
  -3   3  15 32685.8 862.980   7
  -3  -3  15 33435.2 1548.79   7
   3  -3 -15 30894.9 1252.38   5
  -3   3  14 21.1221 53.9577   4
   3   3 -14 76.8969 94.0087   3
  -3   3  14 10.0704 24.9563   7
   3  -3 -14 29.9756 108.372   5
  -3  -3  14 31.6153 74.0323   7
  -3   3  14 40.5504 30.1090   2
  -3   3  14 24.0881 41.0227   1
   3   3 -13 23135.2 1216.78   3
  -3   3  13 23140.6 648.433   7
  -3   3  13 22301.4 1073.34   1
  -3  -3  13 25183.7 1297.87   7
   3  -3 -13 22446.2 1064.97   5
  -3   3  13 23019.3 1070.35   4
  -3   3  13 22125.5 742.140   2
  -3  -3  12-79.0204 152.903   7
   3  -3 -12 201.746 148.818   5
  -3   3  12 129.090 42.9425   7
   3   3 -12-10.5352 34.4806   5
  -3   3  12 105.345 62.3742   1
   3   3 -12 92.9100 102.689   3
  -3   3  12 73.4733 37.7332   2
  -3   3  12 152.983 66.7149   4
  -3   3  11 7062.46 323.459   7
  -3   3  11 7002.99 387.909   2
   3  -3 -11 6680.85 578.742   5
  -3   3  11 6365.58 547.444   1
   3   3 -11 6310.37 614.837   3
   3   3 -11 3960.54 457.580   5
  -3   3  11 7286.65 599.698   4
  -3  -3  11 6933.46 658.242   7
   3  -3 -10 94.5530 87.7354   5
  -3   3  10-89.0086 104.018   1
   3   3 -10-2.50611 70.9378   3
   3   3 -10 91.3663 83.7564   5
  -3  -3  10 42.6833 67.2793   2
  -3   3  10-14.1309 33.8188   2
  -3   3  10-19.2947 30.1934   7
  -3  -3  10 16.7214 60.5867   7
   3  -3 -10 34.9044 25.6754   2
  -3   3  10-45.8234 54.8163   4
  -3   3   9 5944.65 498.421   1
   3   3  -9 7357.47 623.621   3
  -3  -3   9 8167.62 701.353   2
  -3   3   9 7053.45 370.262   2
   3  -3  -9 7000.76 527.178   1
   3  -3  -9 6497.80 350.060   2
   3   3  -9 6849.93 599.217   5
  -3   3   9 6858.23 575.042   4
   3  -3  -9 6633.91 573.070   5
   3   3  -8 541.909 168.704   5
  -3   3   8 470.444 115.999   1
   3  -3  -8 391.384 88.0795   2
  -3  -3   8 784.417 207.517   2
  -3   3   8 475.307 95.2500   2
   3  -3  -8 605.469 187.971   5
  -3   3   8 423.278 139.752   4
   3   3  -8 307.846 122.446   3
   3  -3  -8 338.144 117.381   1
  -3  -3   7 34476.7 1397.79   2
  -3   3   7 31171.2 1088.22   3
   3  -3  -7 30364.4 1234.00   5
   3  -3  -7 33459.2 1124.98   1
  -3   3   7 31689.4 1053.99   1
   3   3  -7 32100.8 1221.97   3
   3  -3  -7 32444.5 861.011   2
   3  -3  -6 46.8806 40.0264   1
  -3   3   6 18.0838 18.4794   7
  -3   3   6 72.5976 59.6788   1
   3   3  -6-26.5871 53.2839   3
  -3  -3   6 22.9740 52.0344   2
   3  -3  -6 44.3251 27.1754   2
   3  -3  -6 192.696 139.681   5
  -3   3   6-6.37658 65.4061   3
   3  -3  -5 7854.92 484.496   2
   3   3  -5 8769.86 605.405   3
  -3   3   5 8831.72 519.639   1
   3  -3  -5 8672.37 655.178   5
   3  -3  -5 9601.49 582.086   1
  -3   3   5 8842.19 577.564   3
  -3   3   5 8683.05 463.667   6
  -3   3   5 8247.63 374.283   7
  -3  -3   5 9108.50 696.797   2
   3   3  -4 777.865 181.809   7
  -3  -3   4 613.192 170.605   2
   3   3  -4 515.849 134.427   3
  -3   3   4 397.069 120.663   3
  -3   3   4 568.384 103.170   7
  -3   3   4 452.378 102.452   6
   3  -3  -4 512.087 123.481   2
  -3   3   4 649.641 134.274   1
   3  -3  -4 685.089 226.391   5
   3  -3  -4 592.198 134.494   1
   3  -3  -3 42344.3 1440.36   5
   3  -3  -3 43467.2 1159.77   1
  -3   3   3 39671.7 903.465   7
  -3   3   3 40397.7 1246.34   3
  -3   3   3 42439.4 1025.14   6
   3   3  -3 42168.3 1357.32   7
  -3   3   3 43606.7 1081.90   1
  -3  -3   3 41256.4 1460.86   2
   3   3  -3 41376.9 1231.41   3
   3  -3  -3 41551.2 1165.31   2
  -3  -3   2 72.4540 24.9346   3
   3   3  -2 143.761 72.8890   3
  -3   3   2 30.4017 32.5362   6
  -3   3   2 103.621 61.8649   3
   3  -3  -2 140.724 75.0232   2
   3  -3  -2 97.8914 65.4377   1
   3   3  -2 249.496 104.590   2
  -3  -3   2 27.4417 69.7001   2
   3  -3  -2 319.712 187.197   5
  -3   3   2 59.0411 39.5912   7
  -3  -3   2 109.614 35.9302   1
  -3  -3   1 375.536 59.5261   6
   3  -3  -1 261.164 128.090   5
   3   3  -1 413.508 114.828   3
   3  -3  -1 400.895 102.870   1
   3  -3  -1 353.852 98.1792   7
   3   3  -1 436.589 129.683   2
  -3  -3   1 458.128 163.255   2
  -3  -3   1 480.875 130.191   3
   3  -3  -1 582.772 138.558   6
  -3   3   1 487.518 106.329   7
  -3  -3   1 414.611 64.8105   1
  -3   3   1 385.101 126.640   3
   3  -3   0 112.441 64.8578   1
  -3  -3   0 104.924 112.424   2
   3  -3   0 172.420 168.853   5
   3  -3   0 103.264 26.8610   7
  -3   3   0 155.193 62.0575   7
  -3   3   0 102.362 73.4674   3
  -3  -3   0 119.149 30.9309   1
   3  -3   0 181.413 87.3315   6
   3   3   0 192.398 85.4883   2
  -3  -3   0 177.013 76.9401   3
   3   3   0 145.101 63.8328   3
  -3  -3  -1 48219.8 1216.53   3
   3   3   1 44903.9 1146.89   3
   3   3   1 47563.1 1479.22   2
   3  -3   1 48099.7 1217.94   6
  -3   3  -1 44945.7 1164.24   7
  -3   3  -1 46067.5 1376.19   3
   3  -3   1 45404.5 1284.39   7
   3  -3   1 47071.3 1515.90   5
  -3  -3  -1 44077.0 1459.23   2
   3   3   2 389.594 99.8158   3
   3   3   2 538.063 157.765   5
   3  -3   2 356.790 140.885   5
   3  -3   2 318.602 102.134   6
   3   3   2 341.668 62.9598   1
  -3  -3  -2 419.222 147.269   2
  -3   3  -2 105.766 55.4271   3
   3   3   2 314.609 116.064   2
   3  -3   2 292.411 116.545   7
  -3  -3  -2 426.523 108.668   3
  -3   3  -2 351.980 122.319   7
  -3   3  -3 586.758 160.821   3
  -3   3  -3 667.972 157.105   7
  -3  -3  -3 597.505 160.600   2
   3   3   3 604.612 165.733   2
   3  -3   3 698.733 152.517   6
  -3  -3  -3 575.010 128.280   3
   3   3   3 608.963 96.8561   1
   3   3   3 610.126 161.267   5
   3  -3   3 794.384 199.135   5
   3  -3   3 693.958 158.554   7
   3   3   3 566.063 125.158   3
  -3  -3  -4 224.378 73.4311   3
   3   3   4 184.045 59.5443   1
  -3   3  -4 285.730 80.4158   3
   3   3   4 363.779 129.992   2
   3   3   4 199.866 70.1705   3
   3  -3   4 291.612 130.147   5
  -3   3  -4 203.679 96.3115   7
   3   3   4 220.961 91.6466   5
  -3  -3  -4 157.161 78.3641   2
   3  -3   4 287.980 125.547   7
  -3   3  -5 8725.43 658.115   3
  -3   3  -5 7912.65 572.507   7
   3   3   5 8204.07 624.749   2
   3  -3   5 8280.18 633.706   5
   3   3   5 7457.38 406.575   1
   3   3   5 8879.15 632.462   5
  -3  -3  -5 8646.25 626.658   2
   3   3   5 8124.32 439.746   3
   3  -3   5 8369.36 615.310   7
   3   3   6 27.0392 49.5566   3
  -3   3  -6 243.794 126.036   3
   3   3   6 107.933 46.4772   1
   3  -3   6 28.0166 48.8279   7
   3   3   6 94.4843 73.4041   2
  -3   3  -6 150.565 87.4253   7
   3   3   6 127.754 75.4297   5
  -3  -3  -6 92.6311 74.2454   2
   3  -3   6 118.402 107.556   5
   3   3   7 127.311 88.9536   2
  -3   3  -7 19.8342 89.8004   3
  -3  -3  -7 51.0088 52.9807   2
   3   3   7 18.9042 67.5518   3
   3  -3   7-26.3571 70.3439   5
   3   3   7 103.013 50.2049   5
   3  -3   7 71.4041 82.0161   7
   3   3   7 54.1495 31.3988   1
   3  -3   8 572.594 150.093   5
  -3   3  -8 527.963 173.146   3
  -3  -3  -8 639.720 164.846   2
   3   3   8 746.015 188.947   5
   3   3   8 622.455 183.937   2
   3   3   8 681.319 144.677   1
   3   3   8 727.790 123.610   3
   3  -3   8 966.247 250.932   7
   3  -3   9 86148.0 2239.38   7
   3   3   9 88105.3 1723.12   1
  -3  -3  -9 88861.7 1969.98   2
   3  -3   9 87523.4 2044.86   5
  -3   3  -9 89665.0 2218.04   3
   3   3   9 84503.4 1918.15   5
   3   3   9 91604.0 2206.16   2
   3   3   9 86533.5 1372.29   3
   3   3  10 37.4808 63.7403   2
   3   3  10 47.8811 74.5065   1
   3   3  10 20.7234 33.8650   7
  -3   3 -10 81.4109 60.6547   3
   3   3  10 22.8565 24.1588   3
   3  -3  10 261.370 205.918   7
  -3  -3 -10 171.236 85.1742   2
   3  -3  10 10.6140 66.4085   5
   3  -3  11 4858.36 562.438   7
   3   3  11 5671.80 475.711   7
   3  -3  11 4972.86 492.807   5
  -3   3 -11 4807.49 555.007   3
   3   3  11 4916.20 329.598   3
   3   3  11 5319.10 560.667   2
  -3  -3 -11 5487.11 498.074   2
   3  -3  12-20.9905 58.3551   5
   3   3  12 24.6193 31.7437   7
  -3   3 -12 106.537 85.4547   3
   3   3  12 14.9735 41.3047   2
   3   3  12-33.3442 47.0572   3
  -3   3 -13 13188.0 939.393   3
   3  -3  13 14062.1 996.781   7
   3   3  13 13039.2 755.341   7
   3   3  13 13507.4 558.897   3
   3   3  13 14685.2 970.891   2
   3  -3  13 13262.5 800.513   5
  -3   3 -14-15.7305 58.0531   3
   3   3  14 163.761 93.1254   7
   3   3  14-0.11259 30.2801   3
   3  -3  14-89.9040 98.1112   7
  -3   3 -15 5131.73 609.572   3
   3  -3  15 6310.70 705.698   7
   3   3  15 5176.57 504.757   7
  -3   3 -16-50.3656 94.3695   3
   3   3  16 20.4390 28.4883   7
   3   3  16 1.44587 35.2612   4
  -3   3 -17 12631.5 1000.89   3
   3   3  17 12457.8 819.125   7
   3  -3  17 12480.9 1036.35   7
  -3   3 -17 10913.3 724.890   4
   3   3  17 11370.5 646.310   4
   3   3  18-18.2866 88.1727   7
   3   3  18-18.4734 41.0767   4
  -3   3 -18-51.5628 51.6346   4
  -3   3 -18 56.0540 128.729   3
   3  -3  18-62.0134 88.9712   7
   3   3  19 1467.84 215.394   4
   3   3  19 2191.94 356.816   7
   3  -3  19 1988.73 439.187   7
  -3   3 -19 1916.57 420.513   3
   3   3  19 1807.70 241.802   3
  -3   3 -19 1531.17 267.993   4
   3   3  20 129.132 94.1295   7
   3  -3  20 2.30256 117.242   7
  -3   3 -20 110.932 127.593   3
  -3   3 -21 1464.13 361.208   3
   3  -3  21 1695.97 429.093   7
   3   3  21 1953.43 360.624   7
  -3   3 -22 171.586 126.060   3
   3  -3  22 100.876 141.862   7
   3   3  22 168.486 117.791   7
   3  -3  23 7036.48 886.279   7
   3   3  23 7795.58 750.215   7
   3   3  24 120.085 156.759   7
   3  -3  24 26.4415 133.624   7
   3   3  25 14691.0 1076.02   7
   3  -3  25 14740.6 1350.55   7
   3   3  25 14365.3 1194.58   1
   3  -3  26 254.464 211.090   7
   3   3  26 64.5673 130.337   7
   3   3  26 73.7654 124.657   1
   3  -3  27 13635.7 1347.98   7
   3   3  27 14413.9 1119.11   7
   3   3  27 13989.0 1229.15   1
   3   3  28 126.459 127.106   7
   3   3  28-151.237 164.551   1
   3  -3  28 157.112 136.813   7
   3   3  29 198.308 103.570   1
   3  -3  29 379.789 224.093   7
   3   3  29 226.694 151.697   7
   3  -3  30-75.3051 114.592   7
   3   3  30-241.845 195.457   1
   3   3  30 211.553 157.300   7
   3  -3  31 7036.13 1065.35   7
   3   3  31 5970.63 883.763   1
   3  -3  32 3.07967 186.689   7
   3   3  32 86.0135 186.672   1
   3  -3  33 4208.49 831.540   7
   3   3  33 3654.59 739.170   1
   3   3  34 255.213 216.858   1
  -3   5  34 46.4370 106.677   1
  -3  -5  33 7580.95 1217.98   2
  -3   5  33 7030.97 1016.87   1
  -3  -5  32 464.877 413.608   2
  -3   5  32 91.6301 139.526   1
  -3   5  31 510.364 258.131   1
  -3  -5  31 1228.60 477.179   2
  -3  -5  30 231.724 214.030   7
  -3   5  30-142.852 166.175   1
  -3  -5  30 262.632 258.039   2
  -3  -5  29 9647.90 1268.87   7
  -3  -5  29 9023.59 1256.73   2
  -3   5  29 8482.75 1047.42   1
  -3   5  28 107.781 144.570   1
  -3  -5  28 252.901 199.348   2
  -3  -5  28 114.829 155.871   7
  -3  -5  27 246.277 223.064   2
  -3   5  27 45.4090 77.7234   1
  -3  -5  27 29.3907 180.055   7
  -3   5  26-49.9873 87.6048   1
  -3  -5  26 14.7157 79.9936   2
  -3  -5  26-73.1531 124.606   7
  -3  -5  25 16914.3 1577.86   7
  -3   5  25 14485.4 1249.59   1
  -3  -5  25 15286.6 1542.17   2
  -3   5  25 17784.1 1136.90   3
  -3   5  24 274.097 175.858   1
  -3  -5  24 179.828 224.520   7
  -3   5  24 313.235 168.812   3
   3  -5 -24 321.707 159.719   5
  -3  -5  24 340.563 186.418   2
  -3  -5  23 13014.5 1341.40   7
  -3  -5  23 13017.8 1371.98   2
   3  -5 -23 14306.3 1062.81   5
  -3   5  23 13548.7 980.061   3
   3   5 -23 13785.6 1331.76   3
  -3   5  23 13618.0 1170.86   1
  -3   5  22 90.1924 97.9447   3
  -3  -5  22-65.3120 65.9204   2
  -3  -5  22 16.1503 76.2647   7
   3   5 -22 246.982 205.060   3
   3  -5 -22 86.6010 109.360   5
  -3   5  22 188.085 142.494   1
  -3   5  21 14915.7 1010.56   3
   3   5 -21 14123.5 1300.76   3
   3  -5 -21 14254.5 1083.88   5
  -3  -5  21 13928.7 1337.45   7
  -3  -5  21 13728.5 1359.10   2
  -3   5  21 13357.9 1116.64   1
   3   5 -20 6.97058 130.480   3
  -3  -5  20-243.899 211.409   7
   3  -5 -20-72.3263 104.966   5
  -3   5  20-78.4621 136.785   1
  -3  -5  20 274.498 175.430   2
  -3   5  20-74.4048 100.459   3
   3   5 -19 2597.26 538.170   3
  -3   5  19 2509.85 258.588   7
  -3   5  19 2597.44 409.857   3
  -3  -5  19 2966.24 628.423   2
  -3   5  19 2733.28 479.022   1
   3  -5 -19 2008.51 411.910   5
   3  -5 -18 292.509 169.986   5
  -3   5  18 18.7484 56.1736   3
  -3   5  18 123.594 59.5380   7
   3   5 -18 155.400 119.778   3
  -3   5  18 152.821 119.373   1
  -3  -5  18 341.425 253.168   2
   3   5 -17 13910.0 1201.76   3
  -3   5  17 14262.0 951.209   3
  -3   5  17 14457.9 596.200   7
  -3  -5  17 15393.9 1354.69   2
  -3   5  17 14408.8 1045.96   1
   3  -5 -17 14031.9 1089.07   5
  -3  -5  16 223.894 226.368   2
   3   5 -16 386.479 245.307   3
   3  -5 -16 28.6475 135.740   5
  -3   5  16-5.19623 55.5811   3
  -3   5  16 107.349 52.0881   7
  -3   5  16 40.4522 107.415   1
   3   5 -15 4435.63 650.184   3
  -3   5  15 3983.50 497.147   3
  -3   5  15 4468.75 325.637   7
  -3  -5  15 3595.27 641.188   2
  -3   5  15 4298.20 380.426   2
  -3   5  15 3977.22 523.188   1
   3  -5 -15 3719.29 560.573   5
   3  -5 -14 179.215 154.325   5
  -3   5  14 96.8016 96.8056   3
  -3  -5  14 233.936 207.925   2
  -3   5  14 32.6436 29.4730   7
   3  -5 -14 46.5559 28.4029   2
   3   5 -14-107.901 148.695   3
  -3   5  14 7.44610 73.7639   1
   3  -5 -13 13508.6 1076.93   5
   3   5 -13 14139.0 1110.97   3
  -3   5  13 14369.0 930.698   3
  -3   5  13 14783.3 594.953   7
   3  -5 -13 14632.7 717.787   2
  -3  -5  13 14278.8 1231.71   2
  -3   5  13 14228.3 936.672   1
  -3  -5  12 165.590 191.689   2
  -3   5  12 92.1339 113.015   3
  -3   5  12 120.734 92.9197   1
   3  -5 -12 98.1275 61.5195   2
   3  -5 -12 236.185 114.801   5
  -3   5  12 17.9641 42.2536   7
   3   5 -12 40.5502 89.1925   3
   3   5 -11 11106.8 951.002   3
  -3   5  11 9983.45 739.398   1
   3  -5 -11 9404.40 894.356   5
  -3  -5  11 10213.2 1022.59   2
  -3   5  11 9837.47 772.463   3
   3  -5 -11 10060.9 635.324   2
  -3   5  11 9466.41 609.418   6
  -3   5  11 9545.08 536.406   7
  -3   5  10 14.2780 35.9296   1
  -3   5  10 23.7798 102.527   3
   3  -5 -10 56.4497 69.7242   2
  -3  -5  10-96.7486 169.100   2
  -3   5  10-58.2459 77.8080   6
   3   5 -10-159.013 161.163   3
   3  -5 -10 34.0860 66.6015   5
  -3   5  10 45.2738 40.2440   7
   3   5  -9 9182.11 830.675   3
  -3   5   9 8225.81 506.043   7
  -3   5   9 8727.85 563.429   6
  -3  -5   9 8202.97 891.522   2
  -3   5   9 9311.26 740.407   3
   3  -5  -9 8265.86 631.097   2
  -3   5   9 8575.51 652.330   1
   3  -5  -9 8172.19 825.467   5
   3   5  -8 155.173 55.1829   3
  -3   5   8 172.996 73.9023   6
  -3   5   8 134.358 94.6449   1
   3  -5  -8 43.9812 33.4823   2
  -3   5   8-79.9633 86.5291   3
  -3  -5   8 225.409 211.390   2
  -3   5   8 172.569 68.1086   7
   3   5  -7 47699.8 1845.58   3
  -3   5   7 50272.0 1755.12   3
  -3   5   7 48352.6 1264.12   7
   3  -5  -7 48623.7 2010.87   5
  -3   5   7 53168.6 1519.38   1
  -3  -5   7 49840.6 2162.29   2
  -3   5   7 52256.7 1335.06   6
   3  -5  -7 51302.6 1656.53   2
  -3   5   6-140.105 83.3418   6
  -3  -5   6 27.6120 61.8569   2
   3  -5  -6-95.8687 120.110   2
  -3   5   6 145.177 125.514   3
  -3   5   6 48.8537 52.5893   7
   3   5  -6 68.5290 101.236   3
   3   5  -5 1836.69 347.917   3
  -3  -5   5 1997.27 226.507   1
   3  -5  -5 2719.52 476.686   5
   3  -5  -5 2060.96 353.389   2
  -3   5   5 2092.14 350.785   3
  -3   5   5 1957.18 263.896   7
  -3  -5   5 1609.87 370.973   2
  -3  -5   4 113.457 119.545   2
  -3  -5   4 7.32993 20.2319   1
   3  -5  -4-7.45815 29.7828   2
  -3   5   4-83.3892 117.767   3
   3  -5  -4 49.9694 38.0909   1
  -3  -5   4 2.13806 36.2729   6
   3   5  -4 4.40258 42.4942   3
   3  -5  -4 10.4011 124.527   5
  -3   5   4 1.24806 47.7926   7
   3  -5  -3 16078.0 1153.08   5
   3  -5  -3 15165.6 1031.86   2
  -3  -5   3 14735.0 605.746   6
  -3  -5   3 15872.1 1174.16   2
  -3  -5   3 16163.4 618.478   1
   3   5  -3 15958.0 980.850   3
  -3   5   3 15494.7 785.331   7
  -3   5   3 15241.8 978.197   3
  -3  -5   2-22.8914 41.0105   1
  -3  -5   2 31.0531 43.0434   6
  -3   5   2-18.8852 102.748   3
   3  -5  -2 194.649 124.872   2
  -3  -5   2 17.4597 96.7859   2
   3  -5  -2-4.53305 40.9145   1
   3  -5  -2 266.419 185.247   5
   3   5  -2 42.9919 63.3544   3
  -3   5   2 14.6426 49.9759   7
  -3   5   1 1920.42 351.885   3
  -3   5   1 1875.61 283.195   7
   3  -5  -1 1457.30 255.800   1
   3   5  -1 1835.13 326.724   3
  -3  -5   1 1567.33 182.455   1
  -3  -5   1 1554.95 375.574   2
   3  -5  -1 1959.26 377.916   2
   3  -5  -1 1495.48 334.208   5
  -3   5   0 213.770 95.4225   3
   3  -5   0 209.454 128.126   2
  -3  -5   0 276.909 127.985   2
   3  -5   0 421.457 203.739   5
   3   5   0 163.023 102.674   3
  -3  -5   0 202.179 57.5606   1
   3  -5   0 103.061 56.7808   6
   3  -5   0-11.3565 25.8702   1
   3  -5   1 49413.6 1447.51   6
   3  -5   1 50084.2 2034.36   5
  -3   5  -1 49716.9 1848.87   3
   3  -5   1 51238.6 1993.89   2
  -3  -5  -1 45708.1 916.464   1
   3   5   1 48657.5 1628.21   3
  -3  -5  -1 47051.6 1967.49   2
  -3   5  -2 26.5846 78.3902   3
   3  -5   2 17.5962 29.9214   6
   3  -5   2 184.087 138.853   5
  -3  -5  -2 28.9138 52.9138   2
   3   5   2-66.7411 46.1738   3
   3  -5   2-37.6284 62.3822   2
  -3  -5  -3 65.3767 94.0154   2
  -3   5  -3-19.0652 93.9355   3
   3  -5   3 235.540 158.658   2
   3  -5   3-0.38338 97.8809   5
   3   5   3 115.049 93.1778   3
   3   5   4 270.750 125.495   3
  -3  -5  -4 146.836 81.8823   2
   3  -5   4 310.508 150.243   2
  -3   5  -4 385.871 185.452   3
   3  -5   4 393.736 187.384   5
  -3   5  -5 15941.4 1102.16   3
   3   5   5 16565.2 897.702   3
   3  -5   5 17472.0 1213.05   5
   3   5   5 17542.6 658.719   1
   3  -5   5 19055.8 1221.52   7
  -3  -5  -5 17074.2 1140.66   2
  -3  -5  -6-38.7317 109.108   2
   3  -5   6 46.5839 82.1246   5
   3   5   6 95.3959 76.6124   1
  -3   5  -6 19.9031 111.099   3
   3   5   6 46.1644 61.5961   3
   3  -5   6 140.753 127.646   7
  -3  -5  -7 299.681 145.657   2
   3  -5   7 331.103 193.772   5
   3  -5   7 265.772 167.407   7
   3   5   7 245.924 126.206   3
  -3   5  -7 145.917 221.384   3
   3   5   7 366.045 116.780   1
   3   5   8 8.53090 50.1402   1
  -3   5  -8 347.026 193.393   3
  -3  -5  -8 103.958 97.5353   2
   3   5   8 144.254 83.7247   3
   3  -5   8 161.200 137.791   5
   3  -5   8-47.8593 69.2570   7
   3  -5   9 21534.6 1400.37   7
   3   5   9 17525.5 441.384   6
   3  -5   9 21731.0 1354.43   5
   3   5   9 22265.6 962.163   1
  -3  -5  -9 21391.2 1188.32   2
  -3   5  -9 21385.3 1345.34   3
   3   5   9 20456.0 968.201   3
   3   5  10 5.93201 32.0112   3
   3  -5  10-55.0266 113.828   7
  -3   5 -10-131.807 138.895   3
   3   5  10 46.8747 32.3558   6
  -3  -5 -10 89.5245 75.4198   2
   3  -5  10 107.646 119.601   5
   3   5  10-34.1187 59.3836   1
   3   5  11 1154.82 220.714   3
   3  -5  11 1230.24 344.087   7
  -3  -5 -11 1386.96 303.044   2
   3   5  11 1289.60 245.763   1
   3  -5  11 936.606 265.003   5
  -3   5 -11 1054.13 296.532   3
  -3   5 -12 263.116 189.430   3
   3   5  12 22.3553 68.8863   3
  -3  -5 -12-165.277 104.447   2
   3  -5  12-120.380 157.125   5
   3   5  12 66.3477 49.2670   1
   3  -5  12 80.3848 111.963   7
   3   5  13 7899.00 572.647   3
   3   5  13 8501.96 656.832   7
   3  -5  13 8821.69 875.339   5
  -3   5 -13 7949.38 858.028   3
   3  -5  13 8369.13 932.711   7
  -3  -5 -13 8683.67 742.361   2
   3   5  13 7730.07 671.504   1
  -3  -5 -14-141.857 95.4468   2
  -3   5 -14-39.8798 137.800   3
   3   5  14-18.5592 96.7668   1
   3  -5  14-91.4479 111.195   7
   3   5  14 70.8381 56.7140   3
   3   5  14 100.176 105.571   7
   3   5  15 4019.12 472.582   7
   3   5  15 3094.70 455.664   1
   3   5  15 3437.94 372.650   3
   3  -5  15 3424.22 614.912   7
  -3   5 -15 3041.48 550.978   3
  -3   5 -16-99.5880 160.247   3
   3   5  16 99.0034 72.8695   7
   3  -5  16 162.747 148.471   7
   3   5  16 44.1255 65.4650   3
   3   5  16 137.032 132.525   1
   3   5  17 32823.0 1126.23   3
  -3   5 -17 33872.2 1910.69   3
   3   5  17 31736.6 1524.35   1
   3  -5  17 33111.8 1971.92   7
   3   5  17 34118.8 1385.31   7
   3   5  18 113.543 82.5701   3
   3  -5  18 293.725 213.271   7
   3   5  18 199.207 142.692   1
  -3   5 -18 86.2199 77.2668   3
   3   5  18-98.0599 94.6841   7
  -3   5 -19 8069.11 998.678   3
   3  -5  19 9202.36 1069.34   7
   3   5  19 8012.58 697.649   7
   3   5  19 7374.76 773.683   1
   3   5  20 9.98300 93.0983   1
  -3   5 -20-125.316 75.4084   3
   3  -5  20-9.06103 72.4847   7
   3   5  20-62.0982 93.6881   7
   3  -5  21 1870.52 498.035   7
   3   5  21 2358.68 468.885   1
   3   5  21 2028.06 359.018   7
  -3   5 -21 2113.28 499.294   3
   3  -5  22 28.6485 179.163   7
   3   5  22 97.6704 88.2924   7
   3   5  22-40.1708 90.4077   1
  -3   5 -22 18.0899 109.622   3
   3   5  23 4667.92 561.398   7
  -3   5 -23 4207.16 751.574   3
   3   5  23 4987.20 700.696   1
   3  -5  23 5276.79 882.780   7
   3   5  24 127.705 130.769   1
   3  -5  24-207.018 240.221   7
  -3   5 -24-116.010 130.352   3
   3  -5  25 5635.20 946.235   7
   3   5  25 4996.65 731.165   1
  -3   5 -25 4599.37 834.903   3
   3  -5  26 621.733 300.329   7
   3   5  26 187.787 142.158   1
   3  -5  27 8841.15 1207.16   7
   3   5  27 7720.32 961.560   1
   3   5  28 44.7332 109.783   1
   3  -5  28 101.865 220.679   7
   3   5  29 2082.02 519.979   1
   3  -5  29 2060.80 595.974   7
   3   5  30 41.0336 94.8777   1
   3   5  31 5546.17 877.480   1
   3   5  32-34.8096 51.6812   1
  -3  -7  27 357.217 311.223   2
  -3   7  27 371.190 216.036   1
  -3   7  26 56.0511 106.483   1
  -3  -7  26-46.1506 174.044   2
   3   7 -25 7034.02 1110.08   3
  -3   7  25 5229.56 782.066   1
  -3  -7  25 5821.28 1086.68   2
  -3  -7  24-192.644 265.647   2
   3   7 -24 403.813 308.164   3
  -3   7  24 11.5076 68.2430   1
  -3  -7  23 2954.86 755.402   2
  -3   7  23 2156.43 481.987   1
   3   7 -23 2767.98 667.452   3
   3   7 -22-58.8179 231.749   3
   3  -7 -22-128.764 145.170   5
  -3   7  22 323.649 212.384   1
  -3  -7  22 155.584 177.699   2
   3   7 -21 8679.74 1166.72   3
  -3   7  21 7092.38 837.657   1
  -3  -7  21 7078.87 1170.50   2
   3  -7 -21 6477.15 912.344   5
   3   7 -20 57.9274 180.570   3
   3  -7 -20 150.674 161.413   5
  -3  -7  20 78.6391 189.943   2
  -3   7  20 275.379 183.613   1
  -3   7  20 170.987 164.140   3
   3   7 -19 2477.77 607.223   3
   3  -7 -19 2638.86 587.509   5
  -3  -7  19 1586.97 523.919   2
  -3   7  19 1831.44 394.447   3
  -3   7  19 2002.00 423.306   1
  -3  -7  18 782.228 365.331   2
   3   7 -18 132.676 203.624   3
  -3   7  18 239.247 156.893   3
  -3   7  18 507.548 215.043   1
   3  -7 -18 438.342 196.214   5
  -3   7  17 21212.0 1323.66   1
   3   7 -17 20838.8 1677.92   3
  -3   7  17 21022.6 1352.00   3
  -3  -7  17 20822.4 1901.45   2
   3  -7 -17 18032.0 1524.57   5
  -3   7  16 117.847 170.150   3
   3  -7 -16 16.3757 58.0142   5
  -3  -7  16 133.313 134.295   2
   3   7 -16-4.22058 159.315   3
  -3   7  16 62.1046 110.262   1
  -3  -7  15 12659.3 1454.55   2
   3  -7 -15 13176.5 1314.18   5
  -3   7  15 12316.9 1036.16   3
   3   7 -15 12103.2 1229.14   3
  -3   7  15 14048.4 1031.74   1
   3  -7 -14-27.1721 67.7461   5
  -3   7  14 3.22208 37.1271   3
   3   7 -14 234.107 169.013   3
  -3  -7  14 11.4781 121.949   2
  -3   7  14 138.373 91.6490   1
   3   7 -13 10093.7 1099.71   3
  -3   7  13 10280.5 840.814   1
  -3  -7  13 9582.45 1245.78   2
  -3   7  13 9097.33 898.902   3
   3  -7 -13 8905.36 719.589   2
   3  -7 -13 9380.19 1102.31   5
   3  -7 -12 217.093 162.235   5
  -3  -7  12-281.192 228.029   2
  -3   7  12-58.1614 68.3646   1
   3   7 -12 83.3940 169.719   3
  -3   7  12-183.681 140.746   3
   3  -7 -12 74.9121 69.8892   2
   3   7 -11 5263.76 761.645   3
   3  -7 -11 5466.41 868.387   5
  -3   7  11 4315.40 607.658   3
  -3  -7  11 5147.47 889.289   2
   3  -7 -11 5089.41 591.837   2
   3   7 -10-57.0013 78.7023   3
  -3   7  10 30.3403 68.1628   3
   3  -7 -10 150.512 234.430   5
  -3  -7  10-141.671 171.494   2
   3  -7 -10 77.2537 82.3707   2
   3   7  -9 3947.31 646.397   3
   3  -7  -9 3788.03 536.743   2
   3  -7  -9 2949.32 610.911   5
  -3  -7   9 3124.02 705.476   2
  -3   7   9 3287.51 541.276   3
   3   7  -8 2.39358 115.342   3
  -3   7   8 400.566 207.273   3
   3  -7  -8 49.0382 169.318   5
  -3  -7   8 105.927 75.4992   2
   3  -7  -8 94.4700 68.2785   2
   3   7  -7 22720.7 1514.33   3
  -3  -7   7 22303.7 1797.33   2
   3  -7  -7 21827.4 1662.12   5
   3  -7  -7 23359.4 1430.98   2
  -3   7   7 22618.6 1433.91   3
  -3  -7   6 328.582 214.201   2
   3  -7  -6 270.139 183.530   5
   3   7  -6 315.746 187.599   3
   3  -7  -6 311.396 154.400   2
  -3   7   6 157.135 50.3958   3
   3  -7  -5 3259.10 570.246   2
   3  -7  -5 3431.21 666.100   5
  -3  -7   5 2632.98 602.990   2
   3   7  -5 2999.02 539.559   3
  -3   7   5 2778.24 508.673   3
   3  -7  -4 133.484 150.692   2
  -3   7   4 157.206 89.6537   3
  -3  -7   4-211.063 174.205   2
   3  -7  -4 131.079 168.867   5
   3   7  -4-31.3215 106.252   3
   3  -7  -3 14412.0 1277.15   2
  -3  -7   3 13083.9 1338.39   2
   3   7  -3 14835.7 1161.36   3
   3  -7  -3 15985.0 1418.23   5
  -3   7   3 14748.9 1189.38   3
  -3   7   2-68.2876 118.815   3
   3  -7  -2-58.1405 94.7028   2
  -3  -7   2-92.1655 57.8956   2
   3   7  -2-34.0321 89.4511   3
   3  -7  -2 116.801 85.7273   5
  -3  -7   1 138.939 150.780   2
   3   7  -1 92.4280 68.4782   3
  -3   7   1 88.8620 135.294   3
   3  -7  -1 177.088 232.169   5
   3  -7  -1 350.570 184.578   2
   3  -7   0 505.029 288.117   2
  -3  -7   0 257.030 159.959   2
  -3   7   0 258.325 109.479   3
   3  -7   0 323.178 236.072   5
   3   7   0 654.323 288.915   3
  -3   7  -1 28087.6 1696.25   3
   3  -7   1 25299.8 1801.25   2
   3   7   1 26580.5 1494.23   3
   3  -7   1 29377.5 1923.64   5
  -3  -7  -1 26972.1 1832.45   2
   3  -7   2 4.10487 133.123   5
  -3  -7  -2 34.3616 101.911   2
  -3   7  -2 126.846 130.856   3
   3  -7   2-22.6192 74.2521   2
   3   7   2 112.003 105.373   3
   3  -7   3 71.7289 139.645   5
   3  -7   3-12.4899 68.3142   2
   3   7   3-67.5638 55.4768   3
  -3  -7  -3-32.9135 93.8635   2
  -3   7  -3 63.3807 154.752   3
  -3  -7  -4-130.199 143.898   2
  -3   7  -4 186.622 195.926   3
   3  -7   4-22.3229 106.507   2
   3   7   4-65.8442 36.8344   3
   3  -7   4 256.767 232.989   5
   3   7   5 6942.35 729.539   3
   3  -7   5 7394.78 965.589   5
  -3   7  -5 7240.22 903.780   3
  -3  -7  -5 6676.19 861.496   2
   3  -7   5 7187.85 1007.12   2
  -3   7  -6 195.739 192.915   3
   3  -7   6 12.5757 61.9055   2
   3  -7   6 112.562 180.578   5
   3   7   6 150.575 129.646   3
  -3  -7  -6 78.9854 43.4534   2
   3  -7   7-72.1738 57.3595   2
   3   7   7 35.2486 95.6653   3
  -3  -7  -7-79.3039 150.294   2
  -3   7  -7 44.9379 90.9267   3
   3  -7   7-145.974 219.608   5
  -3  -7  -8-225.161 152.884   2
   3  -7   8 107.639 102.889   5
   3  -7   8 147.160 131.785   2
  -3   7  -8-86.9633 100.446   3
   3   7   8-28.8214 84.1500   3
   3   7   9 37619.7 1633.65   3
  -3  -7  -9 36946.4 1904.60   2
  -3   7  -9 35836.8 2053.96   3
   3  -7   9 31468.3 2177.92   2
   3  -7   9 35484.9 2133.19   5
   3   7  10 184.873 140.779   3
   3  -7  10-71.8569 197.111   2
  -3  -7 -10 122.697 126.522   2
  -3   7 -10 216.075 139.158   3
   3  -7  10 107.483 221.082   5
   3   7  11 688.793 219.107   3
  -3  -7 -11 631.354 248.902   2
  -3   7 -11 1126.32 391.849   3
   3  -7  11 680.990 326.592   2
   3  -7  12-245.214 211.063   2
   3   7  12-120.279 101.562   3
  -3   7 -12-121.786 119.511   3
  -3  -7 -12 255.705 152.612   2
  -3   7 -13 6629.58 921.083   3
   3   7  13 6851.89 665.735   3
   3  -7  13 6719.17 1038.90   2
  -3  -7 -13 7722.51 814.727   2
   3   7  14-22.4140 32.6293   3
   3   7  14 99.7013 87.4868   7
  -3   7 -14-62.4450 91.5563   3
  -3  -7 -14-12.8776 54.4702   2
  -3   7 -15 3180.31 664.419   3
   3  -7  15 3684.99 801.575   2
  -3  -7 -15 3595.31 539.218   2
   3  -7  16 859.236 415.976   2
  -3   7 -16 461.750 259.731   3
   3  -7  17 9957.34 1319.43   2
  -3   7 -17 9510.96 1192.59   3
  -3   7 -18 114.702 188.583   3
   3  -7  18 134.710 66.8356   2
  -3   7 -19 2316.79 604.706   3
   3  -7  19 3179.06 721.993   7
   3  -7  19 2553.54 687.640   2
  -3   7 -20 88.8425 208.918   3
   3  -7  20-345.007 250.933   7
   3  -7  20-198.504 189.465   2
   3  -7  21 2084.52 614.632   7
   3  -7  21 3156.50 779.410   2
  -3   7 -21 2190.61 586.776   3
   3  -7  22-39.0577 106.195   7
   3  -7  22 348.454 299.594   2
  -3   7 -22-3.12505 136.877   3
  -3   7 -23 4440.95 880.924   3
   3  -7  23 4722.26 978.644   2
   3  -7  23 4278.33 885.642   7
  -3   7 -24-210.337 196.872   3
   3  -7  24 268.114 304.172   2
   3  -7  24 227.048 279.756   7
  -3   7 -25 8595.99 1248.75   3
  -3  -9  18 380.361 289.549   2
   3   9 -17 10935.1 1373.08   3
  -3  -9  17 9329.70 1506.44   2
  -3  -9  16 291.875 324.137   2
   3   9 -16 250.089 228.073   3
   3   9 -15 7445.41 1107.03   3
  -3  -9  15 7090.73 1278.19   2
  -3   9  14-110.249 117.728   3
   3   9 -14-229.900 199.693   3
  -3  -9  14 269.783 237.532   2
  -3   9  13 5459.08 809.286   3
  -3  -9  13 5603.17 1136.70   2
   3   9 -13 6462.79 1007.96   3
   3  -9 -13 5743.91 1030.27   5
   3  -9 -12 60.7060 200.755   5
   3   9 -12-155.208 244.021   3
  -3   9  12 188.183 156.697   3
  -3  -9  12 109.112 78.9551   2
  -3  -9  11 3983.98 943.025   2
  -3   9  11 3217.31 628.395   3
   3  -9 -11 4076.02 870.347   5
   3   9 -11 4068.62 781.504   3
  -3  -9  10 141.076 103.526   2
   3   9 -10 90.1781 82.6212   3
  -3   9  10-50.6431 127.349   3
   3  -9 -10 313.105 221.892   5
  -3  -9   9 2303.91 709.430   2
   3  -9  -9 3325.16 780.881   5
   3   9  -9 3038.77 658.032   3
  -3   9   9 3113.90 628.752   3
  -3   9   8 471.100 230.597   3
   3   9  -8 434.801 295.891   3
   3  -9  -8 214.204 239.079   5
  -3  -9   8-222.476 221.593   2
   3   9  -7 17566.4 1557.46   3
  -3  -9   7 14174.6 1734.25   2
  -3   9   7 16436.0 1448.00   3
   3  -9  -7 15404.8 1692.46   5
   3   9  -6 566.945 297.915   3
  -3   9   6-28.5401 150.360   3
   3  -9  -6 220.410 219.521   5
  -3  -9   6 43.7453 118.573   2
   3   9  -5 1027.56 340.709   3
  -3  -9   5 1427.75 537.504   2
  -3   9   5 1812.25 500.854   3
   3  -9  -4-200.007 148.367   5
  -3  -9   4-98.9640 242.335   2
   3  -9  -4 177.512 135.487   2
  -3   9   4 206.130 156.067   3
   3   9  -4 91.4319 214.087   3
  -3  -9   3 6625.45 1128.46   2
   3  -9  -3 9372.76 1175.40   2
   3  -9  -3 8619.56 1251.94   5
  -3   9   3 7477.18 998.398   3
   3   9  -3 8283.90 1032.18   3
  -3  -9   2-168.173 261.784   2
  -3   9   2-211.724 196.183   3
   3   9  -2-30.9087 71.0912   3
   3  -9  -2 324.029 321.322   5
   3  -9  -2 107.011 123.225   2
  -3  -9   1 163.001 125.303   2
  -3   9   1 155.066 92.2760   3
   3  -9  -1 136.873 156.925   2
   3   9  -1 23.4709 67.6238   3
   3  -9  -1 285.677 212.782   5
  -3  -9   0 345.868 275.610   2
   3  -9   0 354.998 295.960   2
   3  -9   0 644.059 370.102   5
   3   9   0 697.415 311.156   3
  -3   9   0 721.273 321.666   3
   3  -9   1 17529.0 1790.53   2
   3  -9   1 23818.2 2071.51   5
   3   9   1 22019.1 1616.66   3
  -3  -9  -1 19590.9 1857.09   2
  -3   9  -1 22423.5 1767.16   3
  -3  -9  -2 23.7928 59.5430   2
  -3   9  -2-54.5310 97.2129   3
   3   9   2 113.163 134.332   3
   3  -9   2 9.65193 118.028   2
  -3  -9  -3 2.29566 156.387   2
   3   9   3 100.528 119.006   3
   3  -9   3 255.544 233.175   2
  -3   9  -3 82.6663 81.1967   3
  -3  -9  -4-11.1013 69.3683   2
  -3   9  -4 148.435 150.186   3
   3  -9   4 13.8949 59.4667   2
   3   9   4-95.0108 107.488   3
  -3   9  -5 4424.11 799.814   3
  -3  -9  -5 3899.25 769.213   2
   3  -9   5 2680.17 743.390   2
   3   9   5 4729.50 713.603   3
  -3  -9  -6 75.9827 108.143   2
  -3   9  -6 142.025 174.420   3
   3  -9   6-175.296 251.996   2
  -3  -9  -7 278.609 237.836   2
   3  -9   7 349.724 269.199   2
   3   9   7-32.0782 146.855   3
  -3   9  -7 219.315 240.432   3
   3  -9   8 93.6017 161.709   2
  -3   9  -8 262.791 188.965   3
   3   9   8 46.9502 60.7570   3
  -3   9  -9 17166.5 1647.74   3
   3  -9   9 15607.8 1844.97   2
  -3   9 -10 46.2389 177.602   3
   3  -9  10 8.30162 176.708   2
  -3   9 -11 584.444 341.240   3
   3  -9  11 525.857 343.819   2
  -3   9 -12 8.66523 126.848   3
   3  -9  12 208.052 209.401   2
   3  -9  13 5142.42 1091.95   2
  -3   9 -13 4294.30 847.121   3
  -3   9 -14-92.8698 219.839   3
   3  -9  14 99.5110 120.115   2
  -3   9 -15 3489.40 798.152   3
   3  -9  15 3017.78 827.198   2
   3  -9  16 140.265 188.993   2
  -4   0  37 309.730 214.476   1
  -4   0  36 231.030 181.219   7
  -4   0  36-35.8550 140.404   1
  -4   0  35 271.714 201.315   7
  -4   0  35-173.544 205.365   1
  -4   0  34 13048.3 1328.23   1
  -4   0  34 12208.9 1190.20   7
  -4   0  33 92.3163 151.267   1
  -4   0  33-21.5057 87.5912   7
  -4   0  32 304.352 165.466   7
  -4   0  32 273.241 151.614   1
  -4   0  31 13.5105 69.3180   7
  -4   0  30 19662.4 1374.95   7
  -4   0  29 168.428 154.217   7
  -4   0  28 3331.25 544.014   7
  -4   0  27-54.7851 63.1949   7
  -4   0  26 18573.1 1203.73   7
  -4   0  25 276.057 183.239   7
  -4   0  24 4187.24 542.157   7
   4   0 -24 2563.10 179.559   5
  -4   0  23 32.5193 73.4142   7
   4   0 -23 27.4150 28.8233   5
   4   0 -22 18206.9 665.524   4
  -4   0  22 18469.9 1072.84   7
  -4   0  21 98.1383 103.466   7
   4   0 -21 54.8414 51.0448   4
  -4   0  20 15736.6 924.860   7
   4   0 -20 16198.4 696.423   4
   4   0 -19 23.5356 50.7657   4
  -4   0  19 96.6266 96.3767   7
  -4   0  18 15201.1 851.793   7
  -4   0  17 101.215 97.7817   7
   4   0 -17-71.8361 59.6615   7
  -4   0  16 2901.06 350.666   7
   4   0 -16 3387.44 391.675   7
  -4   0  15 43.6821 80.1516   7
   4   0 -15-15.7504 37.1592   7
   4   0 -14 10926.5 650.432   7
  -4   0  14 9717.43 584.549   7
  -4   0  13-6.97689 28.2999   7
   4   0 -13-18.5747 30.8530   7
  -4   0  12 7015.18 451.751   7
   4   0 -12 7423.43 486.193   7
   4   0 -11 86.6905 57.5037   7
  -4   0  11-7.07117 22.7027   7
   4   0 -10 9405.08 485.009   7
  -4   0  10 8895.85 463.800   7
  -4   0   9 26.2437 35.3031   7
   4   0  -9-12.8624 29.8365   7
  -4   0   8 23866.2 675.442   7
  -4   0   8 25096.9 776.677   1
   4   0  -8 24817.8 703.829   7
  -4   0   7-66.9976 41.8823   7
  -4   0   7 32.3697 32.3151   2
  -4   0   7-13.9164 42.4283   1
  -4   0   6 19629.5 612.661   1
  -4   0   6 20505.4 555.283   2
  -4   0   5 13.6007 25.1557   1
  -4   0   5 10.0822 16.3379   2
  -4   0   4 88738.4 1171.07   1
  -4   0   4 104234. 1192.91   2
  -4   0   3 16.7148 10.3541   2
  -4   0   2 15484.1 476.661   2
  -4   0   1-5.49798 9.66560   2
  -4   0   0 48313.8 888.198   2
   4   0   1-21.8984 28.0110   7
   4   0   2 38665.6 839.382   7
  -4   0  -2 40426.1 582.874   3
   4   0   3 3.88605 14.2042   3
   4   0   3-1.89094 23.1939   7
  -4   0  -3 22.5629 11.3857   3
  -4   0  -4 54942.3 763.085   3
   4   0   4 56430.3 1142.50   7
   4   0   4 56695.8 738.606   3
  -4   0  -5-33.3124 39.0907   3
   4   0   5-52.5367 38.7786   3
   4   0   6-32.0709 36.2343   3
  -4   0  -6 53.8555 33.0391   3
   4   0   6-48.4642 60.0661   7
   4   0   7-9.65689 17.2820   3
  -4   0  -7 1.75163 27.9592   3
   4   0   7 44.9304 40.3358   7
   4   0   7 8.34472 14.8577   4
   4   0   8 23975.3 468.352   4
   4   0   8 26664.8 945.600   7
  -4   0  -8 24889.7 683.227   3
   4   0   8 24627.9 675.311   3
  -4   0  -9-58.6519 37.3703   3
   4   0   9-66.9812 55.8342   7
   4   0   9-26.3406 31.8063   3
   4   0  10 2074.64 218.710   3
   4   0  10 2120.88 289.603   7
   4   0  11-38.1134 46.1702   7
   4   0  11-7.16593 18.6594   3
   4   0  12 36678.1 1303.41   7
   4   0  12 36749.1 1010.09   3
   4   0  13-53.7237 63.1152   7
   4   0  13 20.0252 38.2033   3
   4   0  14 2696.86 300.084   3
   4   0  14 2664.48 379.596   7
   4   0  15-69.1961 51.0583   3
   4   0  15-68.1096 80.2689   7
   4   0  16 9637.32 770.045   7
   4   0  16 9798.75 617.872   3
   4   0  17 0.59458 56.4598   7
   4   0  17 55.3959 79.5222   3
   4   0  18 6219.12 523.438   3
   4   0  18 6247.17 652.092   7
   4   0  19 15.8681 63.3656   3
   4   0  19 109.349 103.126   7
   4   0  20 28735.9 1477.45   7
   4   0  21-62.1868 81.7002   7
   4   0  22 13048.0 1051.13   7
   4   0  23 53.3631 57.9750   7
   4   0  24 2580.82 498.960   7
   4   0  25 219.721 165.361   7
   4   0  26 3034.51 554.507   7
   4   0  27-18.0637 96.1361   7
   4   0  28 7147.66 894.598   7
   4   0  29-98.0013 146.043   7
   4   0  30 9174.08 1053.57   7
   4   0  31 137.379 137.543   7
   4   0  32 632.930 291.198   7
   4   0  33 300.219 228.641   7
   4   0  34 11587.5 1307.46   7
   4   0  35 311.441 236.494   7
   4   0  36 1673.74 478.932   7
  -4  -2  38 6159.22 1006.88   7
  -4  -2  37 288.280 208.803   7
  -4   2  36 674.557 336.356   1
  -4  -2  36 623.568 321.345   7
  -4  -2  35-101.940 168.362   7
  -4   2  35 27.4956 45.0174   1
  -4  -2  34 12914.5 1362.95   7
  -4   2  34 11924.0 1307.72   1
  -4   2  33 335.782 245.044   1
  -4  -2  33-14.1125 48.3981   7
  -4  -2  32 1542.47 450.266   7
  -4   2  32 1419.85 423.647   1
  -4   2  31 24.3700 50.8868   7
  -4   2  31 52.6226 52.0145   1
  -4  -2  31 78.9107 97.2486   7
  -4   2  30 13015.3 987.563   7
  -4   2  30 12428.3 1201.23   1
  -4  -2  30 14004.5 1298.40   7
  -4   2  29 48.9628 113.900   7
  -4   2  29 88.6128 159.587   1
  -4  -2  29-5.39094 117.348   7
  -4   2  28 2697.53 424.089   7
  -4   2  28 2447.98 500.736   1
  -4  -2  28 2317.81 503.888   7
  -4   2  27 318.467 141.172   7
  -4  -2  27 317.389 223.327   7
  -4   2  27 409.732 218.593   1
  -4   2  26 13834.8 917.161   7
  -4  -2  26 13870.6 1189.93   7
  -4   2  26 13181.4 1127.18   1
  -4   2  25 35.3682 62.9258   7
  -4   2  25 117.823 89.6472   1
   4  -2 -25 94.2373 51.4504   5
  -4  -2  25 69.6211 147.437   7
  -4   2  24 362.911 149.374   7
  -4   2  24 155.223 148.963   1
   4  -2 -24 157.131 70.2616   5
  -4  -2  24 504.403 206.342   7
   4   2 -23 60.3860 40.0041   5
  -4   2  23 43.3730 68.4425   7
  -4  -2  23 111.730 140.587   7
   4  -2 -23 21.6381 17.4502   5
  -4   2  23 279.407 188.002   1
  -4  -2  22 13721.5 1064.67   7
  -4   2  22 14160.7 804.043   7
  -4   2  22 11281.3 748.116   2
   4   2 -22 12132.2 723.866   5
   4  -2 -22 13034.2 661.150   5
  -4   2  22 13829.4 1039.83   1
   4  -2 -21 205.458 91.4788   5
  -4  -2  21 145.702 114.904   7
  -4   2  21 124.666 94.0099   2
  -4   2  21 293.171 182.553   1
   4  -2 -21 1.54039 11.5418   7
   4   2 -21 226.361 101.600   5
  -4   2  21 246.673 127.459   7
  -4   2  20 6486.67 500.531   7
   4  -2 -20 6061.25 514.365   7
  -4   2  20 6048.59 645.147   1
  -4   2  20 5695.75 487.546   2
   4   2 -20 6184.19 523.691   5
  -4  -2  20 6488.44 694.756   7
   4   2 -19 265.421 119.683   5
  -4   2  19 634.068 201.823   1
  -4   2  19 314.296 107.646   2
  -4  -2  19 506.844 217.903   7
   4  -2 -19 402.846 131.219   7
  -4   2  19 273.746 87.8965   7
   4  -2 -18 15738.2 753.671   7
   4   2 -18 15413.3 834.648   5
  -4  -2  18 16007.6 1056.11   7
  -4   2  18 17360.9 1046.47   1
  -4   2  18 14867.8 715.290   2
  -4   2  18 16296.4 733.899   7
  -4  -2  17 119.999 133.708   7
  -4   2  17 85.1581 120.431   1
   4  -2 -17 30.5400 37.6027   7
  -4   2  17 32.1200 41.3574   2
   4   2 -17 10.3173 37.5541   5
  -4   2  17 19.5278 42.7796   7
  -4  -2  16 3277.80 451.453   7
   4   2 -16 3276.47 380.250   5
  -4   2  16 2974.37 290.425   2
  -4   2  16 3403.02 300.641   7
  -4   2  16 3309.12 427.722   1
   4   2 -15 3.03084 40.3832   5
  -4   2  15 77.3061 40.6607   2
  -4   2  15 53.0251 45.8393   7
  -4  -2  15 83.8188 60.4534   7
  -4   2  15 161.176 115.352   1
  -4   2  14 23150.9 1079.93   1
  -4   2  14 22644.8 681.180   7
   4   2 -14 23200.5 999.083   5
  -4   2  14 22283.7 696.491   2
  -4  -2  14 23675.5 1157.38   7
  -4  -2  13 35.9488 88.8600   7
  -4   2  13 34.7389 16.0196   2
  -4   2  13 14.1243 59.4821   1
   4   2 -13 25.5356 42.8010   5
  -4   2  13 173.059 78.7719   7
  -4   2  12 52913.6 1523.51   1
  -4   2  12 52740.8 1454.47   4
   4   2 -12 52548.7 1478.87   5
  -4   2  12 44100.9 843.671   2
  -4   2  12 51245.6 859.581   7
   4   2 -12 52886.4 1654.22   3
  -4  -2  12 54187.2 1664.19   7
  -4  -2  11-130.177 123.989   7
  -4   2  11 63.3808 33.4191   1
   4   2 -11 172.994 148.833   3
  -4   2  11 89.1627 46.2745   7
  -4   2  11-1.34528 16.6254   2
   4   2 -11-19.7211 45.7844   5
  -4   2  11 51.9106 54.6718   4
   4   2 -10 6125.37 524.967   3
  -4   2  10 4476.89 205.818   2
  -4   2  10 6234.93 493.689   1
  -4   2  10 6183.02 233.332   7
  -4  -2  10 6925.49 574.280   2
  -4  -2  10 6114.63 530.680   7
  -4   2  10 6473.53 503.239   4
   4   2  -9 37.8569 35.4291   3
  -4   2   9 64.9544 40.6952   4
  -4  -2   9 22.0469 33.1128   2
  -4   2   9-36.1892 57.1814   1
  -4   2   8 6639.80 494.868   4
  -4  -2   8 6680.96 539.276   2
   4   2  -8 6219.22 500.700   3
  -4   2   8 6054.99 460.723   1
   4   2  -7 8.78058 37.3957   3
  -4   2   7 39.8408 54.0295   1
  -4   2   7 43.8606 60.2374   4
  -4  -2   7-2.35732 44.4615   2
   4   2  -6 9561.13 572.046   3
  -4   2   6 9381.06 581.617   4
  -4   2   6 9387.07 524.639   1
   4  -2  -6 7154.02 278.844   2
  -4  -2   6 9811.78 634.084   2
   4   2  -5 53.9357 72.1658   3
  -4   2   5 68.7731 54.2845   1
   4  -2  -5-16.5629 20.9009   2
  -4  -2   5 33.6154 64.4387   2
   4   2  -4 5937.65 407.934   3
  -4  -2   4 5166.18 455.469   2
  -4   2   4 5297.69 212.978   7
  -4   2   4 5227.72 350.141   6
  -4   2   4 5863.34 379.604   1
   4   2  -3 113.843 65.5221   3
  -4  -2   3 120.674 65.8756   2
  -4   2   3 205.879 76.5424   1
  -4   2   3 109.911 51.8110   6
  -4   2   3 161.855 58.8185   3
  -4   2   3 162.724 47.7729   7
   4  -2  -3 226.632 63.2576   7
  -4   2   2 11692.0 411.045   7
   4   2  -2 12045.3 536.586   3
  -4   2   2 12870.6 614.027   3
  -4   2   2 12763.4 550.540   6
  -4  -2   2 12354.2 696.352   2
   4  -2  -2 12431.5 451.747   7
  -4   2   1 762.057 116.168   6
  -4  -2   1 595.258 143.372   2
   4  -2  -1 741.741 114.324   7
  -4  -2   1 734.164 130.702   3
  -4   2   1 660.036 112.789   7
  -4   2   1 611.403 122.616   3
   4   2  -1 725.649 130.542   3
  -4   2   0 87394.6 1617.01   3
  -4  -2   0 84521.0 1316.46   3
   4   2   0 84722.3 1275.58   3
  -4   2   0 82086.4 1286.99   7
   4  -2   0 86849.8 1388.20   7
  -4  -2   0 85076.7 1787.65   2
  -4   2   0 86646.8 1476.22   6
   4   2   1 10363.8 425.928   3
  -4   2  -1 10353.9 572.765   3
  -4  -2  -1 10143.4 427.654   3
   4  -2   1 10988.3 518.292   7
  -4  -2  -1 10767.4 637.301   2
  -4   2  -1 10829.2 497.486   7
   4   2   2 11536.3 664.938   2
   4  -2   2 9902.32 527.192   7
   4   2   2 10571.6 391.586   3
  -4   2  -2 10382.2 582.746   3
  -4   2  -2 11307.6 536.970   7
   4   2   2 11515.4 605.135   5
  -4  -2  -2 11536.0 661.816   2
  -4  -2  -2 10538.9 406.685   3
  -4   2  -3 160.827 37.1538   3
   4   2   3 311.970 67.4479   3
   4   2   3 200.306 72.9007   5
  -4  -2  -3 246.180 57.0518   3
   4   2   3 333.392 118.501   2
   4  -2   3 405.314 151.231   7
  -4   2  -3 305.936 95.2426   7
  -4  -2  -3 180.258 69.4968   2
   4   2   4 118322. 1914.74   5
   4   2   4 115728. 1161.15   3
   4   2   4 127481. 2283.51   2
  -4   2  -4 119559. 1929.76   7
  -4   2  -4 115661. 2015.10   3
  -4  -2  -4 117461. 2071.51   2
   4  -2   4 114335. 1968.97   7
   4  -2   5 57.9860 60.2751   5
  -4  -2  -5 18.1173 21.4579   2
   4   2   5-29.1710 62.6827   2
   4  -2   5 3.86782 28.8941   3
   4   2   5-45.0573 46.3868   5
   4   2   5-7.40058 20.9171   3
  -4   2  -6 380.142 119.673   3
   4   2   6 212.777 75.6617   5
   4  -2   6 338.178 133.501   7
   4  -2   6 316.546 109.688   3
   4   2   6 316.261 120.919   2
  -4   2  -6 293.692 101.615   4
   4   2   6 245.860 46.5235   3
  -4  -2  -6 199.129 74.2745   2
   4  -2   6 247.313 92.0670   5
  -4   2  -7 59.4692 56.0282   4
   4   2   7 89.4289 23.3273   2
   4   2   7 42.6989 21.6733   3
   4   2   7 147.739 68.0142   5
  -4  -2  -7 6.79923 41.7080   2
  -4   2  -7 27.7342 44.0064   3
   4  -2   7 132.390 102.641   7
   4  -2   7 44.4859 62.9120   3
   4  -2   7-14.7598 44.3142   5
   4   2   8 11133.7 565.196   5
   4   2   8 12600.4 779.755   2
  -4  -2  -8 11629.1 679.236   2
   4  -2   8 11224.3 724.575   7
   4  -2   8 12108.3 700.974   3
   4  -2   8 10987.4 606.329   5
   4   2   8 11513.2 625.998   7
   4   2   8 10820.2 325.128   3
  -4   2  -8 10180.1 595.914   4
  -4   2  -8 11259.6 686.394   3
   4   2   9-32.0072 74.3246   7
   4  -2   9 38.8562 82.2971   3
   4   2   9 9.02899 26.8858   2
  -4   2  -9-33.4467 73.7250   3
   4   2   9 46.3027 31.3350   5
   4   2   9 5.76413 13.1206   3
   4  -2   9-40.2673 82.4798   7
   4  -2   9-9.81726 35.7351   5
  -4   2  -9 28.7387 16.0938   4
   4   2  10-49.8649 63.9331   2
   4  -2  10 41.8617 32.5316   3
  -4   2 -10-45.4856 54.6604   3
   4  -2  10 60.7637 100.465   7
   4   2  10 43.5681 17.6496   5
  -4   2 -10 29.7993 19.9785   4
   4   2  10-24.4843 57.3511   7
   4  -2  10 64.4146 45.4726   5
   4  -2  11 485.063 200.257   7
   4   2  11 460.072 141.964   7
   4  -2  11 144.230 71.5799   3
  -4   2 -11 303.457 123.775   3
  -4   2 -11 283.595 99.0163   4
   4  -2  11 103.265 35.3341   5
   4   2  11 257.242 113.935   2
   4   2  12 41252.8 823.950   3
   4   2  12 46249.9 1618.46   2
   4  -2  12 44906.8 1630.22   7
   4  -2  12 44081.7 1186.55   5
  -4   2 -12 39688.6 1170.21   4
   4   2  12 44973.2 1408.34   7
  -4   2 -12 44952.7 1523.10   3
   4   2  13 98.1520 40.5941   3
  -4   2 -13 114.840 71.2661   3
   4  -2  13 99.3679 124.027   7
  -4   2 -13 120.796 57.7976   4
   4  -2  13-49.3726 50.9434   5
   4   2  13 156.759 108.875   7
  -4   2 -14 5172.58 549.515   3
   4   2  14 5012.09 496.988   7
   4   2  14 4692.09 307.636   3
   4  -2  14 5265.94 594.891   7
  -4   2 -14 4480.16 387.116   4
   4  -2  15 317.241 175.231   7
   4   2  15 90.5188 48.5150   3
   4   2  15 99.6585 47.6324   4
  -4   2 -15 105.179 106.966   3
   4   2  15-19.1143 93.1767   7
  -4   2 -15 129.359 64.5724   4
   4   2  16 10134.1 735.649   7
   4   2  16 8672.48 457.213   3
   4  -2  16 9817.30 849.538   7
  -4   2 -16 8918.81 751.690   3
   4   2  16 8269.29 371.990   4
  -4   2 -16 8538.06 534.600   4
   4  -2  17 28.1526 63.4515   7
   4   2  17 57.6117 66.7784   7
   4   2  17 53.2120 32.4387   3
  -4   2 -17 124.563 101.148   3
  -4   2 -17 36.1545 32.8548   4
  -4   2 -18 6383.00 671.044   3
   4   2  18 6031.29 406.631   3
   4   2  18 6161.53 616.670   7
   4  -2  18 6246.57 721.504   7
  -4   2 -19-35.4663 57.6060   3
   4   2  19 50.9082 37.5578   3
   4  -2  19 122.729 124.193   7
   4   2  19 31.6997 60.8268   7
   4   2  20 13517.7 968.597   7
   4  -2  20 13883.5 1121.89   7
   4  -2  21 176.773 140.851   7
   4   2  21 68.4913 45.3229   7
   4   2  22 6368.65 701.685   7
   4  -2  22 6635.41 824.008   7
   4   2  23 121.022 87.6844   7
   4  -2  23-23.2746 129.796   7
   4  -2  24 2985.97 566.678   7
   4   2  24 2932.85 491.955   7
   4   2  25-83.0422 99.2046   7
   4  -2  25-1.06866 169.353   7
   4  -2  26 8595.92 1018.71   7
   4   2  26 8663.52 887.207   7
   4  -2  27 30.4127 55.1770   7
   4   2  27 255.269 147.413   7
   4  -2  28 16010.8 1455.53   7
   4   2  28 17576.9 1331.62   7
   4  -2  29 537.671 314.739   7
   4   2  29 223.385 208.568   7
   4  -2  30 15480.5 1492.05   7
   4   2  30 13934.8 1244.13   7
   4  -2  31-68.4515 75.4935   7
   4   2  31 25.8994 60.3904   7
   4  -2  32 66.8949 135.365   7
   4   2  32 422.963 239.481   7
   4  -2  33 160.357 148.580   7
   4   2  33 347.892 207.732   7
   4  -2  34 6044.54 1018.08   7
  -4  -4  36 141.120 238.389   2
  -4   4  35 76.1833 137.851   1
  -4  -4  35-179.609 261.445   7
  -4  -4  35 200.462 183.829   2
  -4  -4  34 8375.68 1221.79   2
  -4   4  34 9446.42 1193.24   1
  -4  -4  34 8498.41 1212.42   7
  -4  -4  33 275.934 244.790   2
  -4   4  33 201.141 153.056   1
  -4  -4  33 238.110 245.778   7
  -4   4  32 370.729 200.011   1
  -4  -4  32 1095.62 389.668   7
  -4  -4  32 563.789 283.488   2
  -4  -4  31 250.356 146.809   7
  -4  -4  31 73.5282 132.420   2
  -4   4  31 191.881 221.770   1
  -4  -4  30 10438.1 1285.42   2
  -4  -4  30 12186.0 1372.32   7
  -4   4  30 12697.2 1260.81   1
  -4  -4  29-73.5577 136.410   7
  -4   4  29-47.7122 122.806   1
  -4  -4  29 18.4024 91.4404   2
  -4  -4  28 1760.86 497.390   2
  -4  -4  28 2640.01 621.474   7
  -4   4  28 1957.11 471.465   1
  -4   4  27 391.277 213.381   1
  -4  -4  27 597.137 287.108   7
  -4  -4  26 12924.0 1315.40   7
  -4   4  26 12583.7 1160.94   1
   4  -4 -25-111.834 84.4267   5
  -4   4  25 233.482 170.176   1
  -4  -4  25-103.381 172.133   7
  -4   4  24-129.603 102.745   1
  -4  -4  24-137.579 224.268   7
   4  -4 -24 144.568 95.3613   5
   4  -4 -23 98.9664 97.2008   5
  -4  -4  23 323.890 223.309   7
  -4   4  23 202.745 80.4788   7
  -4   4  23-3.88922 92.3040   1
  -4  -4  22 18235.0 1452.60   7
  -4   4  22 16175.1 1198.66   1
  -4   4  22 18526.7 773.739   7
   4  -4 -22 16910.8 1058.80   5
  -4   4  21 232.869 174.071   1
  -4  -4  21 537.046 303.729   7
   4  -4 -21 39.4756 30.7862   5
  -4   4  21 272.884 91.2363   7
  -4  -4  20 9329.38 985.170   7
  -4   4  20 8000.70 462.912   7
  -4   4  20 6911.73 765.743   1
   4  -4 -20 8587.73 761.425   5
   4   4 -20 7570.43 887.812   3
  -4  -4  20 8907.63 991.997   2
  -4  -4  19 367.020 220.523   7
  -4   4  19 549.102 118.000   7
   4  -4 -19 601.882 207.329   5
  -4  -4  19 504.960 274.465   2
  -4   4  19 442.812 189.607   1
   4   4 -19 292.689 141.597   3
  -4   4  19 387.950 104.806   2
  -4   4  18 12435.5 526.195   7
   4  -4 -18 11559.0 889.710   5
   4   4 -18 11403.9 1037.60   3
  -4  -4  18 11100.5 1034.93   7
  -4   4  18 12187.7 563.992   2
  -4   4  18 11516.5 936.437   1
  -4  -4  18 12123.4 1108.78   2
   4   4 -17-77.6186 93.2051   3
  -4   4  17-22.5560 34.0363   2
  -4   4  17 5.66189 57.5877   1
  -4  -4  17-87.7057 134.285   7
   4  -4 -17-56.8060 124.762   5
  -4   4  17-30.6683 42.1032   7
  -4  -4  17 100.699 186.016   2
  -4  -4  16 4193.04 631.648   2
  -4   4  16 3386.99 250.490   7
  -4   4  16 3371.11 475.750   1
  -4  -4  16 3033.99 513.066   7
   4   4 -16 3328.11 549.298   3
   4  -4 -16 3126.26 466.096   5
  -4   4  16 3295.82 276.366   2
  -4  -4  15-32.1822 66.0439   2
   4   4 -15 173.485 144.235   3
  -4   4  15-50.9952 31.5517   7
  -4   4  15 28.8702 13.9351   2
  -4   4  15-93.6069 143.538   1
  -4  -4  14 12855.9 1078.20   2
   4   4 -14 10984.4 945.378   3
  -4   4  14 12736.9 525.073   2
  -4   4  14 11823.8 427.796   7
   4  -4 -14 12687.2 943.264   5
  -4   4  14 12332.9 881.248   1
   4   4 -13 117.680 108.310   3
  -4   4  13-97.0279 113.023   1
   4  -4 -13-28.1701 38.5742   5
  -4   4  13 2.49519 65.9251   3
  -4   4  13 0.55564 10.7853   7
  -4  -4  13-130.999 85.8169   2
  -4   4  12 22565.8 1103.85   1
  -4   4  12 21895.5 1084.04   3
  -4   4  12 22087.0 567.043   7
   4  -4 -12 21609.5 677.673   2
  -4  -4  12 23958.7 1420.88   2
   4   4 -12 22236.6 1270.27   3
   4  -4 -12 21090.6 1215.30   5
   4   4 -11-16.3809 64.8571   3
  -4  -4  11-68.9401 92.6953   2
  -4   4  11 15.8078 12.0611   7
   4  -4 -11 47.9445 30.0159   2
  -4   4  11-23.8162 54.0433   1
  -4   4  11 2.88800 30.0346   3
  -4   4  11-6.00555 25.8981   7
  -4   4  10 8069.23 635.872   3
  -4  -4  10 8692.12 834.540   2
  -4   4  10 7713.42 374.882   7
  -4   4  10 7666.02 608.266   1
   4   4 -10 8697.78 749.665   3
   4  -4 -10 7537.25 710.205   5
   4  -4 -10 8284.26 465.408   2
   4  -4  -9-76.0735 64.2175   2
   4   4  -9-185.604 142.117   3
  -4   4   9 40.5082 31.4150   7
   4  -4  -9 86.2934 116.525   5
  -4  -4   9-73.5520 99.7658   2
  -4   4   9-32.1260 55.7678   1
  -4   4   9 58.4250 77.4845   3
   4   4  -8 9755.18 765.382   3
  -4   4   8 9413.63 641.363   1
   4  -4  -8 9672.88 558.315   2
  -4   4   8 8952.28 556.059   6
  -4  -4   8 9346.40 850.026   2
  -4   4   8 9987.47 709.290   3
  -4   4   8 8734.99 410.826   7
   4  -4  -8 9296.43 793.354   5
  -4   4   7 59.8962 63.8437   3
   4  -4  -7 24.9886 35.8870   1
  -4  -4   7-89.9677 139.360   2
   4  -4  -7 85.3404 28.7467   2
   4   4  -7 11.6045 70.1299   3
  -4   4   7 33.3297 33.1229   1
  -4   4   7-22.8919 52.9654   6
  -4   4   7 35.4631 29.5420   7
  -4   4   6 7657.36 552.198   1
   4  -4  -6 7695.06 569.916   2
  -4   4   6 7173.52 399.504   7
  -4   4   6 7935.20 634.041   3
   4  -4  -6 8295.56 754.815   5
   4   4  -6 7317.23 636.956   3
   4  -4  -6 8371.45 635.731   1
  -4  -4   6 7237.02 731.791   2
  -4   4   6 7887.52 510.411   6
  -4   4   5 92.4111 50.3613   6
  -4   4   5 56.7192 60.0169   3
   4  -4  -5 120.008 155.436   5
  -4  -4   5 177.707 109.742   2
   4  -4  -5 48.1082 50.8758   1
  -4   4   5 103.950 47.3502   7
   4   4  -5 44.7576 74.1458   3
   4  -4  -5 79.2114 45.8477   2
  -4   4   5 147.915 93.6917   1
  -4  -4   4 25083.4 604.789   1
  -4   4   4 29176.5 1237.86   3
  -4   4   4 28456.3 972.714   6
   4  -4  -4 31538.6 1175.97   1
   4  -4  -4 27560.0 1365.11   5
   4  -4  -4 26918.2 1125.99   2
  -4  -4   4 27255.0 1402.59   2
  -4   4   4 26902.3 846.291   7
   4   4  -4 28351.2 1188.15   3
  -4   4   3 45.8512 17.4074   7
   4  -4  -3 89.6342 67.4415   2
   4   4  -3 45.4220 88.1031   3
  -4   4   3-42.7087 81.0960   3
  -4  -4   3 116.466 100.068   2
   4  -4  -3 196.852 94.2750   1
   4  -4  -3 180.501 178.126   5
  -4  -4   3 64.0606 28.0259   1
  -4   4   3-69.9576 61.7088   6
   4   4  -2 4347.72 447.991   3
   4  -4  -2 4413.11 421.844   1
  -4  -4   2 3916.68 520.977   2
   4  -4  -2 4093.02 522.387   5
   4  -4  -2 4586.57 482.244   2
  -4  -4   2 3796.89 230.886   6
  -4   4   2 4229.26 475.853   3
  -4  -4   2 3518.32 201.135   1
  -4   4   2 4323.51 360.643   7
  -4  -4   1 268.174 148.415   2
   4  -4  -1 183.150 75.4625   6
  -4  -4   1 94.9318 31.5872   6
   4  -4  -1 12.1274 34.3103   2
  -4  -4   1 176.101 90.3509   3
   4  -4  -1 128.123 66.8450   1
   4  -4  -1 445.660 216.269   5
  -4   4   1 137.002 59.1625   7
  -4  -4   1 91.8941 29.5057   1
   4   4  -1 296.733 127.192   3
   4  -4   0 30690.1 1078.37   1
  -4  -4   0 28511.2 1400.86   2
   4  -4   0 30605.6 1093.35   6
   4  -4   0 33034.3 1484.65   5
  -4  -4   0 29898.3 1169.17   3
   4   4   0 28196.5 1094.58   3
  -4   4   0 29703.2 1283.46   3
   4  -4   0 29526.5 1201.85   7
  -4   4   0 29636.8 1044.49   7
  -4  -4  -1 5285.93 473.447   3
   4   4   1 4718.27 433.129   3
  -4   4  -1 4969.19 443.073   7
  -4   4  -1 4549.84 519.114   3
   4  -4   1 5181.89 586.854   5
   4  -4   1 5276.91 448.924   1
   4  -4   1 5013.68 458.816   6
  -4  -4  -1 4863.02 570.635   2
   4  -4   1 4878.74 488.854   7
   4   4   2 5159.37 444.192   3
  -4   4  -2 5401.17 467.741   7
  -4  -4  -2 5112.35 584.595   2
   4  -4   2 4934.79 510.147   7
  -4  -4  -2 4811.45 446.336   3
  -4   4  -2 5309.51 551.217   3
   4  -4   2 5027.04 581.439   5
   4  -4   2 4976.76 467.269   6
  -4   4  -3-46.4760 39.8967   7
  -4  -4  -3 36.8437 61.0535   2
   4   4   3-33.6034 72.9605   3
   4  -4   3 163.536 184.010   5
   4  -4   3-81.4131 91.9862   7
  -4  -4  -3-15.2137 53.2818   3
   4  -4   3 20.6694 52.0633   6
   4   4   3-33.9613 31.0358   1
  -4   4  -3-141.847 116.373   3
   4   4   4 74548.0 2146.36   2
  -4   4  -4 74344.9 2135.54   3
  -4  -4  -4 75797.6 1694.21   3
  -4  -4  -4 76392.5 2214.65   2
   4  -4   4 75393.2 2110.78   7
   4  -4   4 74283.6 2210.04   5
   4   4   4 73023.9 1611.13   3
   4   4   4 73815.3 1184.72   1
   4   4   5 24.4459 39.2318   3
   4  -4   5 129.765 119.833   7
  -4   4  -5-156.006 162.991   3
   4  -4   5-40.6417 132.445   5
   4   4   5 13.2919 23.4194   1
   4   4   6 786.173 154.506   3
   4   4   6 875.068 154.479   1
   4  -4   6 784.794 225.113   7
  -4  -4  -6 759.448 209.591   2
  -4   4  -6 1292.66 296.047   3
   4  -4   6 736.058 222.479   5
  -4  -4  -7 9.47455 34.7152   2
   4  -4   7 335.118 166.721   7
   4   4   7 189.755 90.1175   1
   4   4   7 198.200 95.4559   3
  -4   4  -7 320.407 153.083   3
   4  -4   7 195.886 115.166   5
   4  -4   8 13701.9 949.635   5
   4  -4   8 12973.9 954.772   7
  -4   4  -8 13171.1 941.818   3
  -4  -4  -8 11771.8 836.212   2
   4   4   8 12814.6 629.953   3
   4   4   8 13259.2 680.303   1
   4  -4   9 69.9853 82.7055   5
  -4   4  -9-11.7741 67.6423   3
   4   4   9 4.19811 44.6496   3
   4   4   9 34.3997 76.0857   1
  -4  -4  -9 56.7455 70.6268   2
   4  -4   9 68.9147 98.0356   7
  -4   4 -10 559.832 189.354   3
   4  -4  10 1328.68 326.630   7
  -4  -4 -10 1059.18 245.922   2
   4   4  10 833.577 185.827   1
   4   4  10 961.966 162.508   3
   4  -4  10 719.919 223.522   5
  -4   4 -11 146.097 98.6613   3
   4   4  11 201.200 90.2706   3
  -4  -4 -11 283.657 139.555   2
   4   4  11 207.583 98.9590   1
   4  -4  11 225.453 149.155   7
   4  -4  11 99.3992 87.9227   5
   4  -4  12 35918.0 1539.29   5
   4   4  12 38426.3 1378.69   7
  -4  -4 -12 38743.8 1494.14   2
   4   4  12 36964.4 1359.64   1
   4   4  12 37814.6 1019.18   3
   4  -4  12 36231.9 1726.15   7
  -4   4 -12 36999.4 1701.26   3
   4   4  13 194.430 116.523   1
  -4   4 -13 387.598 199.554   3
   4  -4  13 519.264 259.148   7
   4   4  13 103.723 59.9005   3
   4   4  13 41.0971 72.7934   7
   4  -4  13 167.996 96.1956   5
  -4   4 -14 1968.29 386.633   3
   4   4  14 2558.94 261.098   3
   4  -4  14 2152.58 380.202   5
   4   4  14 2434.82 354.937   7
   4  -4  14 2685.94 485.766   7
   4   4  14 2679.49 389.067   1
  -4   4 -15 124.907 152.686   3
   4   4  15 98.6680 28.1886   7
   4  -4  15 15.6742 68.4599   7
   4   4  15 4.46887 47.6680   1
   4   4  15 45.5373 37.4767   3
   4  -4  16 8521.35 904.391   7
   4   4  16 7988.63 452.623   3
   4   4  16 8346.82 685.358   7
   4   4  16 8504.75 736.541   1
  -4   4 -16 7692.49 835.612   3
  -4   4 -17-43.6056 87.2491   3
   4   4  17 64.2016 59.8218   3
   4   4  17 12.9075 45.0626   7
   4  -4  17 198.948 144.527   7
   4   4  17 229.329 133.374   1
  -4   4 -18 6171.36 781.472   3
   4  -4  18 5740.44 777.443   7
   4   4  18 6918.80 710.310   1
   4   4  18 6302.76 398.443   3
   4   4  18 6665.80 646.566   7
   4   4  19 66.9433 85.5730   7
   4   4  19-1.29921 26.4039   3
  -4   4 -19 33.3818 84.0666   3
   4   4  19-22.2099 60.8830   1
  -4   4 -20 18594.2 1404.03   3
   4   4  20 20546.6 1172.32   7
   4  -4  20 19169.2 1477.34   7
   4   4  20 18954.5 1238.15   1
   4  -4  21 300.794 152.817   7
  -4   4 -21 632.105 290.728   3
   4   4  21 205.629 142.526   1
   4   4  21 180.014 68.2773   7
   4  -4  22 5351.77 818.431   7
   4   4  22 6679.34 697.900   7
   4   4  22 5280.16 684.841   1
  -4   4 -22 5806.19 814.483   3
  -4   4 -23 15.8442 55.5691   3
   4  -4  23 171.587 189.607   7
   4   4  23 58.3064 75.4622   7
   4   4  23 56.3042 48.8797   1
   4  -4  24 1152.53 394.830   7
   4   4  24 986.454 302.673   1
   4   4  24 1304.59 320.704   7
  -4   4 -24 1439.48 406.947   3
   4   4  25-40.3892 91.1181   1
   4   4  25-31.2738 50.6175   7
   4  -4  25-95.0193 176.376   7
   4  -4  26 7314.32 1042.37   7
   4   4  26 7286.18 895.569   1
   4   4  26 6827.62 756.843   7
   4   4  27 244.501 171.804   1
   4  -4  27 475.397 272.131   7
   4   4  27 87.8564 101.675   7
   4  -4  28 9812.04 1255.93   7
   4   4  28 10293.1 1116.32   1
   4  -4  29 1169.61 436.512   7
   4   4  29 240.873 218.934   1
   4   4  30 7737.64 1018.65   1
   4  -4  30 9552.83 1265.90   7
   4   4  31-224.355 218.297   1
   4  -4  31 34.8430 159.275   7
   4   4  32 265.472 199.284   1
   4   4  33 468.994 276.526   1
  -4   6  33 216.245 197.221   1
  -4   6  32 14.5091 54.1418   1
  -4   6  31 135.652 154.566   1
  -4   6  30 9716.64 1163.15   1
  -4  -6  30 9542.29 1387.26   2
  -4   6  29-189.640 191.089   1
  -4  -6  29 131.146 114.148   2
  -4  -6  28 1470.31 557.656   2
  -4   6  28 1804.53 482.756   1
  -4   6  27 292.964 280.499   1
  -4  -6  27 48.8654 128.348   2
  -4   6  26 9733.47 1075.56   1
  -4  -6  26 10452.1 1370.86   2
  -4   6  25 29.7604 124.248   1
  -4  -6  25-70.9014 231.532   2
  -4   6  24 18.3828 69.8013   1
   4  -6 -24 26.1870 36.3259   5
  -4  -6  24-155.584 243.482   2
  -4   6  23 69.9253 92.4748   3
  -4  -6  23 17.1681 170.997   2
   4   6 -23-82.5779 188.949   3
  -4   6  23 0.97574 38.2651   1
   4  -6 -23-38.4425 78.8134   5
  -4   6  22 16510.7 1285.62   1
  -4  -6  22 14741.6 1556.55   2
   4  -6 -22 15137.3 1276.89   5
   4   6 -22 16232.5 1503.95   3
  -4   6  22 16256.7 1146.16   3
  -4   6  21 134.655 94.4669   3
   4   6 -21-1.87656 148.641   3
  -4   6  21-11.1540 116.343   1
   4  -6 -21-90.5677 96.6197   5
  -4  -6  21 240.376 234.993   2
  -4   6  20 6938.55 794.942   1
   4  -6 -20 6995.17 862.475   5
   4   6 -20 8399.77 1034.17   3
  -4   6  20 7421.45 767.671   3
  -4  -6  20 7223.52 1056.72   2
  -4  -6  19 142.355 185.095   2
  -4   6  19 156.402 106.359   3
   4   6 -19 229.620 163.680   3
   4  -6 -19 141.933 98.8351   5
  -4   6  19 209.625 157.184   1
  -4   6  18 8739.55 856.949   1
  -4  -6  18 8594.28 1140.28   2
   4   6 -18 8511.26 1026.82   3
   4  -6 -18 8655.12 976.227   5
  -4   6  18 9457.23 859.648   3
   4   6 -17 126.590 62.1817   3
  -4   6  17 15.0126 78.1305   3
  -4   6  17 123.603 125.962   1
  -4   6  17 50.4406 50.1149   6
   4  -6 -17 158.227 46.8031   5
  -4  -6  17-79.1932 130.790   2
  -4   6  16 3024.43 484.176   1
   4   6 -16 3274.01 603.063   3
  -4   6  16 3437.44 513.027   3
  -4   6  16 2717.17 389.704   6
   4  -6 -16 3369.13 612.701   5
  -4  -6  16 2787.62 617.866   2
  -4  -6  15 39.1487 143.724   2
   4   6 -15 196.526 159.826   3
  -4   6  15-8.90739 49.1760   1
   4  -6 -15 31.4910 23.1113   2
   4  -6 -15 242.259 172.150   5
  -4   6  15 135.411 131.561   3
  -4   6  14 7768.44 614.147   6
  -4   6  14 6622.57 384.456   7
  -4   6  14 7650.88 732.646   1
   4  -6 -14 7067.69 518.244   2
   4  -6 -14 7269.51 898.158   5
  -4  -6  14 7368.80 988.002   2
  -4   6  14 6975.54 725.643   3
   4   6 -14 6675.75 831.234   3
  -4   6  13 170.753 110.876   1
  -4   6  13 92.0948 111.274   3
   4   6 -13 416.150 200.591   3
   4  -6 -13 372.645 233.755   5
  -4  -6  13-89.9848 209.123   2
   4  -6 -13 91.4302 62.5260   2
  -4   6  13 58.5803 58.4586   6
   4   6 -12 14275.7 1178.80   3
  -4   6  12 15582.0 1006.41   1
   4  -6 -12 14786.2 824.085   2
   4  -6 -12 14625.7 1254.75   5
  -4  -6  12 15995.2 1442.94   2
  -4   6  12 16090.9 850.988   6
  -4   6  12 14434.5 1051.23   3
  -4   6  11 113.308 85.8866   1
   4  -6 -11-41.3669 60.3081   2
  -4   6  11-44.6724 62.9275   3
   4   6 -11 8.34586 121.764   3
  -4   6  11 2.23968 50.9999   6
  -4  -6  11 154.253 184.918   2
   4  -6 -11 276.185 218.040   5
   4   6 -10 6849.38 785.252   3
   4  -6 -10 6857.44 856.459   5
  -4   6  10 6809.33 727.820   3
  -4   6  10 8205.76 585.682   6
  -4   6  10 7132.39 648.137   1
  -4  -6  10 7560.52 956.252   2
   4  -6 -10 8220.08 672.145   2
  -4   6  10 6863.03 475.611   7
   4  -6  -9 10.7910 83.4795   2
  -4   6   9-86.5359 56.0769   7
  -4   6   9-5.61283 56.9527   6
  -4   6   9 133.344 144.699   3
  -4  -6   9-49.2113 168.281   2
   4   6  -9-40.3150 104.435   3
   4  -6  -9 199.310 176.360   5
   4   6  -8 5970.47 709.239   3
  -4   6   8 7191.34 541.045   6
  -4  -6   8 7228.53 934.016   2
   4  -6  -8 6664.52 844.467   5
  -4   6   8 6616.62 494.546   7
   4  -6  -8 7550.92 694.506   2
  -4   6   8 6382.20 696.464   3
  -4  -6   8 6478.52 455.729   1
   4   6  -7-174.737 133.101   3
   4  -6  -7-20.9875 55.6557   5
   4  -6  -7 24.0059 78.9144   2
  -4   6   7 19.7431 56.6023   3
  -4  -6   7 97.0842 56.0285   1
  -4   6   7 73.9127 46.5432   7
  -4  -6   7-167.704 186.439   2
  -4  -6   7 57.2450 54.8323   6
   4  -6  -6 4414.65 690.639   5
  -4  -6   6 4382.94 715.821   2
   4   6  -6 3998.72 573.754   3
   4  -6  -6 4354.68 569.719   2
  -4  -6   6 4599.74 364.173   1
  -4   6   6 4317.50 567.984   3
  -4  -6   6 4596.14 410.110   6
  -4   6   6 3746.47 403.593   7
  -4  -6   5 66.0122 46.8954   6
   4   6  -5 98.8519 161.829   3
  -4   6   5 47.8988 69.8940   7
   4  -6  -5 92.6666 56.9504   2
  -4  -6   5 91.1066 174.360   2
  -4  -6   5 119.053 55.1717   1
  -4   6   5 76.1582 92.6598   3
   4   6  -4 28422.1 1472.94   3
  -4  -6   4 27780.4 1778.46   2
  -4  -6   4 27159.7 862.659   6
   4  -6  -4 29694.7 1594.02   2
  -4  -6   4 28467.4 835.535   1
   4  -6  -4 30208.9 1772.92   5
  -4   6   4 28179.8 1489.36   3
  -4   6   3-99.1184 137.935   3
  -4  -6   3-1.87128 19.7945   6
   4  -6  -3 118.076 125.370   2
  -4  -6   3 18.6806 14.5087   1
  -4  -6   3-2.10919 143.477   2
   4   6  -3 169.134 126.644   3
  -4  -6   2 2507.09 205.957   1
   4   6  -2 2534.12 428.090   3
  -4   6   2 2393.99 441.365   3
   4  -6  -2 2456.99 503.982   5
   4  -6  -2 2473.12 491.030   2
  -4  -6   2 2389.48 500.627   2
   4   6  -1 71.6674 117.083   3
   4  -6  -1 116.835 177.952   5
  -4   6   1-48.5609 114.403   3
   4  -6  -1 53.9059 72.9772   2
  -4  -6   1 135.987 102.305   2
  -4  -6   0 11623.1 1114.03   2
   4   6   0 13319.7 948.896   3
   4  -6   0 12936.7 1125.48   2
   4  -6   0 13545.2 1189.70   5
  -4   6   0 12806.7 1045.82   3
  -4  -6  -1 334.943 119.050   2
   4  -6   1 827.521 298.751   5
   4   6   1 609.290 199.057   3
  -4   6  -1 792.081 252.820   3
   4  -6   1 767.263 302.873   2
   4   6   2 1583.37 315.528   3
   4  -6   2 1503.35 388.210   5
  -4  -6  -2 2013.16 470.897   2
  -4   6  -2 1796.90 378.201   3
   4  -6   2 1519.64 398.109   2
   4  -6   3 491.488 246.833   5
  -4   6  -3 318.898 226.836   3
  -4  -6  -3 608.258 261.184   2
   4   6   3 685.924 221.545   3
   4  -6   3 485.813 263.972   2
   4   6   4 47486.7 1722.77   3
  -4   6  -4 46746.0 2096.33   3
   4  -6   4 48105.6 2289.87   2
   4  -6   4 48211.4 2237.09   5
  -4  -6  -4 50326.4 2236.14   2
  -4  -6  -5 37.4357 72.4197   2
  -4   6  -5 158.679 76.6931   3
   4  -6   5 303.372 236.830   5
   4  -6   5 52.9274 121.352   2
   4   6   5 280.603 181.674   3
   4   6   6 1419.61 303.847   3
   4  -6   6 849.476 324.494   5
   4  -6   6 999.534 352.239   2
  -4  -6  -6 827.617 269.501   2
  -4   6  -6 1329.13 378.827   3
  -4   6  -7 125.297 100.342   3
   4   6   7 140.061 68.4148   1
   4  -6   7-258.205 239.055   7
  -4  -6  -7 154.155 133.459   2
   4  -6   7-26.3394 136.236   5
   4   6   7 202.456 114.852   3
   4  -6   7 187.406 228.161   2
  -4   6  -8 10306.2 1014.23   3
   4   6   8 10551.1 776.927   3
   4   6   8 10088.1 582.179   1
   4  -6   8 11108.3 1098.18   7
   4  -6   8 11382.7 1092.60   5
  -4  -6  -8 11029.6 991.376   2
   4   6   9 30.0141 45.3226   3
   4  -6   9 112.236 242.083   7
   4   6   9 7.88564 38.0107   1
   4  -6   9-53.6782 77.2783   5
  -4  -6  -9 70.3592 110.653   2
  -4   6  -9 17.9624 108.662   3
   4  -6  10 1408.80 383.840   5
   4   6  10 1380.76 263.698   3
  -4  -6 -10 1545.21 363.685   2
   4  -6  10 1382.55 387.694   7
  -4   6 -10 1217.50 353.868   3
   4   6  10 999.864 202.808   1
   4   6  11 34.5899 53.4049   3
   4  -6  11-24.7962 84.1093   5
  -4   6 -11-1.49491 122.407   3
   4   6  11 69.9316 75.4240   1
  -4  -6 -11 42.3533 91.8914   2
   4  -6  11-18.8896 62.4655   7
   4   6  12 28070.9 1207.96   1
   4   6  12 29190.0 1219.17   3
  -4  -6 -12 28648.2 1522.70   2
   4  -6  12 27350.2 1714.34   5
   4  -6  12 27046.7 1819.88   7
  -4   6 -12 27032.1 1731.83   3
  -4  -6 -13 197.395 164.298   2
  -4   6 -13 237.209 165.813   3
   4  -6  13 329.955 254.611   7
   4   6  13 109.986 59.3013   3
   4  -6  13 282.819 140.149   5
   4   6  13 95.8088 106.849   1
   4   6  14 1631.52 275.609   3
   4  -6  14 1679.11 470.086   7
  -4   6 -14 1447.07 407.463   3
   4   6  14 1242.47 269.696   7
  -4  -6 -14 1163.93 293.225   2
   4   6  14 1359.22 286.170   1
   4   6  15-38.7878 50.3477   7
   4   6  15-0.93484 100.542   1
   4   6  15 6.99515 43.2584   3
  -4  -6 -15 22.5529 43.0994   2
  -4   6 -16 6701.30 907.103   3
   4   6  16 6367.88 672.101   1
   4   6  16 6304.16 629.786   7
   4  -6  16 5734.68 888.469   7
  -4   6 -17 97.1945 137.709   3
   4   6  17 187.055 167.739   1
   4  -6  17 245.670 204.273   7
   4   6  17 92.3139 52.0221   7
  -4   6 -18 5720.19 864.507   3
   4   6  18 5387.87 663.947   1
   4   6  18 5724.88 610.435   7
   4  -6  18 5316.03 868.147   7
  -4   6 -19 245.245 215.787   3
   4  -6  19-30.0309 118.407   7
   4   6  19-73.1419 61.2803   7
   4   6  19-40.3972 109.244   1
  -4   6 -20 18644.3 1614.17   3
   4  -6  20 19334.7 1737.50   7
   4   6  20 18484.5 1301.06   1
  -4   6 -21-81.3490 204.735   3
   4   6  21 287.273 149.668   1
  -4   6 -22 6312.56 968.616   3
   4  -6  22 5631.62 959.661   7
   4   6  22 4801.25 690.349   1
  -4   6 -23-60.9887 125.634   3
   4   6  23-237.329 156.101   1
   4  -6  23 35.5961 278.504   7
   4  -6  24 1168.47 452.399   7
   4   6  24 860.404 301.131   1
  -4   6 -24 1279.24 442.729   3
  -4   6 -25-99.0238 222.423   3
   4  -6  25 17.7023 178.335   7
   4   6  25-109.391 114.728   1
  -4   6 -26 7118.62 1108.33   3
   4  -6  26 7376.42 1180.13   7
  -4   6 -27 323.694 237.728   3
  -4  -8  23 38.3920 107.508   2
   4   8 -23 146.125 80.2958   3
  -4  -8  22 7043.47 1245.14   2
   4   8 -22 8919.17 1248.90   3
   4   8 -21 215.488 237.020   3
   4  -8 -21 75.1389 94.8148   5
  -4  -8  21-198.605 198.763   2
   4   8 -20 3820.06 782.959   3
  -4  -8  20 3182.12 821.988   2
   4  -8 -20 2446.96 638.277   5
   4  -8 -19 61.1007 76.3089   5
  -4  -8  19 67.6370 190.623   2
   4   8 -19 64.7365 200.160   3
  -4   8  18 7349.95 878.321   3
   4   8 -18 7813.93 1107.68   3
   4  -8 -18 7377.67 1090.90   5
  -4  -8  18 8034.09 1297.61   2
   4   8 -17 30.4576 165.605   3
   4  -8 -17-62.4936 87.5960   5
  -4  -8  17-331.349 260.142   2
  -4   8  17-20.5450 69.6917   3
  -4   8  16 1351.21 370.413   3
   4  -8 -16 1238.54 458.842   5
   4   8 -16 2183.76 563.621   3
   4   8 -15 77.3968 135.626   3
  -4   8  15 82.2592 123.026   3
   4  -8 -15 214.335 165.183   5
  -4  -8  15-24.2198 163.537   2
   4   8 -14 7663.41 1044.94   3
  -4  -8  14 9083.00 1352.43   2
   4  -8 -14 7548.62 1105.09   5
  -4   8  14 7350.35 885.560   3
   4  -8 -13 40.8214 137.962   5
   4   8 -13 57.3821 119.705   3
  -4  -8  13 380.300 305.679   2
  -4   8  13 233.542 135.201   3
   4   8 -12 20985.8 1672.74   3
   4  -8 -12 20409.3 1807.56   5
  -4  -8  12 19930.2 1956.04   2
  -4   8  12 20489.1 1482.45   3
   4   8 -11 240.036 252.953   3
  -4  -8  11 23.6030 202.881   2
  -4   8  11-37.1810 70.2639   3
   4  -8 -11 331.991 253.291   5
   4   8 -10 6206.67 894.859   3
  -4   8  10 5811.68 801.326   3
   4  -8 -10 6187.42 978.559   5
  -4  -8  10 4937.32 946.382   2
   4   8  -9-54.2829 68.9846   3
   4  -8  -9 119.889 86.2523   5
  -4  -8   9 329.808 263.667   2
  -4   8   9 183.498 156.345   3
   4   8  -8 2957.97 595.057   3
   4  -8  -8 2142.61 592.446   5
  -4   8   8 2481.71 527.981   3
   4  -8  -8 2997.86 526.152   2
  -4  -8   8 2748.21 698.108   2
   4   8  -7 261.188 177.940   3
  -4   8   7 108.690 107.880   3
  -4  -8   7 331.304 233.792   2
   4  -8  -7 286.171 180.587   2
   4  -8  -7 256.521 109.378   5
  -4   8   6 1727.10 423.724   3
   4  -8  -6 1581.09 469.079   5
   4  -8  -6 2095.62 471.551   2
  -4  -8   6 1480.46 481.530   2
   4   8  -6 1587.06 390.603   3
  -4  -8   5 261.063 267.495   2
   4   8  -5 6.75854 173.279   3
   4  -8  -5 421.231 134.028   5
   4  -8  -5 121.469 127.262   2
  -4   8   5 66.4730 150.289   3
   4   8  -4 9467.28 1008.02   3
  -4   8   4 9628.05 1043.13   3
  -4  -8   4 7571.30 1138.46   2
   4  -8  -4 10326.7 1133.53   2
   4  -8  -4 8876.79 1165.16   5
   4   8  -3 70.2244 142.689   3
  -4   8   3 9.22464 78.8630   3
   4  -8  -3-48.8221 189.321   2
   4  -8  -3-296.202 228.453   5
  -4  -8   3 326.219 259.841   2
  -4   8   2 2022.06 501.559   3
  -4  -8   2 1509.70 478.664   2
   4   8  -2 1994.49 452.620   3
   4  -8  -2 2613.10 605.629   5
   4  -8  -2 2535.98 599.530   2
  -4   8   1-12.7935 109.010   3
   4  -8  -1-257.929 195.172   2
   4  -8  -1 113.348 137.708   5
  -4  -8   1 180.538 191.966   2
   4   8  -1 67.3319 53.3122   3
  -4   8   0 10993.2 1155.61   3
   4  -8   0 9068.17 1168.24   2
   4   8   0 9955.14 1002.47   3
   4  -8   0 10527.8 1267.03   5
  -4  -8   0 8701.04 1154.17   2
   4   8   1 190.518 154.057   3
   4  -8   1-171.193 138.309   5
  -4  -8  -1 249.153 208.645   2
   4  -8   1 168.493 183.068   2
  -4   8  -1 486.863 273.433   3
  -4   8  -2 682.665 337.562   3
  -4  -8  -2 254.863 208.246   2
   4  -8   2 707.827 324.221   2
   4   8   2 524.778 206.525   3
   4  -8   2 422.554 230.535   5
  -4   8  -3 609.712 348.021   3
  -4  -8  -3 1010.13 393.029   2
   4   8   3 1274.13 354.551   3
   4  -8   3 784.821 339.180   2
   4  -8   3 983.829 395.628   5
   4  -8   4 38995.1 2461.18   5
  -4   8  -4 40928.9 2316.12   3
   4  -8   4 37252.2 2489.04   2
   4   8   4 41430.3 1951.45   3
  -4  -8  -4 38551.5 2329.11   2
  -4  -8  -5-69.5264 105.895   2
   4  -8   5 200.855 184.618   2
   4   8   5 155.468 140.939   3
   4  -8   5 71.6768 198.693   5
  -4   8  -5-74.5768 55.1606   3
  -4  -8  -6 722.049 334.391   2
  -4   8  -6 846.647 351.587   3
   4  -8   6 959.116 396.110   5
   4  -8   6 678.482 313.054   2
   4   8   6 380.415 179.342   3
  -4   8  -7-71.5495 104.389   3
   4  -8   7 48.9170 150.790   2
   4  -8   7 153.784 172.381   5
  -4  -8  -7 9.60692 78.1809   2
   4   8   7 200.512 161.905   3
  -4   8  -8 6167.94 927.005   3
   4  -8   8 5871.09 955.536   5
   4   8   8 5248.10 661.613   3
   4  -8   8 5241.05 964.930   2
  -4  -8  -8 6682.67 902.448   2
  -4  -8  -9-50.5105 39.7015   2
   4   8   9 70.5858 72.4673   3
   4  -8   9 9.38950 65.8266   5
   4  -8   9 40.0715 131.085   2
  -4   8  -9 89.6193 128.758   3
  -4   8 -10 623.809 308.534   3
   4   8  10 344.155 175.806   3
  -4  -8 -10 682.938 274.376   2
   4  -8  10 278.749 300.764   2
  -4   8 -11 251.922 180.732   3
   4  -8  11-14.9438 141.198   2
  -4  -8 -11 126.895 126.102   2
   4  -8  12 21652.2 2039.95   2
  -4  -8 -12 21259.4 1500.56   2
  -4   8 -12 22563.5 1860.69   3
   4  -8  13 294.024 340.805   2
  -4   8 -13 103.281 146.399   3
   4  -8  14 1384.59 526.227   2
  -4   8 -14 1159.12 414.658   3
  -4   8 -15 269.160 199.217   3
   4  -8  15 266.616 213.812   2
  -4   8 -16 4714.73 872.685   3
   4  -8  16 4722.48 977.862   2
  -4   8 -17 57.2410 186.783   3
   4  -8  17 355.183 331.432   2
   4  -8  18 4024.24 936.883   2
  -4   8 -18 3811.40 830.693   3
   4  -8  19 111.374 106.362   2
  -4   8 -19-77.3225 127.168   3
  -4   8 -20 8952.78 1269.85   3
   4  -8  20 7172.67 1259.64   2
  -4  10  12 3736.54 728.330   3
  -4 -10  11 239.937 324.839   2
  -4  10  11 108.188 150.325   3
  -4 -10  10 2986.15 892.293   2
   4  10 -10 3752.51 785.875   3
  -4  10  10 4122.05 760.886   3
  -4 -10   9-371.635 309.329   2
  -4  10   9-101.085 124.771   3
   4  10  -8 3208.18 717.621   3
  -4 -10   8 2884.51 810.742   2
  -4  10   8 4506.08 813.737   3
  -4 -10   7-64.0042 136.001   2
  -4  10   7 104.327 78.6494   3
   4  10  -7-112.185 131.081   3
   4  10  -6 1966.11 542.774   3
  -4 -10   6 2087.35 676.708   2
  -4  10   6 1828.65 520.654   3
   4  10  -5 323.462 236.829   3
  -4 -10   5 86.2424 132.339   2
  -4  10   5 158.724 118.144   3
   4  10  -4 17460.4 1606.79   3
  -4 -10   4 14698.4 1841.02   2
  -4  10   4 16584.1 1606.86   3
  -4 -10   3 214.389 292.276   2
  -4  10   3 380.060 279.117   3
   4  10  -3 170.757 131.961   3
  -4 -10   2 1912.39 650.480   2
   4  10  -2 1742.24 489.858   3
  -4  10   2 1870.75 550.168   3
  -4  10   1-284.686 246.302   3
  -4 -10   1-270.399 243.822   2
   4  10  -1-266.824 193.780   3
  -4 -10   0 2860.69 745.371   2
   4  10   0 3160.02 647.095   3
  -4  10   0 3203.90 697.538   3
  -4  10  -1 205.221 219.175   3
  -4 -10  -1-175.450 189.927   2
   4  10   1-134.644 137.850   3
  -4  10  -2 1327.51 499.484   3
   4  10   2 627.212 276.639   3
   4 -10   2 536.852 326.908   2
  -4 -10  -2 636.447 350.898   2
   4  10   3 154.186 119.088   3
   4 -10   3 102.177 153.816   2
   4 -10   4 11933.0 1651.99   2
  -4  10  -4 14061.2 1551.58   3
   4 -10   5-126.650 192.518   2
  -4  10  -5 179.793 143.878   3
   4 -10   6 64.9574 129.603   2
   4 -10   7 148.499 171.176   2
   4 -10   8 4030.10 1000.03   2
   4 -10   9-314.292 282.122   2
   4 -10  10 1559.66 662.180   2
  -5  -1  38 340.668 211.056   7
  -5   1  37 3760.22 759.326   1
  -5  -1  37 3672.77 737.699   1
  -5  -1  37 3799.97 748.809   7
  -5  -1  36 171.990 198.454   1
  -5  -1  36-219.435 187.830   7
  -5   1  36-135.354 204.014   1
  -5  -1  35 10475.8 1175.97   7
  -5   1  35 12833.6 1343.38   1
  -5  -1  35 13399.8 1353.89   1
  -5  -1  34 189.944 182.244   7
  -5  -1  34 204.178 206.628   1
  -5   1  34-25.2241 67.9997   7
  -5   1  34 311.128 209.059   1
  -5   1  33 191.179 143.036   7
  -5  -1  33 178.137 138.155   7
  -5   1  32 30.9814 79.4805   7
  -5  -1  32 151.053 97.2519   7
  -5   1  32 89.4837 89.1742   1
  -5   1  31 17873.9 1447.55   1
  -5  -1  31 17320.9 1388.77   7
  -5   1  31 16032.0 1184.91   7
  -5   1  30 159.827 148.966   7
  -5  -1  30 338.029 162.939   7
  -5   1  30 98.6546 131.070   1
  -5  -1  29 1294.62 357.915   7
  -5   1  29 758.531 260.022   1
  -5   1  29 1164.23 299.385   7
  -5   1  28-11.4411 73.7446   7
  -5  -1  28-57.4314 65.6170   7
  -5   1  28-42.5672 99.1651   1
  -5   1  27 15506.2 1220.25   1
  -5  -1  27 16246.5 1223.48   7
  -5   1  27 15773.1 1050.47   7
  -5   1  26 186.163 137.857   1
  -5  -1  26 195.961 158.285   7
  -5   1  26 280.123 156.052   7
   5   1 -26 3.82741 19.4545   4
  -5   1  25 6025.65 605.456   7
  -5   1  25 5261.37 667.525   1
  -5  -1  25 5222.61 660.645   7
  -5   1  24 237.376 154.832   1
  -5   1  24 36.1752 47.1942   7
  -5  -1  24 306.656 189.123   7
   5   1 -24 53.9053 37.0162   5
  -5  -1  23 25242.4 1375.93   7
  -5   1  23 26458.2 1217.01   7
   5   1 -23 26244.5 957.728   5
  -5   1  23 27770.0 1465.00   1
  -5  -1  22 227.798 175.319   7
  -5   1  22 71.5610 95.7690   7
   5   1 -22 74.7752 62.2855   5
  -5   1  22 226.289 167.996   1
  -5  -1  21 1398.81 291.224   7
  -5   1  21 1304.63 249.944   7
  -5   1  21 1635.38 322.741   1
  -5  -1  20 83.2606 140.802   7
  -5   1  20 176.131 103.811   7
   5  -1 -20-59.6200 54.1738   7
  -5   1  20 57.1089 63.4215   1
   5  -1 -19 25140.1 1073.73   7
  -5   1  19 25019.5 1242.82   1
  -5   1  19 24765.3 1007.27   7
  -5  -1  19 25902.2 1251.78   7
   5  -1 -19 25712.7 989.490   4
   5  -1 -18-6.15023 43.0210   4
   5  -1 -18-55.2729 42.4898   7
  -5   1  18 132.730 88.6190   7
  -5  -1  18 205.041 149.749   7
  -5   1  18 128.161 169.911   1
  -5  -1  17 10596.1 758.174   7
  -5   1  17 11038.0 617.353   7
   5  -1 -17 11057.3 648.988   7
  -5   1  17 10938.3 780.442   1
   5  -1 -17 10638.7 640.259   4
  -5   1  16 167.154 85.9771   7
  -5  -1  16-29.6825 43.8633   7
   5  -1 -16 79.4892 44.7443   7
   5  -1 -16 129.022 95.9422   4
  -5   1  16 88.8208 70.4002   1
  -5  -1  15 5221.71 497.416   7
  -5   1  15 5095.62 509.471   1
   5  -1 -15 5376.22 400.829   7
  -5   1  15 5244.19 382.613   7
   5  -1 -15 5078.11 438.800   4
  -5  -1  14 83.4377 62.1820   7
   5   1 -14 93.3381 54.6575   7
   5  -1 -14 48.3987 44.9798   4
  -5   1  14 20.3153 41.3745   1
  -5   1  14 114.268 73.0985   7
   5  -1 -14 104.101 40.9101   7
   5  -1 -13 9106.77 460.700   7
  -5   1  13 9181.94 634.984   1
  -5   1  13 8952.17 450.752   7
   5  -1 -13 9349.31 583.988   4
   5   1 -13 9049.24 630.833   7
  -5  -1  13 9615.33 630.336   7
  -5   1  12-95.5408 84.8621   1
   5  -1 -12 11.0768 20.9848   7
   5   1 -12 57.7495 60.3643   7
  -5   1  12 50.2464 42.8775   7
  -5  -1  12 84.7357 68.4427   7
   5  -1 -12 99.0679 79.1823   4
  -5   1  11 18186.0 548.101   7
   5   1 -11 19757.4 861.832   7
   5  -1 -11 18557.8 567.991   7
  -5   1  11 19335.6 855.419   1
  -5  -1  11 18739.2 829.873   7
   5  -1 -11 21629.9 880.122   4
  -5  -1  11 20051.1 859.898   2
  -5  -1  10-85.7270 79.4782   7
  -5   1  10 18.7531 25.1973   7
   5  -1 -10 139.736 111.770   4
   5  -1 -10 38.0266 21.6104   7
  -5   1  10 16.1290 14.8094   2
  -5   1  10 62.8304 40.9245   1
  -5  -1  10 3.42053 34.3240   2
  -5   1   9 49821.0 1290.71   1
  -5  -1   9 53783.5 1342.94   2
   5  -1  -9 50859.9 771.624   7
   5  -1  -9 49505.2 1321.61   4
  -5   1   9 50819.6 675.228   2
   5  -1  -8 15.5777 23.3623   7
  -5   1   8 29.2656 72.2101   1
  -5  -1   8 3.74392 34.4957   2
   5  -1  -7 20109.0 380.684   7
  -5   1   7 20064.6 758.891   1
  -5  -1   7 22034.7 837.645   2
   5  -1  -7 20880.8 826.457   4
  -5  -1   7 20810.7 631.106   1
  -5   1   6 64.1749 52.1488   1
  -5  -1   6 68.8173 33.2620   1
  -5  -1   6 49.8642 49.6293   2
  -5   1   5 36523.8 946.334   1
  -5  -1   5 36207.1 1052.88   2
   5  -1  -5 37500.7 1073.92   4
  -5  -1   5 35508.2 702.799   1
  -5   1   4 522.566 117.244   1
   5  -1  -4 414.109 64.1032   2
   5   1  -4 468.600 73.6709   1
   5  -1  -4 425.127 58.0730   7
  -5  -1   4 507.575 68.3494   1
  -5  -1   4 377.743 138.571   2
   5  -1  -4 789.742 168.287   4
  -5   1   3 9875.84 457.137   1
  -5   1   3 9469.99 457.063   6
   5  -1  -3 9424.58 297.128   7
   5   1  -3 9412.24 307.220   1
  -5  -1   3 10105.4 312.868   1
  -5  -1   3 9367.73 529.368   2
   5  -1  -3 9630.75 535.746   4
   5   1  -2 15.2971 12.5083   1
  -5   1   2 5.16504 21.1787   6
  -5   1   2 5.27510 13.4225   7
   5  -1  -2 56.3722 28.8097   7
  -5  -1   2 32.7264 47.6498   2
   5  -1  -2 66.9026 50.0375   4
   5  -1  -1 66338.2 1352.41   4
   5  -1  -1 62848.8 962.937   7
  -5   1   1 65937.6 1207.88   6
  -5  -1   1 67333.5 1414.80   2
  -5   1   1 63467.0 949.644   7
  -5  -1   1 63177.3 859.192   6
  -5  -1   0-13.6144 34.4941   2
  -5  -1   0 38.0072 15.4125   3
  -5  -1   0 10.0885 22.2072   6
  -5   1   0 22.7170 10.5406   7
  -5   1   0-86.8399 54.1330   6
  -5   1   0 40.1269 37.1219   3
   5  -1   0-46.4073 37.5819   7
   5  -1   0 35.2124 44.9004   4
  -5  -1  -1 1596.95 218.340   2
   5   1   1 1580.78 141.830   6
  -5  -1  -1 1415.91 107.054   3
  -5   1  -1 1405.62 172.204   3
   5  -1   1 1236.63 173.184   4
   5  -1   1 1480.57 172.575   7
  -5  -1  -2 24.7980 40.9524   2
   5  -1   2-28.3069 57.5917   7
   5   1   2-26.9039 31.0597   6
   5  -1   2 11.7382 22.5965   3
   5  -1   2 73.2632 60.9626   4
  -5   1  -2 64.4066 32.3809   3
  -5  -1  -3 18523.7 769.169   2
  -5   1  -3 18471.1 652.358   3
   5  -1   3 18858.4 695.127   7
   5  -1   3 18843.3 645.971   3
   5  -1   3 18660.1 677.562   4
  -5   1  -3 19147.1 724.521   4
  -5  -1  -4 59.6451 59.6250   2
  -5   1  -4-47.0080 56.7514   3
   5  -1   4 40.6555 30.7239   3
   5  -1   4-66.1976 80.0833   7
   5  -1   4 16.6214 35.3571   4
  -5   1  -4 90.4463 57.4624   4
  -5   1  -5 1646.90 204.975   3
   5  -1   5 1765.32 205.005   3
   5  -1   5 1792.32 245.600   7
  -5  -1  -5 1657.44 238.829   2
   5   1   5 1665.23 220.857   7
  -5   1  -5 1901.39 225.181   4
   5  -1   6 309.062 94.9030   3
   5   1   6 126.163 65.4633   2
   5  -1   6 342.042 115.928   7
   5   1   6 103.655 31.1897   7
  -5   1  -6 119.332 57.4335   3
   5   1   7 37137.7 1125.34   7
  -5   1  -7 36357.6 1033.97   3
   5  -1   7 37139.3 1193.71   7
   5  -1   7 35956.2 996.845   3
   5   1   7 39198.7 1266.57   2
   5   1   8-44.9381 59.6200   7
   5  -1   8 35.5207 54.4674   7
  -5   1  -8 76.2425 73.1197   3
   5  -1   8 47.5326 37.8220   3
   5   1   8 75.1943 65.6364   2
   5   1   9 1017.74 99.5355   3
   5   1   9 1453.50 257.028   2
  -5   1  -9 1008.81 187.914   3
   5  -1   9 1173.31 186.957   3
   5   1   9 966.627 128.779   5
   5  -1   9 1304.46 242.726   7
   5   1   9 1241.56 220.644   7
  -5   1 -10 0.49050 52.0469   3
   5   1  10 46.6562 58.5667   7
   5  -1  10 24.7527 23.1025   3
   5   1  10-13.2388 11.7643   3
   5  -1  10-15.7864 26.4931   5
   5  -1  10 106.117 100.635   7
   5   1  10-1.37301 18.5283   5
   5   1  10-12.7330 54.1746   2
  -5   1 -11 6790.90 507.507   3
   5   1  11 7651.67 334.679   3
   5   1  11 6963.08 294.975   5
   5  -1  11 6941.91 594.617   7
   5  -1  11 7007.59 357.094   5
   5   1  11 7227.83 565.398   7
   5  -1  11 7632.67 525.932   3
   5   1  11 7255.63 609.838   2
   5   1  12-107.807 107.852   7
   5   1  12 113.335 55.2222   3
   5  -1  12 8.36240 14.5270   5
   5  -1  12-0.17874 33.8891   3
  -5   1 -12-21.6568 43.8852   3
   5  -1  12 127.121 101.126   7
  -5   1 -13 172.271 83.7808   3
   5  -1  13 128.375 43.3259   5
   5   1  13 183.143 55.4819   3
   5   1  13 106.032 61.5985   7
   5  -1  13 270.296 107.810   3
   5  -1  13 273.511 142.346   7
  -5   1 -14-6.96344 49.3311   3
   5  -1  14 144.903 95.5208   3
   5   1  14 49.7498 92.2786   7
   5  -1  14 101.040 141.359   7
   5   1  14 77.8273 43.2309   3
  -5   1 -15 45867.2 1500.30   3
   5   1  15 46333.8 1063.42   3
   5  -1  15 48031.5 1767.83   7
   5  -1  15 47188.4 1493.15   3
   5   1  15 47449.6 1649.27   7
   5   1  16-62.7879 50.7265   7
  -5   1 -16-35.0082 58.9322   3
   5   1  16 17.5619 46.2948   3
   5   1  17 1340.28 198.458   3
   5   1  17 1376.67 301.638   7
   5  -1  17 1521.35 328.128   7
   5   1  18 2.08144 27.0369   3
   5  -1  18 80.3970 129.994   7
   5   1  18-12.0091 82.3966   7
   5   1  19 16042.9 1072.31   7
   5   1  19 12557.0 652.772   3
   5  -1  19 15071.5 1117.06   7
   5   1  20 29.8980 51.3545   3
   5  -1  20-135.211 102.768   7
   5   1  20-110.846 119.389   7
   5   1  21 8222.65 805.071   7
   5  -1  21 8330.84 863.114   7
   5   1  22 138.946 214.200   7
   5  -1  22 251.401 237.241   7
   5  -1  23 31315.5 1766.76   7
   5   1  23 31233.7 1661.43   7
   5   1  24 41.6686 100.329   7
   5  -1  24 115.063 139.020   7
   5  -1  25 5557.91 772.761   7
   5   1  25 6941.13 822.440   7
   5   1  26 132.211 145.427   7
   5  -1  26 154.732 88.8288   7
   5   1  27 2035.42 452.323   7
   5  -1  27 2207.95 499.315   7
   5   1  28 30.9885 89.5279   7
   5  -1  28 119.383 155.773   7
   5  -1  29 5840.37 872.226   7
   5   1  29 5067.61 773.218   7
   5  -1  30 31.7843 70.3368   7
   5   1  30-125.848 166.331   7
   5   1  31 6811.34 920.924   7
   5  -1  31 8186.54 1081.89   7
   5   1  32-17.6307 142.482   7
   5  -1  32-132.398 112.848   7
   5   1  33 7513.42 1008.57   7
   5  -1  33 8229.31 1121.85   7
   5   1  34-92.9686 122.220   7
   5  -1  34-24.9120 105.575   7
   5   1  35-44.9921 87.5042   7
  -5  -3  38-15.8834 119.953   2
  -5  -3  37 3172.98 737.796   7
  -5  -3  37 2422.35 645.368   2
  -5  -3  36 106.738 216.653   2
  -5  -3  36-172.979 234.056   7
  -5   3  36 232.266 219.429   1
  -5  -3  35 10520.1 1318.75   7
  -5  -3  35 10231.8 1298.52   2
  -5   3  35 10893.1 1269.77   1
  -5  -3  34 112.720 163.707   7
  -5   3  34 274.781 200.489   1
  -5  -3  34 55.0245 76.3208   2
  -5  -3  33 273.909 171.799   7
  -5  -3  33 528.808 294.340   2
  -5   3  33 334.035 193.639   1
  -5   3  32 519.602 281.603   1
  -5  -3  32 215.930 224.178   7
  -5  -3  32 301.477 238.022   2
  -5  -3  31 17032.7 1550.60   7
  -5   3  31 16934.2 1461.44   1
  -5   3  30 113.867 151.576   1
  -5  -3  30-170.866 186.616   7
  -5   3  29 943.870 335.854   1
  -5  -3  29 1297.88 390.794   7
  -5  -3  28 146.950 151.910   7
  -5   3  28 249.285 217.243   1
  -5  -3  27 8981.86 1034.59   7
  -5   3  27 10741.4 743.165   7
  -5   3  27 10177.8 1030.77   1
  -5   3  26 76.6970 98.5108   1
  -5   3  26 23.5838 45.8545   7
  -5  -3  26-81.0000 74.1699   7
  -5   3  25 3558.66 402.198   7
  -5  -3  25 3860.38 645.221   7
  -5   3  25 3367.26 559.103   1
   5  -3 -25 3354.48 398.148   5
  -5   3  24 382.736 137.764   7
  -5  -3  24 319.464 171.813   7
  -5   3  24 601.889 243.807   1
   5  -3 -24 275.399 121.586   5
   5  -3 -23 13666.5 846.912   5
  -5   3  23 15465.0 769.905   7
  -5  -3  23 13470.0 1179.04   7
  -5   3  23 13484.1 1078.69   1
  -5   3  22 215.002 175.449   1
   5  -3 -22-15.3152 38.0973   5
  -5  -3  22 180.463 102.230   7
  -5   3  22-43.7485 26.3163   7
  -5   3  21 318.634 95.6693   2
   5  -3 -21 300.566 114.998   5
  -5   3  21 413.791 118.965   7
  -5  -3  21 197.067 51.6966   7
  -5   3  21 427.675 183.578   1
  -5  -3  20 120.528 66.4216   7
  -5   3  20-67.2365 44.9041   2
  -5   3  20 92.0160 56.0262   7
   5  -3 -20-27.0205 63.8833   5
  -5   3  20-62.0640 45.7292   1
   5  -3 -19 23484.1 1166.67   5
  -5   3  19 25242.0 801.132   7
  -5  -3  19 23739.3 1437.01   7
  -5   3  19 20757.1 729.676   2
  -5   3  19 22348.7 1260.63   1
  -5  -3  18 19.3068 75.1385   7
  -5   3  18 32.8240 114.762   1
  -5   3  18 33.7195 29.8962   2
  -5   3  18 78.9151 40.0699   7
  -5   3  17 15498.4 545.033   2
  -5   3  17 18689.2 606.065   7
  -5   3  17 17935.2 1078.60   1
  -5  -3  17 19694.5 1273.50   2
  -5  -3  17 19819.0 1242.84   7
  -5  -3  16 98.5584 62.7898   2
  -5   3  16 83.7119 51.7911   7
  -5   3  16 81.3623 41.9517   2
  -5   3  16 104.109 132.192   1
   5   3 -16-83.6427 121.778   3
  -5  -3  16-25.4689 74.3854   7
  -5  -3  15 16103.9 1081.94   7
  -5   3  15 12433.3 403.059   2
  -5  -3  15 16878.1 1119.63   2
  -5   3  15 15767.3 472.143   7
  -5   3  15 15429.8 935.237   4
   5   3 -15 15629.6 1061.20   3
  -5   3  15 16752.2 1000.94   1
   5   3 -14 355.972 191.653   3
  -5   3  14 184.354 130.296   1
  -5   3  14 406.124 71.1688   7
  -5   3  14 208.647 48.7558   2
  -5   3  14 422.887 149.183   4
  -5  -3  14 208.623 99.4403   2
   5   3 -13 7074.73 679.707   3
  -5   3  13 5870.31 230.815   7
  -5  -3  13 7251.13 712.777   2
  -5   3  13 6431.54 598.934   1
  -5   3  13 6289.90 587.345   4
   5   3 -12 88.8614 73.7911   3
  -5   3  12-96.5775 106.650   1
  -5  -3  12 10.6801 95.3764   2
  -5   3  12 93.9937 89.7228   4
  -5   3  11 9688.04 690.111   1
  -5  -3  11 11537.5 866.516   2
  -5   3  11 9462.60 711.213   4
   5   3 -11 10076.3 766.664   3
   5   3 -10 212.189 127.165   3
  -5   3  10 168.987 89.7528   4
  -5   3  10 56.5285 31.8293   1
   5  -3 -10 83.8431 27.9809   2
  -5  -3  10 132.980 97.9676   2
   5   3  -9 32703.4 1302.66   3
  -5   3   9 31072.2 1149.77   1
   5  -3  -9 26490.5 1112.53   1
  -5  -3   9 34127.3 1463.59   2
  -5   3   9 32284.9 1311.07   4
   5  -3  -9 25459.1 555.005   2
   5  -3  -8-8.44713 13.8778   2
   5   3  -8-120.108 85.7297   3
  -5   3   8-45.7692 29.0636   1
  -5  -3   8 53.8288 54.2280   2
   5  -3  -8-36.4616 54.0760   1
  -5   3   8 37.3246 70.1652   4
  -5   3   7 8087.72 268.448   7
  -5   3   7 9952.17 618.488   1
   5   3  -7 9249.90 657.084   3
   5  -3  -7 8786.26 427.470   2
  -5  -3   7 9267.97 747.894   2
   5  -3  -7 10182.0 668.649   1
  -5   3   7 8941.19 685.656   4
  -5   3   6 244.911 97.3798   3
   5   3  -6 208.835 104.143   3
  -5  -3   6 344.878 139.956   2
   5  -3  -6 74.1364 47.4181   2
  -5   3   6 212.975 87.7411   6
  -5   3   6 202.743 53.0582   7
  -5   3   6 173.870 80.0007   1
   5  -3  -6 230.882 101.828   1
   5   3  -5 13832.1 752.481   3
  -5   3   5 12686.7 422.197   7
  -5  -3   5 14518.1 796.410   3
  -5   3   5 13799.7 760.892   3
   5  -3  -5 15212.1 783.867   1
  -5   3   5 13391.8 653.272   6
   5  -3  -5 13697.5 607.975   2
  -5   3   5 14303.7 706.341   1
  -5  -3   5 13718.1 892.089   2
   5   3  -4 629.746 157.088   3
  -5   3   4 455.302 94.0789   7
  -5   3   4 467.667 120.990   6
  -5   3   4 449.790 154.737   3
  -5  -3   4 450.712 160.354   2
  -5  -3   4 493.968 145.379   3
   5  -3  -4 578.862 145.961   1
  -5   3   4 532.803 146.196   1
  -5  -3   3 7453.09 657.542   2
  -5   3   3 7244.43 380.605   7
   5   3  -3 7196.13 516.081   3
   5  -3  -3 7492.70 443.300   7
  -5   3   3 7588.29 492.694   6
   5  -3  -3 8138.99 536.641   1
  -5   3   3 7674.67 577.628   3
  -5  -3   3 8106.36 560.124   3
  -5   3   2 37.7175 39.7884   7
   5   3  -2-4.69174 24.4511   3
   5  -3  -2 96.1596 60.6172   6
   5  -3  -2-8.52181 25.5158   1
  -5   3   2-60.7577 67.3781   6
  -5  -3   2 10.8455 57.4366   3
  -5  -3   2 131.135 126.599   2
  -5   3   2 66.4398 48.8482   3
   5  -3  -2 22.9073 18.4553   7
  -5  -3   1 44616.5 1569.99   2
  -5  -3   1 47992.8 1268.73   3
   5  -3  -1 44535.4 1187.34   7
   5   3  -1 46886.1 1588.09   2
  -5   3   1 44681.6 1400.06   3
   5   3  -1 45630.9 1196.13   3
  -5   3   1 45361.7 1232.63   6
   5  -3  -1 50130.3 1313.38   6
  -5   3   1 43901.4 1051.20   7
   5  -3  -1 48148.7 1273.90   1
  -5  -3   0 64.5810 46.2703   3
   5   3   0 31.3279 35.7935   3
   5  -3   0 119.755 80.6392   7
  -5  -3   0 77.7254 43.1881   2
   5   3   0 50.9519 42.1559   2
  -5   3   0-8.79107 64.8565   3
   5  -3   0 34.4693 27.6568   1
   5  -3   0 52.1772 75.7140   6
  -5   3   0 95.9927 60.2212   7
   5   3   1 1410.64 272.329   2
  -5   3  -1 1612.25 219.290   7
   5  -3   1 1555.52 245.306   6
   5  -3   1 1472.92 235.306   7
   5   3   1 1356.76 260.856   5
  -5  -3  -1 1437.64 204.122   3
  -5  -3  -1 1551.40 295.303   2
  -5   3  -1 988.786 198.839   3
   5   3   1 1489.77 207.577   3
   5   3   2 106.146 56.9486   3
   5   3   2 55.5108 58.5533   5
   5   3   2 131.978 38.9136   1
  -5   3  -2 147.555 65.5216   7
  -5  -3  -2 96.4863 44.4832   3
   5  -3   2 45.0503 38.4700   6
  -5   3  -2 61.7001 80.6614   3
   5   3   2 44.7956 38.7554   2
  -5  -3  -2 155.780 74.2505   2
   5  -3   2 62.4522 85.0315   7
  -5   3  -3 16781.3 783.653   7
   5  -3   3 17083.7 848.497   7
   5  -3   3 17359.7 855.400   6
   5   3   3 15543.1 476.764   1
   5   3   3 17417.3 908.285   5
   5   3   3 15654.7 622.663   3
  -5  -3  -3 16441.6 949.217   2
  -5  -3  -3 16514.2 638.499   3
   5   3   3 16630.8 961.886   2
   5  -3   3 16406.1 927.246   5
  -5   3  -3 16012.1 880.354   3
   5  -3   4-26.2955 36.6669   6
   5  -3   4-57.6176 55.5625   7
   5  -3   4-115.428 87.0265   5
   5   3   4-29.5034 34.5905   3
  -5   3  -4 17.4318 78.2819   3
  -5  -3  -4-10.3690 27.9021   3
  -5   3  -4 21.1392 59.4972   7
   5   3   4-45.1238 32.0973   1
   5   3   4 11.6580 47.5272   5
  -5  -3  -4-60.5648 67.2236   2
   5   3   4 31.4638 45.4682   2
  -5   3  -5 86.5738 59.1863   7
  -5  -3  -5 176.118 120.225   2
   5   3   5 81.0078 61.1109   5
   5   3   5 172.026 85.6333   2
   5   3   5 89.8361 45.4340   3
   5   3   5 100.511 49.1368   1
   5  -3   5 219.870 98.2933   7
  -5   3  -5 34.3524 82.0807   3
   5  -3   5 148.027 78.1355   5
  -5   3  -6 1101.16 246.253   3
   5   3   6 1235.26 152.135   3
   5   3   6 1245.50 267.058   2
   5  -3   6 1075.37 235.364   5
  -5  -3  -6 1081.89 245.686   2
   5   3   6 1117.16 226.786   5
   5  -3   6 1552.43 300.248   7
   5   3   7 55994.2 990.906   3
   5  -3   7 56827.1 1763.43   7
   5  -3   7 54854.2 1667.17   5
  -5   3  -7 56169.3 1752.45   3
  -5  -3  -7 54395.2 1683.99   2
  -5   3  -7 53285.2 1681.52   4
   5   3   7 55828.8 1610.46   5
   5   3   7 60651.5 1916.42   2
  -5   3  -8-78.5534 94.1953   3
  -5   3  -8 101.303 84.1640   4
  -5  -3  -8-31.9339 83.9714   2
   5   3   8 39.2387 23.1789   3
   5   3   8 128.315 66.2525   5
   5  -3   8-11.5146 81.2385   5
   5   3   8 132.714 95.8290   2
   5   3   9 830.462 110.567   3
   5  -3   9 791.602 225.150   7
  -5  -3  -9 1036.81 238.067   2
  -5   3  -9 765.073 199.535   3
  -5   3  -9 668.177 173.751   4
   5   3   9 715.069 178.315   5
   5  -3   9 698.676 195.135   5
  -5   3 -10 115.664 80.0557   4
   5  -3  10-98.1133 72.3681   7
   5   3  10 20.0361 11.9217   3
   5   3  10 3.12199 52.5441   7
  -5   3 -10 130.562 91.2912   3
   5  -3  10-28.5180 77.5621   5
  -5  -3 -10 29.1630 43.3753   2
   5   3  10 86.3885 77.4818   5
   5   3  11 9970.74 685.620   7
   5  -3  11 10789.2 853.089   7
  -5   3 -11 8894.81 681.016   4
   5   3  11 9560.56 368.882   3
   5  -3  11 9605.68 689.782   5
  -5   3 -11 9267.12 776.985   3
   5   3  11 8988.84 631.264   5
  -5   3 -12 89.3038 49.5351   4
   5   3  12 52.6765 24.1366   3
  -5   3 -12 315.481 158.079   3
   5   3  12-74.9408 73.2063   7
   5  -3  12 370.875 196.487   7
   5  -3  12 60.4730 37.3948   5
   5  -3  13 97.3601 91.7359   7
   5  -3  13-74.7245 79.3323   5
   5   3  13 59.4914 28.2483   3
  -5   3 -13-14.9629 38.0612   4
   5   3  13 1.66435 79.5468   7
   5  -3  14 219.173 169.307   7
  -5   3 -14-1.97975 79.8335   3
   5  -3  14 134.735 74.4432   5
   5   3  14 80.1693 37.1170   3
   5   3  14 90.0982 61.0239   7
  -5   3 -14-65.5804 75.2844   4
   5  -3  15 25950.0 1458.11   7
  -5   3 -15 25750.2 1381.20   3
   5  -3  15 25223.7 1109.73   5
   5   3  15 26715.3 622.967   3
  -5   3 -15 22989.6 1082.04   4
   5   3  15 23421.6 632.065   3
   5   3  15 27785.5 1253.63   7
   5   3  16-27.0460 24.9807   3
  -5   3 -16 59.4296 50.7182   3
  -5   3 -16-31.1587 21.9124   4
   5   3  16-0.21021 14.9918   3
   5   3  16-50.7833 100.445   7
   5   3  17 1048.14 137.055   3
  -5   3 -17 1032.81 292.958   3
   5  -3  17 1211.37 324.146   7
   5   3  17 1223.70 136.884   3
   5   3  17 1252.39 284.570   7
   5   3  17 1057.27 185.465   4
  -5   3 -17 845.468 204.319   4
  -5   3 -18 130.985 105.050   3
  -5   3 -18 57.1407 59.0978   4
   5   3  18 39.6568 22.3612   3
   5   3  18-44.5982 74.0020   7
   5  -3  18 78.8275 71.2805   7
   5   3  19 9045.65 391.951   3
   5   3  19 10667.9 853.649   7
   5  -3  19 9281.33 942.481   7
  -5   3 -19 9621.55 922.055   3
   5  -3  20 167.731 114.467   7
   5   3  20 154.014 127.157   7
  -5   3 -20 37.1704 95.0309   3
  -5   3 -21 7027.03 811.172   3
   5  -3  21 8205.26 949.177   7
   5   3  21 6830.00 716.319   7
   5   3  22 464.694 228.021   7
   5  -3  22 396.734 260.316   7
  -5   3 -22 368.544 247.820   3
   5   3  23 33838.0 1668.74   7
   5  -3  23 32850.0 1983.00   7
   5  -3  24 234.077 190.562   7
   5   3  24 86.2071 86.4281   7
   5   3  25 7042.26 793.930   7
   5  -3  25 5989.97 875.483   7
   5  -3  26-92.6232 112.559   7
   5   3  26-43.3357 45.5490   7
   5  -3  27 2569.26 605.134   7
   5   3  27 2147.22 454.347   7
   5   3  28-327.910 182.434   7
   5   3  28-101.979 60.8868   1
   5  -3  28-374.805 270.800   7
   5   3  29 6284.36 815.412   7
   5  -3  29 5551.50 921.625   7
   5   3  29 5526.24 820.504   1
   5   3  30 9.67051 83.0760   7
   5   3  30 147.987 141.778   1
   5  -3  31 5445.42 973.900   7
   5   3  31 5138.82 835.044   1
   5  -3  32 72.8638 149.913   7
   5   3  32 9.87247 95.5202   1
   5   3  33 7730.97 1069.46   1
  -5   5  34-31.7485 102.037   1
  -5  -5  33-231.115 236.455   2
  -5   5  33-546.513 285.119   1
  -5   5  32 375.415 217.285   1
  -5  -5  32 196.976 192.690   2
  -5   5  31 7956.70 1051.80   1
  -5  -5  31 10168.0 1367.54   2
  -5  -5  30 154.987 181.618   2
  -5   5  30-55.4097 152.842   1
  -5  -5  29-5.62289 144.479   2
  -5   5  29-59.3510 185.346   1
  -5  -5  28 34.2519 194.613   2
  -5   5  28-56.5621 55.5586   1
  -5   5  27 12542.2 1221.29   1
  -5  -5  27 13290.6 1461.94   2
  -5  -5  26 303.907 171.780   2
  -5   5  26-14.3918 101.395   1
  -5  -5  25 5323.91 897.604   2
   5  -5 -25 4932.63 648.914   5
  -5   5  25 4933.14 734.395   1
  -5   5  25 4862.22 633.633   3
  -5   5  24 301.508 149.271   1
   5  -5 -24 335.075 178.345   5
  -5   5  24 379.847 157.854   3
  -5  -5  24 565.475 294.558   2
  -5   5  23 17267.3 1327.22   1
   5  -5 -23 19959.7 1348.77   5
  -5   5  23 18026.2 1204.58   3
  -5  -5  23 19185.9 1665.21   2
  -5   5  22 25.0071 70.4470   3
   5  -5 -22-20.0847 113.227   5
  -5  -5  22 96.7425 162.557   2
  -5   5  21 243.679 114.837   3
   5   5 -21-63.7250 97.3661   3
  -5   5  21 406.278 206.945   1
   5  -5 -21 314.702 171.138   5
  -5  -5  21 251.561 188.921   2
   5   5 -20 433.265 198.560   3
  -5   5  20 184.197 113.069   3
  -5   5  20 184.718 79.7292   1
   5  -5 -20 471.961 243.365   5
  -5  -5  20 164.151 58.7030   2
   5   5 -19 10143.1 1054.97   3
  -5   5  19 9030.23 818.973   3
  -5   5  19 9494.05 914.228   1
  -5  -5  19 10152.9 1125.83   2
   5  -5 -19 9404.73 927.033   5
   5  -5 -18 172.721 146.815   5
  -5   5  18 15.3530 38.9530   1
  -5   5  18 49.1912 104.317   3
   5   5 -18 38.9408 114.658   3
  -5  -5  18 42.9691 80.6405   2
   5   5 -17 11346.0 1078.52   3
  -5   5  17 9835.25 873.825   1
  -5   5  17 9811.98 839.895   3
  -5   5  17 8803.14 285.927   7
   5  -5 -17 10055.7 960.508   5
  -5  -5  17 10591.9 1135.03   2
  -5   5  16 31.7757 19.1871   7
   5   5 -16 130.981 160.302   3
  -5   5  16 41.4518 74.0312   3
  -5  -5  16-55.7715 138.129   2
   5  -5 -16 71.6644 47.1907   5
  -5   5  16 71.2307 69.0739   1
   5   5 -15 4788.93 676.864   3
  -5   5  15 4555.07 565.512   1
  -5   5  15 4636.68 570.490   3
  -5   5  15 4162.50 206.672   7
   5  -5 -15 4786.95 659.692   5
  -5  -5  15 4975.50 742.783   2
   5   5 -14-130.647 136.344   3
  -5   5  14 8.03478 11.5823   7
  -5   5  14 32.5231 77.7974   3
   5  -5 -14 65.2075 139.582   5
  -5   5  14-83.6656 108.090   1
  -5  -5  14-283.931 201.106   2
  -5   5  14 14.5555 11.6856   7
  -5   5  13 4173.78 233.412   7
  -5   5  13 5211.66 571.576   1
  -5  -5  13 5305.26 741.953   2
   5  -5 -13 4071.55 322.671   2
   5  -5 -13 3937.03 586.591   5
  -5   5  13 4037.10 523.446   3
  -5   5  13 4460.38 254.959   7
   5   5 -13 3982.25 595.605   3
   5  -5 -12-41.0432 40.0865   2
   5   5 -12-140.636 117.513   3
   5  -5 -12-90.3591 114.505   5
  -5   5  12 19.9152 27.2182   7
  -5   5  12 21.2569 39.3150   1
  -5   5  12 43.4099 28.3102   7
  -5   5  12 24.4693 98.7431   3
  -5  -5  12-170.449 144.855   2
  -5   5  12-9.21047 70.0568   6
  -5   5  11 15134.8 997.849   3
  -5   5  11 15914.3 852.606   6
  -5   5  11 14716.3 523.018   7
  -5  -5  11 15014.6 1246.53   2
   5  -5 -11 15131.1 1165.65   5
   5  -5 -11 15136.8 713.479   2
  -5   5  11 16165.5 985.907   1
   5   5 -11 15585.8 1114.86   3
   5   5 -10 188.039 135.173   3
  -5   5  10 165.609 57.2490   7
   5  -5 -10 409.642 194.117   5
   5  -5 -10 64.2969 51.4430   2
  -5   5  10 208.173 156.191   3
  -5   5  10-5.97436 114.621   1
  -5  -5  10 306.640 222.262   2
  -5   5  10 154.215 53.1454   6
   5   5  -9 24276.3 1337.15   3
  -5  -5   9 24567.0 1567.79   2
  -5   5   9 23010.4 726.023   7
  -5   5   9 23895.6 1245.80   3
   5  -5  -9 23950.0 1446.45   5
  -5   5   9 24989.8 1043.83   6
   5  -5  -9 23902.6 1002.64   2
  -5   5   9 25129.4 1155.93   1
  -5   5   8 184.568 96.7743   1
   5   5  -8 75.3797 135.308   3
  -5   5   8 17.1926 26.8034   6
  -5   5   8-57.7990 79.5019   3
   5  -5  -8 88.3228 127.400   5
  -5   5   8-21.6265 14.6934   7
  -5  -5   8-76.4667 146.425   2
   5  -5  -8-0.65569 40.8569   2
   5   5  -7 11491.0 889.895   3
   5  -5  -7 12398.6 809.522   2
  -5   5   7 11873.6 891.420   3
  -5   5   7 10716.4 547.046   7
   5  -5  -7 11855.9 1002.37   5
  -5   5   7 12131.0 711.994   6
  -5  -5   7 11339.6 1049.73   2
  -5  -5   6 21.1640 38.6405   1
   5   5  -6 6.78923 52.4268   3
  -5   5   6 39.0974 35.6775   7
  -5   5   6 57.6434 36.9610   6
   5  -5  -6-112.253 103.691   2
  -5   5   6-15.0461 53.2534   3
  -5  -5   6-141.083 136.346   2
   5  -5  -6 135.732 118.110   5
  -5  -5   5 11345.8 436.471   1
  -5  -5   5 11780.7 1059.83   2
   5   5  -5 11561.7 862.113   3
  -5   5   5 11712.2 614.548   7
   5  -5  -5 11171.6 986.130   5
  -5   5   5 11647.8 695.830   6
   5  -5  -5 12038.5 942.290   2
  -5   5   5 11601.4 877.074   3
  -5  -5   4 431.389 76.6273   1
  -5   5   4 525.666 135.036   7
   5  -5  -4 455.567 184.859   2
   5   5  -4 623.169 196.360   3
  -5  -5   4 584.092 251.962   2
  -5  -5   4 516.122 101.430   6
   5  -5  -4 427.942 230.921   5
  -5   5   4 394.302 150.239   3
  -5  -5   3 1736.91 401.339   2
  -5   5   3 1459.39 312.794   3
  -5  -5   3 1137.11 138.902   6
   5  -5  -3 1428.16 350.856   5
   5   5  -3 1449.04 287.479   3
  -5   5   3 1220.78 218.069   7
   5  -5  -3 1368.46 306.984   2
  -5  -5   3 1195.56 100.709   1
  -5   5   2 33.8130 34.3891   7
  -5   5   2-194.256 156.988   3
   5   5  -2 117.138 74.2522   3
  -5  -5   2 1.71553 105.925   2
  -5  -5   2 37.7528 21.9298   6
   5  -5  -2 64.6538 105.314   2
   5  -5  -2-23.2018 178.409   5
   5   5  -1 39812.7 1483.07   3
   5  -5  -1 39463.4 1831.69   5
   5  -5  -1 39477.8 1696.97   2
  -5  -5   1 36520.1 1818.85   2
  -5   5   1 38841.9 1290.23   7
  -5   5   1 41615.2 1716.74   3
  -5   5   0-140.479 141.008   3
   5   5   0 73.9689 32.4963   3
   5  -5   0 96.5542 137.414   2
   5  -5   0 276.036 194.673   5
  -5  -5   0 97.8653 78.3033   2
   5   5   1 1680.02 301.259   3
  -5   5  -1 1758.84 349.189   3
   5  -5   1 1941.80 393.554   2
   5  -5   1 2018.53 404.932   5
  -5  -5  -1 1794.28 396.704   2
  -5  -5  -2 110.276 135.884   2
   5   5   2 46.3399 67.2803   3
   5  -5   2 97.7710 94.0511   7
  -5   5  -2 84.7482 50.6782   3
   5  -5   2-200.489 104.453   5
   5  -5   3 7902.69 772.849   7
  -5   5  -3 8543.40 810.665   3
   5  -5   3 8464.28 850.449   5
   5   5   3 8812.44 652.878   3
  -5  -5  -3 7819.44 819.044   2
  -5  -5  -4 10.6042 37.8242   2
  -5   5  -4 115.164 81.1473   3
   5  -5   4 48.8647 78.6906   5
   5   5   4 50.4224 55.3361   3
   5  -5   4 227.324 163.665   7
   5   5   5 63.5577 78.1796   3
   5   5   5 0.68089 20.4078   1
   5  -5   5-57.8791 145.369   7
  -5  -5  -5-15.0474 76.7759   2
   5  -5   5 203.627 129.465   5
  -5   5  -5 1.11513 83.5552   3
  -5  -5  -6 355.103 204.123   2
   5   5   6 210.912 117.715   3
   5   5   6 138.226 64.7609   1
   5  -5   6 170.078 134.106   5
  -5   5  -6 281.101 163.126   3
   5  -5   6 132.492 78.0472   7
   5   5   7 24551.9 1020.03   3
   5   5   7 25479.4 876.345   1
  -5   5  -7 24866.2 1439.25   3
   5  -5   7 24109.9 1430.51   7
   5  -5   7 24709.5 1454.77   5
  -5  -5  -7 24352.9 1382.33   2
   5   5   8 252.598 115.396   3
   5  -5   8 356.809 180.784   5
  -5  -5  -8 127.602 78.9460   2
  -5   5  -8 282.330 168.487   3
   5  -5   8 309.434 182.063   7
   5   5   8 171.976 79.5769   1
   5   5   9 292.115 124.753   3
   5  -5   9-139.670 145.255   7
   5   5   9 133.996 81.5036   1
  -5   5  -9 210.939 122.193   3
  -5  -5  -9 198.682 121.662   2
   5  -5   9 298.386 158.790   5
   5   5  10 37.0889 31.5237   3
   5  -5  10 176.910 124.827   7
   5   5  10-12.6710 25.1392   1
   5  -5  10-27.1642 91.7604   5
  -5  -5 -10 33.2591 65.8773   2
  -5   5 -10-1.67019 49.5005   3
   5   5  11 9819.36 601.172   3
   5  -5  11 10041.6 986.088   7
   5  -5  11 9841.07 924.747   5
   5   5  11 9184.41 670.862   1
  -5   5 -11 9360.49 929.737   3
  -5  -5 -11 9457.40 841.827   2
  -5   5 -12-14.1887 121.379   3
   5  -5  12 37.8083 84.5142   5
   5  -5  12 33.7241 100.919   7
   5   5  12 99.3279 60.4793   1
   5   5  12 141.703 81.5999   3
  -5  -5 -12-25.1971 55.8432   2
   5  -5  13 831.917 306.442   7
   5   5  13 579.213 182.673   7
   5  -5  13 905.127 274.707   5
  -5  -5 -13 510.404 192.928   2
  -5   5 -13 601.920 215.280   3
   5   5  13 536.377 179.583   1
   5   5  13 432.662 114.369   3
   5  -5  14 114.724 151.734   5
   5   5  14-111.750 122.737   7
   5   5  14 40.0116 60.0845   3
  -5   5 -14 214.113 141.400   3
   5   5  14-80.0067 63.7156   1
   5  -5  14 182.648 208.272   7
  -5  -5 -14 16.5379 67.6501   2
  -5   5 -15 39627.1 2026.13   3
   5   5  15 39395.4 1091.34   3
   5  -5  15 40469.3 2121.64   7
   5   5  15 41697.6 1642.99   1
   5  -5  15 42207.1 1919.78   5
   5   5  15 39683.6 1578.02   7
   5   5  16 135.981 104.048   7
  -5   5 -16-24.5703 146.546   3
   5   5  16 103.781 83.1185   1
  -5   5 -17 445.025 221.059   3
   5   5  17 426.477 157.606   7
   5  -5  17 647.734 301.856   7
   5   5  17 366.732 166.267   1
  -5   5 -18 200.347 193.229   3
   5   5  18 34.2170 101.745   1
   5   5  18 62.1106 94.3636   7
   5  -5  18-64.8012 61.3157   7
   5  -5  19 9261.99 1077.06   7
  -5   5 -19 9532.06 1058.09   3
   5   5  19 9697.14 825.665   7
   5   5  19 9373.39 874.942   1
   5  -5  20 49.1012 98.3107   7
  -5   5 -20 82.3845 107.608   3
   5   5  20 141.095 125.778   7
   5   5  20 161.881 127.679   1
  -5   5 -21 5524.08 840.763   3
   5  -5  21 5916.55 909.144   7
   5   5  21 6078.84 669.942   7
   5   5  21 5205.45 687.805   1
  -5   5 -22-342.807 211.546   3
   5   5  22 4.34241 93.8553   7
   5  -5  22 141.931 172.777   7
   5   5  22 177.255 150.413   1
   5   5  23 14200.6 1197.55   1
  -5   5 -23 15138.6 1430.69   3
   5   5  23 15749.0 1125.21   7
   5  -5  23 14013.7 1439.65   7
  -5   5 -24 324.917 212.190   3
   5  -5  24 171.094 159.190   7
   5   5  24 156.497 155.469   1
   5   5  25 5513.82 779.866   1
   5  -5  25 6536.33 1024.20   7
  -5   5 -25 5977.28 935.730   3
  -5   5 -26-155.130 70.8068   3
   5   5  26-26.4476 105.813   1
   5   5  27 1045.56 350.570   1
   5  -5  27 1405.44 475.210   7
   5  -5  28-54.5248 195.215   7
   5   5  28 126.997 164.678   1
   5   5  29 2936.81 610.007   1
   5   5  30 10.8498 47.4767   1
   5   5  31 2860.76 629.729   1
  -5   7  29 276.851 194.492   1
  -5   7  28-32.5490 72.7725   1
  -5   7  27 5702.45 854.888   1
  -5  -7  27 7257.71 1227.81   2
  -5   7  26 147.728 126.511   1
  -5  -7  26 189.943 107.897   2
  -5   7  25 2213.26 508.988   1
  -5  -7  25 1295.10 490.626   2
  -5  -7  24 491.650 332.918   2
  -5   7  24 166.795 127.280   1
   5   7 -23 6287.99 996.927   3
  -5   7  23 7343.00 903.959   1
  -5  -7  23 6885.31 1163.86   2
   5  -7 -23 6588.85 949.010   5
  -5   7  22-19.3219 63.8003   3
   5  -7 -22 96.1918 93.7068   5
  -5   7  22-62.1697 37.1333   1
  -5  -7  22-158.548 174.468   2
   5   7 -21 52.6690 206.631   3
  -5   7  21 84.5909 98.8863   1
  -5   7  21 157.015 145.023   3
   5  -7 -21-166.690 161.492   5
  -5  -7  21 198.986 177.957   2
   5   7 -20 125.783 68.6258   3
  -5   7  20 113.158 100.682   3
  -5   7  20 86.8104 101.551   1
   5  -7 -20-39.6863 58.6230   5
  -5  -7  20 91.2038 227.235   2
  -5   7  19 11403.5 1038.26   1
  -5  -7  19 12200.9 1488.64   2
  -5   7  19 12127.4 1077.23   3
   5  -7 -19 11678.6 1272.24   5
   5   7 -19 11242.5 1258.04   3
   5   7 -18 78.3902 93.0901   3
  -5   7  18 419.050 210.917   3
   5  -7 -18 156.242 170.079   5
  -5  -7  18 258.815 195.888   2
  -5   7  18 103.710 39.1240   1
  -5   7  17 9104.75 897.460   1
  -5  -7  17 9009.78 1256.84   2
   5   7 -17 9473.44 1125.50   3
   5  -7 -17 8646.49 1093.33   5
  -5   7  17 9679.37 953.587   3
  -5   7  16 14.5839 38.3467   1
   5  -7 -16 36.7844 67.0864   5
  -5   7  16 85.1894 104.628   3
  -5  -7  16-261.211 246.614   2
   5   7 -16-84.0035 117.977   3
  -5   7  15 9701.21 892.168   1
  -5  -7  15 7352.73 1117.86   2
  -5   7  15 7833.10 862.151   3
   5  -7 -15 7764.72 1027.98   5
   5   7 -15 8129.80 1009.00   3
   5   7 -14-11.1703 82.8523   3
  -5   7  14-2.52267 66.9538   1
   5  -7 -14 10.0508 142.138   5
  -5   7  14 57.7366 100.018   3
  -5  -7  14 42.7645 99.0970   2
   5  -7 -13 4739.95 802.408   5
  -5   7  13 4050.25 542.670   1
  -5   7  13 4053.72 445.482   6
  -5  -7  13 3832.38 783.910   2
  -5   7  13 3885.77 600.495   3
   5   7 -13 4368.84 712.586   3
   5   7 -12-40.9359 95.0372   3
  -5   7  12 40.0424 95.1338   3
  -5   7  12-123.368 113.987   6
  -5  -7  12-19.8779 147.429   2
   5  -7 -12 293.749 205.781   5
   5  -7 -12 132.187 75.9485   2
   5   7 -11 8466.14 963.255   3
  -5  -7  11 8599.00 1146.97   2
  -5   7  11 6775.41 798.326   3
   5  -7 -11 8154.56 1040.66   5
   5  -7 -11 8690.31 732.915   2
  -5  -7  10-54.9486 170.397   2
   5   7 -10 106.713 120.668   3
  -5   7  10 70.5047 49.2821   3
   5  -7 -10 99.3961 101.701   2
   5  -7 -10 224.042 195.378   5
  -5  -7   9 12537.3 1380.97   2
   5  -7  -9 12426.4 1280.53   5
  -5   7   9 13299.5 1120.73   3
   5  -7  -9 14007.5 997.420   2
   5   7  -9 12308.7 1132.35   3
  -5  -7   8 280.899 213.549   2
  -5   7   8-150.685 143.730   3
   5   7  -8 189.169 170.020   3
   5  -7  -8-14.5597 77.5830   2
   5  -7  -8 13.3758 121.401   5
   5  -7  -7 4648.57 619.496   2
   5   7  -7 3985.20 622.881   3
  -5   7   7 3991.71 609.047   3
  -5  -7   7 3853.35 748.289   2
   5  -7  -7 3718.90 697.184   5
   5   7  -6 203.432 143.806   3
   5  -7  -6-90.4932 114.039   5
   5  -7  -6-70.1908 147.162   2
  -5   7   6-0.45208 72.4171   3
  -5  -7   6-334.202 223.057   2
   5   7  -5 5083.68 689.546   3
   5  -7  -5 5802.54 767.573   2
  -5  -7   5 5355.65 881.532   2
   5  -7  -5 4688.30 774.197   5
  -5   7   5 5109.17 708.180   3
   5   7  -4 123.129 117.866   3
   5  -7  -4-10.8478 109.298   2
  -5  -7   4 234.564 196.279   2
   5  -7  -4 127.672 179.020   5
  -5   7   4-134.275 123.320   3
   5   7  -3 2811.49 490.703   3
   5  -7  -3 2784.52 553.215   2
  -5  -7   3 2210.95 561.403   2
   5  -7  -3 2282.16 547.396   5
  -5   7   3 2385.25 477.256   3
   5   7  -2 27.8098 60.4987   3
  -5   7   2 33.0327 88.2658   3
   5  -7  -2 274.671 212.431   5
  -5  -7   2-62.4009 71.8170   2
   5  -7  -2 142.657 125.872   2
  -5  -7   1 18799.1 1578.36   2
   5   7  -1 19957.4 1304.61   3
  -5   7   1 19349.5 1424.39   3
   5  -7  -1 18963.6 1509.34   2
   5  -7  -1 19320.8 1578.55   5
  -5  -7   0 174.264 147.478   2
   5  -7   0 478.393 295.008   5
   5   7   0 62.9102 109.244   3
  -5   7   0 24.6355 151.679   3
   5  -7   0-65.0763 108.837   2
   5   7   1 612.846 227.770   3
  -5  -7  -1 977.652 346.224   2
  -5   7  -1 789.823 302.880   3
   5  -7   1 388.155 179.431   2
   5  -7   1 799.092 339.135   5
   5  -7   2 92.3780 144.905   5
  -5  -7  -2-79.9454 144.646   2
  -5   7  -2 137.374 152.414   3
   5  -7   2 294.297 217.711   2
   5   7   2 25.2028 66.8728   3
  -5   7  -3 9106.93 1010.72   3
   5  -7   3 9245.26 1109.36   2
   5  -7   3 9314.49 1089.91   5
  -5  -7  -3 9118.08 1072.99   2
   5   7   3 9886.91 872.917   3
  -5  -7  -4-18.3721 82.4411   2
   5   7   4-6.59640 31.4382   3
   5  -7   4 57.3723 106.032   5
  -5   7  -4 159.408 144.814   3
   5  -7   4-170.295 190.974   2
   5   7   5 9.14226 101.116   3
   5  -7   5 52.8537 90.5888   2
  -5   7  -5 248.278 220.980   3
   5  -7   5-257.181 243.966   5
  -5  -7  -5 186.097 214.674   2
  -5  -7  -6 104.845 86.9058   2
   5   7   6 104.566 108.160   3
  -5   7  -6 162.777 178.047   3
   5  -7   6 412.607 252.533   5
   5  -7   6 39.8925 136.159   2
  -5   7  -7 27766.0 1820.26   3
   5   7   7 29423.0 1425.66   3
   5  -7   7 30026.0 2089.64   2
   5  -7   7 28889.0 1940.98   5
  -5  -7  -7 30596.8 1866.86   2
  -5  -7  -8 462.929 222.915   2
  -5   7  -8 815.530 323.616   3
   5  -7   8 600.646 280.653   5
   5  -7   8 905.691 415.495   2
   5   7   8 735.903 213.338   3
  -5  -7  -9-119.079 113.081   2
   5   7   9 43.2478 24.0160   3
   5  -7   9 267.577 196.020   5
   5  -7   9 159.951 185.234   2
  -5   7  -9 148.941 111.195   3
  -5   7 -10 189.189 128.214   3
  -5  -7 -10 204.575 309.869   2
   5   7  10-44.0076 60.2341   3
   5  -7  10 167.370 118.651   5
   5  -7  10 465.916 283.196   2
  -5   7 -11 7829.90 1017.86   3
   5   7  11 8746.66 739.043   3
   5  -7  11 9633.24 1133.28   5
   5  -7  11 8703.69 1166.44   2
  -5  -7 -11 9651.46 981.431   2
   5  -7  12-175.709 184.658   7
   5  -7  12-11.6533 145.171   5
  -5  -7 -12-2.75110 252.098   2
   5  -7  12 14.9361 108.074   2
  -5   7 -12-27.5776 137.839   3
  -5  -7 -13 182.531 161.749   2
   5  -7  13-52.6471 117.318   2
   5  -7  13 439.156 249.996   5
  -5   7 -13 30.1412 72.2215   3
   5  -7  13-223.477 277.005   7
  -5   7 -14-271.883 171.596   3
   5   7  14 40.5160 104.657   7
   5  -7  14 110.258 135.969   7
  -5  -7 -14-12.2704 62.4434   2
  -5   7 -15 16492.3 1534.90   3
  -5  -7 -15 18715.5 1305.74   2
   5  -7  15 15866.1 1581.76   7
   5   7  15 16327.9 1080.76   7
  -5   7 -16 422.459 288.105   3
   5  -7  16 244.319 182.891   7
  -5   7 -17 947.062 393.732   3
   5  -7  17 456.217 213.730   7
  -5   7 -18 800.496 398.019   3
   5  -7  18 407.478 262.788   7
  -5   7 -19 5488.44 939.970   3
   5  -7  19 6109.81 1039.63   7
  -5   7 -20 141.697 168.716   3
   5  -7  20 216.583 235.448   7
  -5   7 -21 5161.71 929.439   3
   5  -7  21 5080.77 1031.05   7
  -5   7 -22 0.79978 149.304   3
   5  -7  22 111.195 230.451   7
  -5   7 -23 16098.7 1685.00   3
   5  -7  23 15135.8 1725.38   7
  -5   7 -24 232.057 276.795   3
   5  -9 -19 6543.56 1137.21   5
  -5  -9  18-45.6614 203.097   2
   5   9 -18 71.7925 221.497   3
   5  -9 -18 89.1906 162.791   5
  -5  -9  17 4017.15 970.218   2
   5   9 -17 3767.24 802.893   3
   5  -9 -17 4737.68 979.063   5
   5   9 -16 365.202 235.645   3
   5  -9 -16-297.258 265.570   5
  -5  -9  16 716.044 441.490   2
  -5   9  16 127.943 77.9513   3
   5   9 -15 3913.55 791.531   3
  -5   9  15 3367.01 651.170   3
  -5  -9  15 3396.19 862.191   2
   5  -9 -15 4411.04 929.841   5
   5   9 -14 86.1916 150.175   3
  -5  -9  14-48.8333 135.941   2
  -5   9  14 205.281 143.862   3
   5  -9 -14 28.0213 197.971   5
   5  -9 -13 2594.18 706.336   5
  -5  -9  13 1976.97 665.499   2
  -5   9  13 1056.46 357.877   3
   5  -9 -12 17.8751 170.107   5
   5   9 -12-391.887 244.717   3
  -5   9  12-1.81642 108.835   3
  -5  -9  12 173.565 169.986   2
   5   9 -11 7342.60 1033.44   3
  -5  -9  11 6990.53 1259.41   2
  -5   9  11 6698.78 929.185   3
   5  -9 -11 7303.30 1177.05   5
  -5  -9  10 179.637 203.027   2
  -5   9  10-60.0046 141.119   3
   5  -9 -10 49.4704 147.837   5
   5   9 -10-16.1166 168.368   3
   5   9  -9 9212.42 1134.00   3
  -5  -9   9 9081.05 1403.76   2
  -5   9   9 8545.48 1064.24   3
   5  -9  -9 9557.46 1347.53   5
   5   9  -8 152.919 171.382   3
  -5  -9   8 285.501 333.593   2
   5  -9  -8-200.920 212.545   5
  -5   9   8-457.710 247.374   3
   5   9  -7 4120.67 753.716   3
  -5   9   7 3438.01 682.036   3
  -5  -9   7 4150.39 946.100   2
   5  -9  -7 3830.35 858.758   5
   5   9  -6-17.8396 90.6702   3
  -5  -9   6-69.5820 102.123   2
  -5   9   6 251.942 225.400   3
  -5   9   5 4840.44 813.758   3
  -5  -9   5 4144.63 920.089   2
   5  -9  -5 5324.15 998.330   5
   5   9  -5 5000.10 808.620   3
  -5  -9   4 27.8839 171.483   2
  -5   9   4 81.5179 144.429   3
   5  -9  -4 196.468 308.736   5
   5   9  -4-47.6746 170.124   3
  -5   9   3 2232.40 560.669   3
   5  -9  -3 2712.36 738.509   5
   5   9  -3 2070.94 519.498   3
   5  -9  -3 2758.13 643.882   2
  -5  -9   3 1712.67 557.538   2
   5   9  -2-130.799 160.684   3
  -5   9   2 259.969 237.546   3
  -5  -9   2-234.179 237.896   2
   5  -9  -2 200.189 112.016   2
   5  -9  -2 197.274 208.470   5
   5   9  -1 14016.4 1285.98   3
  -5   9   1 13598.4 1388.37   3
   5  -9  -1 10459.0 1327.46   2
   5  -9  -1 13314.5 1566.58   5
  -5  -9   1 12487.2 1539.14   2
   5  -9   0 351.715 247.927   2
  -5   9   0-145.418 125.886   3
   5   9   0 253.689 173.517   3
  -5  -9   0 44.4072 100.161   2
   5  -9   0 124.833 241.309   5
  -5  -9  -1 359.716 232.892   2
   5   9   1 285.477 143.823   3
  -5   9  -1 747.682 316.237   3
   5  -9   1 512.912 312.083   2
   5  -9   1 400.940 215.525   5
   5  -9   2-116.442 151.258   2
  -5  -9  -2 114.618 70.8714   2
   5  -9   2 276.030 272.918   5
  -5   9  -2-147.005 241.640   3
   5   9   2-200.715 151.923   3
  -5   9  -3 7089.58 1029.03   3
   5  -9   3 6782.74 1106.77   5
   5  -9   3 5137.30 995.251   2
   5   9   3 5996.62 801.321   3
  -5  -9  -3 5005.97 930.483   2
  -5  -9  -4 25.6993 127.660   2
   5  -9   4 192.348 274.255   5
  -5   9  -4-160.741 180.921   3
   5   9   4-62.0671 124.807   3
   5  -9   4-281.126 337.358   2
  -5  -9  -5 64.0426 147.422   2
   5   9   5 216.963 148.044   3
  -5   9  -5-184.856 181.354   3
   5  -9   5 141.959 188.150   2
   5  -9   5 14.5561 109.993   5
  -5  -9  -6 0.72581 133.657   2
   5   9   6-19.9302 53.1519   3
   5  -9   6 118.905 149.020   2
  -5   9  -6 76.1843 179.106   3
   5  -9   6 444.988 357.782   5
  -5   9  -7 18473.7 1721.31   3
  -5  -9  -7 17811.5 1622.83   2
   5  -9   7 14152.7 1730.61   2
   5  -9   8 381.877 262.591   2
  -5   9  -8 705.257 371.985   3
  -5  -9  -8 680.701 322.651   2
  -5   9  -9 337.946 316.926   3
   5  -9   9-203.428 296.595   2
   5  -9  10 365.726 277.270   2
  -5   9 -10-31.5134 191.637   3
   5  -9  11 5379.81 1099.15   2
  -5   9 -11 6964.29 1083.73   3
  -5   9 -12-419.087 273.236   3
   5  -9  12 133.284 179.879   2
  -5   9 -13 19.1558 104.231   3
   5  -9  13 518.893 319.100   2
   5  -9  14-14.2395 147.151   2
   5  -9  15 13771.4 1803.78   2
  -6   0  37 81.3378 165.382   1
  -6   0  36 9672.10 1075.55   7
  -6   0  36 9765.25 1192.37   1
  -6   0  35 468.367 299.258   1
  -6   0  35 218.459 165.061   7
  -6   0  34 2564.25 584.196   1
  -6   0  34 2898.00 557.717   7
  -6   0  33-0.99559 125.578   7
  -6   0  33-38.9969 111.173   1
  -6   0  32 14306.9 1208.45   7
  -6   0  32 14766.1 1334.78   1
  -6   0  31 48.7954 106.084   1
  -6   0  31 140.073 117.775   7
  -6   0  30 1126.65 322.416   7
  -6   0  30 634.100 260.097   1
  -6   0  29 261.696 153.347   7
  -6   0  29-107.646 167.006   1
  -6   0  28 19566.6 1284.49   7
  -6   0  28 18371.5 1346.73   1
  -6   0  27 40.3154 182.589   1
  -6   0  27 178.375 169.458   7
  -6   0  26 1426.30 327.814   7
  -6   0  26 1296.32 339.080   1
   6   0 -26 1381.89 216.520   4
  -6   0  25 81.3285 139.859   7
   6   0 -25 55.2715 51.8363   4
  -6   0  25 195.374 155.218   1
  -6   0  24 29005.4 1399.35   7
   6   0 -24 30391.7 1122.39   4
  -6   0  23 383.553 187.786   7
   6   0 -23 27.4261 64.3242   4
  -6   0  22 8588.10 720.590   7
   6   0 -22 8302.64 610.879   4
  -6   0  21 49.3465 88.5454   7
  -6   0  20 35946.2 1375.71   7
  -6   0  19 260.816 147.874   7
   6   0 -18 10.8029 43.6436   7
  -6   0  18 1189.12 231.776   7
   6   0 -17 16.8414 70.2285   7
  -6   0  17 6.75502 62.0835   7
  -6   0  17 181.873 128.796   1
  -6   0  16 22299.3 1057.68   1
  -6   0  16 21162.0 916.635   7
   6   0 -16 22116.6 991.353   7
  -6   0  15-68.3686 84.8630   1
   6   0 -15-37.4700 52.7071   7
  -6   0  15 43.5865 58.6515   7
   6   0 -14 20994.7 878.555   7
  -6   0  14 19221.0 809.782   7
  -6   0  14 20757.8 944.709   1
   6   0 -13-10.8856 39.1963   7
  -6   0  13-33.7103 46.2711   1
  -6   0  13-44.3490 56.4007   7
  -6   0  13 83.3269 61.7612   2
  -6   0  12 10512.3 538.476   2
   6   0 -12 9211.70 534.234   7
  -6   0  12 9738.66 532.759   7
  -6   0  12 9846.00 606.965   1
  -6   0  11-12.7528 32.2031   1
  -6   0  11 24.7444 24.0606   2
   6   0 -11-1.85552 17.8585   7
  -6   0  10 1687.07 241.290   1
  -6   0  10 1644.13 202.583   2
   6   0 -10 1550.82 207.104   7
  -6   0   9 33.8977 37.2295   2
  -6   0   9-31.6133 54.0595   1
   6   0  -9 105.864 66.6281   7
   6   0  -8 43453.7 1022.20   7
  -6   0   8 46326.5 1017.67   2
   6   0  -8 46300.7 1027.59   2
  -6   0   8 43890.7 1090.71   1
  -6   0   7 41.2090 38.5556   1
  -6   0   7 40.7075 49.3407   2
   6   0  -7 55.8242 42.2167   2
  -6   0   6 127308. 1715.58   1
   6   0  -6 134749. 1744.17   2
  -6   0   6 132469. 1654.98   2
  -6   0   5-17.5477 34.1314   2
  -6   0   5-6.56007 37.3895   1
  -6   0   4 19884.9 621.764   1
  -6   0   4 21059.1 675.337   2
  -6   0   3-1.25213 45.9796   1
  -6   0   3-32.6652 40.9639   2
  -6   0   2 16346.3 575.111   6
  -6   0   2 17493.1 635.117   2
  -6   0   1 11.2093 27.6189   2
  -6   0   1-15.6830 32.8574   6
  -6   0   0 164.492 67.9235   2
  -6   0   0 133.497 53.4930   6
   6   0   1-30.1637 25.6680   7
  -6   0  -1-38.1955 22.8978   6
  -6   0  -2 17692.2 477.937   3
   6   0   2 16803.9 649.243   7
  -6   0  -3-2.66551 17.5167   3
   6   0   3-2.42275 47.6374   6
   6   0   3-30.4293 35.2293   7
   6   0   4 12950.7 620.957   7
  -6   0  -4 13647.1 426.275   3
   6   0   5-60.9526 33.6831   7
   6   0   5 4.96876 21.6199   3
  -6   0  -5-6.82849 17.4544   3
  -6   0  -6 21188.6 580.509   3
   6   0   6 20902.9 546.232   3
   6   0   6 21348.1 873.202   7
  -6   0  -7 11.3679 16.0868   3
   6   0   7 3.54950 54.6665   7
   6   0   7-6.16523 20.6345   3
  -6   0  -8 306.812 77.8711   3
   6   0   8 395.702 79.6385   3
   6   0   8 341.673 80.8405   4
  -6   0  -9 5.99670 22.5234   3
   6   0   9-7.25042 16.4467   4
   6   0   9 1.27501 16.7896   3
   6   0  10 97793.6 1459.51   3
  -6   0 -10 97312.3 1514.92   3
   6   0  10 101036. 2181.88   7
   6   0  10 99554.9 1187.75   4
   6   0  11 89.6125 103.838   7
   6   0  11-48.9247 53.8490   3
  -6   0 -11-45.9827 43.2434   3
   6   0  12 399.395 100.029   3
   6   0  12 474.700 134.335   7
   6   0  13-32.0272 51.4783   3
   6   0  13 77.5070 78.6014   7
   6   0  14 6679.90 453.208   3
   6   0  14 7024.51 645.904   7
   6   0  15-34.6260 29.0559   3
   6   0  15 24.6803 76.4943   7
   6   0  16 4947.74 580.248   7
   6   0  16 4545.15 405.096   3
   6   0  17 45.6042 76.0125   3
   6   0  17 37.9404 152.750   7
   6   0  18 42859.1 1321.75   3
   6   0  18 44870.6 1838.91   7
   6   0  19 100.745 80.2048   3
   6   0  19-46.1593 60.0811   7
   6   0  20 702.157 260.070   7
   6   0  21-71.2002 89.7082   7
   6   0  22 6432.88 764.790   7
   6   0  23 47.0697 124.732   7
   6   0  24 6690.34 829.161   7
   6   0  25-112.141 129.797   7
   6   0  26 9011.43 1014.01   7
   6   0  27 191.191 173.668   7
   6   0  28 2802.03 575.510   7
   6   0  29-74.3833 154.390   7
   6   0  30 1328.53 406.121   7
   6   0  31 117.972 130.195   7
   6   0  32 2710.22 630.114   7
   6   0  33-87.3356 123.719   7
   6   0  34 11930.2 1372.89   7
  -6  -2  38-125.155 146.176   7
  -6  -2  37 65.5842 100.841   7
  -6   2  37 363.077 243.975   1
  -6  -2  37 85.1090 128.150   1
  -6  -2  37-78.0138 112.696   2
  -6   2  36 14597.1 1481.84   1
  -6  -2  36 12459.1 1360.73   2
  -6  -2  36 13338.4 1429.23   7
  -6  -2  36 12616.2 1345.95   1
  -6  -2  35-6.62813 208.605   2
  -6  -2  35-145.517 165.629   7
  -6  -2  35 147.125 59.0601   1
  -6   2  35 84.5285 144.757   1
  -6  -2  34 2643.16 608.607   7
  -6   2  34 3001.56 657.380   1
  -6  -2  34 2510.81 589.301   2
  -6  -2  33 223.937 234.352   7
  -6   2  33 276.353 218.442   1
  -6  -2  33 164.475 159.428   2
  -6  -2  32 5475.82 828.602   7
  -6   2  32 5446.97 826.799   1
  -6  -2  31 188.816 163.872   7
  -6   2  31 73.7247 125.480   1
  -6   2  30 120.304 95.1651   7
  -6   2  30 143.581 163.837   1
  -6  -2  30-179.619 213.054   7
  -6  -2  29 305.584 161.517   7
  -6   2  29 33.9670 102.545   7
  -6   2  29 206.822 221.733   1
  -6  -2  28 16035.0 1324.78   7
  -6   2  28 16015.5 1315.50   1
  -6   2  28 17484.7 1038.41   7
  -6  -2  27 219.296 89.3885   7
  -6   2  27 11.2832 132.997   1
  -6   2  27 127.168 100.964   7
  -6   2  26 459.689 171.385   7
  -6  -2  26 371.603 173.147   7
   6  -2 -26 464.180 136.705   5
  -6   2  26 446.208 180.485   1
  -6   2  25 137.869 115.062   7
   6  -2 -25 0.60889 24.0022   5
  -6  -2  25-23.7579 98.4005   7
  -6   2  24 28466.5 1580.94   1
  -6  -2  24 26652.8 1568.17   7
  -6   2  24 28075.8 1165.53   7
  -6   2  23 178.620 94.3219   2
  -6  -2  23 128.662 152.737   7
   6   2 -23-112.356 76.6040   5
  -6   2  23 155.898 85.1365   7
   6  -2 -23-30.5400 38.4427   7
  -6   2  22 7462.42 528.566   2
  -6   2  22 9253.48 623.659   7
  -6   2  22 9250.01 847.892   1
  -6  -2  22 10073.4 917.332   7
   6  -2 -22 9139.38 631.931   7
  -6  -2  21 1210.49 316.427   7
   6  -2 -21 476.838 130.433   7
   6   2 -21 281.564 130.125   5
  -6   2  21 413.606 118.227   2
  -6   2  21 826.610 271.103   1
  -6   2  21 552.785 150.896   7
  -6   2  20 20296.8 830.455   7
   6   2 -20 16927.1 948.497   5
  -6   2  20 16740.9 721.700   2
   6  -2 -20 19059.6 831.906   7
  -6   2  20 20450.2 1208.78   1
  -6  -2  20 20687.2 1253.42   7
  -6  -2  19 17.5591 61.4707   7
  -6   2  19 53.8237 37.1398   2
   6   2 -19 119.549 102.050   5
   6  -2 -19 30.7420 43.3666   7
  -6   2  19 78.8450 48.9735   1
  -6   2  19 112.677 77.6542   7
  -6   2  18 317.038 115.633   1
   6  -2 -18 66.8423 44.6142   7
  -6   2  18 78.4380 46.9381   2
  -6  -2  18 171.471 57.9198   7
  -6   2  18 143.068 76.7169   7
   6  -2 -17 14.9674 34.0359   7
  -6   2  17 96.2679 62.0610   7
  -6   2  17 100.591 145.901   1
  -6   2  17 66.7998 38.2376   2
  -6  -2  17-49.3729 72.1613   7
  -6  -2  17 68.0080 147.970   2
   6  -2 -16 35250.3 873.874   7
  -6  -2  16 38514.8 1543.20   7
  -6  -2  16 41285.1 1622.29   2
  -6   2  16 37454.6 883.710   7
  -6   2  16 37848.8 1495.34   1
  -6  -2  15-49.4655 84.9959   2
  -6   2  15 71.8679 37.7501   7
   6  -2 -15 98.4944 46.6303   7
  -6   2  15-9.96298 44.6786   1
  -6   2  15 44.0215 26.1086   2
  -6  -2  15-1.94341 81.1802   7
  -6   2  14 31753.6 509.692   2
  -6   2  14 35506.0 1366.62   1
  -6   2  14 35358.0 728.731   7
  -6   2  13 117.144 67.5939   1
  -6  -2  13 108.959 71.3021   2
  -6   2  13 168.712 42.1708   7
   6  -2 -13 280.154 149.006   4
  -6  -2  12 27247.1 1212.48   2
   6  -2 -12 26165.0 1129.26   4
  -6   2  12 26588.7 1122.79   1
  -6  -2  11-35.9790 60.3823   2
  -6   2  11-114.366 115.956   1
   6  -2 -11-2.47662 82.2505   4
  -6  -2  10 7619.51 624.423   2
  -6   2  10 7631.37 578.748   1
   6  -2 -10 7255.77 587.194   4
  -6   2   9 493.299 152.944   1
  -6  -2   9 226.019 125.271   2
   6  -2  -9 217.930 93.1384   4
  -6   2   9 374.355 121.919   4
   6  -2  -8 3847.21 424.313   4
  -6  -2   8 4516.33 466.562   2
  -6   2   8 4674.59 412.281   1
  -6   2   8 4595.52 447.909   4
   6   2  -7-84.8993 33.9840   3
  -6  -2   7-28.4550 42.9231   2
  -6  -2   7 2.26921 14.0492   1
   6  -2  -7 72.3075 61.8490   4
  -6   2   7-69.2753 88.2248   1
  -6   2   7-60.2628 58.0255   4
  -6   2   6 17211.2 759.698   1
   6   2  -6 16314.6 760.519   3
  -6  -2   6 16401.4 477.251   1
  -6  -2   6 16001.7 869.206   2
   6  -2  -6 16125.7 847.414   4
   6   2  -5-9.57839 37.4506   3
   6  -2  -5 134.527 114.201   4
  -6   2   5 43.8536 60.8526   1
  -6   2   5 17.4436 10.7145   7
  -6   2   5-97.5441 93.6503   6
  -6  -2   5 70.2180 95.8680   2
   6  -2  -5 26.8143 15.6703   7
  -6  -2   5 87.1806 33.2118   1
  -6   2   4 6539.54 446.260   1
  -6  -2   4 6266.64 430.456   3
  -6  -2   4 5617.46 513.983   2
   6  -2  -4 5996.84 283.551   7
   6   2  -4 5651.45 411.261   3
  -6  -2   4 5788.71 219.789   1
  -6   2   4 5843.68 254.153   7
   6  -2  -4 6271.45 521.502   4
  -6   2   4 5899.60 422.439   6
  -6  -2   3 268.536 87.8392   3
   6  -2  -3 212.272 39.7019   7
   6  -2  -3 334.463 133.073   4
  -6  -2   3 153.097 85.4647   2
  -6   2   3 222.899 90.0644   6
   6   2  -3 284.146 100.751   3
  -6   2   3 345.449 74.0551   7
   6   2  -2 12768.8 558.017   3
  -6  -2   2 12995.2 562.577   3
  -6   2   2 13294.2 672.221   3
  -6   2   2 13624.0 652.344   6
  -6  -2   2 12374.5 746.139   2
   6  -2  -2 12346.3 492.877   7
  -6   2   2 12751.6 467.811   7
   6   2  -1 916.624 148.168   3
   6  -2  -1 1007.96 152.670   7
  -6  -2   1 979.562 145.617   3
  -6   2   1 931.200 177.380   3
  -6  -2   1 902.203 190.829   2
  -6  -2   1 830.530 92.0427   6
  -6   2   1 946.131 174.303   6
  -6   2   1 1038.04 144.084   7
  -6  -2   0 13848.2 802.518   2
  -6  -2   0 14236.6 527.252   3
   6   2   0 13516.8 512.353   3
  -6   2   0 13570.0 561.764   7
  -6   2   0 13827.3 687.037   3
  -6  -2   0 13076.1 349.337   6
  -6   2   0 13882.9 670.221   6
   6  -2   0 13119.6 581.651   7
  -6   2  -1 526.482 123.876   7
  -6  -2  -1 379.946 134.029   2
   6   2   1 696.737 124.909   3
   6  -2   1 708.207 157.125   7
  -6   2  -1 286.852 99.3485   3
  -6  -2  -1 383.878 81.1616   3
   6   2   2 84805.1 1099.92   3
   6  -2   2 89136.0 1679.09   7
  -6   2  -2 94289.7 1829.85   3
  -6  -2  -2 88703.0 1127.52   3
  -6   2  -2 92988.1 1646.41   7
  -6  -2  -2 92440.5 2053.21   2
   6   2   2 88811.9 993.002   6
  -6  -2  -3 1497.21 129.133   3
   6  -2   3 2074.95 290.181   7
  -6   2  -3 1738.03 235.484   7
   6   2   3 1565.65 133.446   3
  -6   2  -3 1471.86 230.660   3
   6   2   3 1425.55 135.232   6
   6  -2   3 1460.10 226.824   3
  -6   2  -3 1686.75 261.893   4
   6   2   3 1830.23 296.262   2
  -6  -2  -3 1549.07 262.530   2
   6  -2   4 1769.70 252.606   3
  -6   2  -4 1554.89 232.056   7
  -6   2  -4 1619.96 241.943   3
  -6  -2  -4 1688.37 120.070   3
   6   2   4 1678.34 159.715   6
  -6  -2  -4 1829.95 294.100   2
   6   2   4 2263.17 336.750   2
  -6   2  -4 1584.61 249.623   4
   6   2   4 1476.87 112.065   3
   6  -2   4 1827.43 265.392   7
   6   2   5 297.891 121.735   2
   6   2   5 97.9195 64.7717   5
  -6   2  -5 130.771 68.6633   3
  -6   2  -5 178.950 93.1317   7
   6  -2   5 50.9939 25.0928   3
  -6  -2  -5 100.529 73.7022   2
   6  -2   5 108.558 65.0209   7
  -6   2  -5 144.896 82.8366   4
  -6   2  -6 12338.2 716.523   3
   6  -2   6 11652.4 677.873   3
   6  -2   6 12701.5 745.529   7
  -6  -2  -6 12511.7 758.956   2
   6   2   6 12934.1 662.567   5
   6   2   6 13934.1 868.434   2
  -6   2  -6 12280.1 700.657   4
   6   2   7 214.801 109.802   2
   6  -2   7 350.303 119.374   3
  -6   2  -7 232.901 114.817   3
  -6  -2  -7 395.622 137.607   2
   6   2   7 277.747 86.6507   5
   6  -2   7 226.991 98.7408   7
  -6   2  -7 257.977 102.319   4
   6   2   8 1223.73 197.819   5
  -6   2  -8 1281.37 226.784   4
   6  -2   8 1272.69 236.871   3
  -6  -2  -8 951.504 207.690   2
  -6   2  -8 1009.92 213.438   3
   6   2   8 994.186 199.087   7
   6  -2   8 1059.80 240.933   7
   6   2   8 1407.60 285.215   2
   6   2   9 42.6010 64.5056   5
   6  -2   9 83.5208 83.6505   7
   6   2   9-14.6700 58.9372   7
   6  -2   9 68.1817 68.2605   3
   6  -2   9-27.5203 34.0382   5
  -6   2  -9-4.55716 92.3557   3
  -6   2  -9-38.2206 21.4662   4
   6   2   9-68.3045 80.5688   2
  -6   2 -10 57404.0 1669.91   3
   6   2  10 57227.0 1305.69   5
   6  -2  10 56028.4 1794.77   7
   6   2  10 58038.1 1635.90   7
   6  -2  10 59361.9 1652.25   3
   6  -2  10 57501.5 1457.84   5
  -6   2 -10 54087.8 1475.17   4
   6   2  11-27.5059 48.0452   5
  -6   2 -11-56.7812 53.8722   3
   6  -2  11 34.0003 41.2977   5
   6   2  11-79.0290 69.8506   7
  -6   2 -11 100.069 61.3620   4
  -6   2 -12 92.4261 66.6068   3
   6   2  12 112.905 78.7920   7
   6  -2  12 86.6294 60.1858   5
   6   2  12 67.7655 25.3517   5
   6  -2  12 23.2487 79.2860   7
  -6   2 -12 128.854 79.0334   4
  -6   2 -13 48.7520 70.3884   3
   6  -2  13 55.1932 49.6532   5
   6  -2  13 132.231 118.412   7
   6   2  13 9.33274 66.9795   7
  -6   2 -13 39.4420 37.5628   4
  -6   2 -14 13756.3 899.938   3
   6   2  14 13289.0 342.007   3
   6   2  14 14793.9 924.210   7
   6  -2  14 13345.5 979.778   7
   6  -2  14 13458.5 659.686   5
   6   2  15 30.6497 19.0024   3
   6  -2  15-9.47755 78.4939   7
   6   2  15 88.2424 84.6982   7
  -6   2 -15 19.5543 51.4191   3
   6  -2  15-27.7057 64.7166   5
   6   2  16 4338.35 238.187   3
  -6   2 -16 4025.84 513.063   3
   6  -2  16 4451.91 596.299   7
   6   2  16 4590.46 540.953   7
   6   2  16 4103.11 257.867   4
  -6   2 -17-50.7082 69.8120   3
   6   2  17-26.9323 84.0870   7
   6  -2  17-49.8833 97.1018   7
   6   2  17 27.4016 18.3258   3
  -6   2 -18 25931.1 1351.50   3
   6   2  18 25182.8 655.776   3
   6  -2  18 26536.4 1531.84   7
   6   2  18 25695.6 1349.06   7
  -6   2 -19 125.150 119.891   3
   6   2  19-25.3580 50.2388   7
   6  -2  19 99.9175 158.456   7
  -6   2 -20 1545.46 338.598   3
   6  -2  20 1816.24 422.767   7
   6   2  20 1625.52 359.703   7
   6   2  21 10.9702 80.1976   7
   6  -2  21-70.5364 102.362   7
   6  -2  22 3992.33 652.859   7
   6   2  22 4039.93 589.701   7
   6   2  23-24.5543 62.0858   7
   6  -2  23-44.6511 171.065   7
   6   2  24 4602.73 653.447   7
   6  -2  24 5480.40 803.869   7
   6  -2  25 370.213 277.934   7
   6   2  25 403.336 196.876   7
   6   2  26 22112.7 1499.52   7
   6  -2  26 22889.0 1712.41   7
   6   2  27 69.7877 51.7438   7
   6  -2  27 474.223 257.022   7
   6  -2  28 7254.24 1001.41   7
   6   2  28 5564.82 803.307   7
   6  -2  29 301.211 231.254   7
   6   2  29-17.7665 125.913   7
   6   2  30 1192.24 380.246   7
   6  -2  30 1835.96 538.004   7
   6   2  31 441.176 272.712   7
   6  -2  31 59.3120 231.004   7
   6  -2  32 2606.90 656.849   7
   6   2  32 2607.04 574.264   7
   6  -2  33 19.2410 150.560   7
   6   2  33-46.3524 114.109   7
  -6  -4  36 8294.88 1248.46   2
  -6   4  35 198.960 195.472   1
  -6  -4  35-200.953 223.805   2
  -6  -4  34 2625.02 681.568   2
  -6   4  34 2411.01 587.536   1
  -6   4  33 510.948 271.935   1
  -6  -4  33 250.036 262.380   2
  -6  -4  32 7627.04 1126.98   2
  -6   4  32 8238.20 1062.17   1
  -6   4  31 282.687 204.814   1
  -6  -4  31 249.971 236.735   2
  -6   4  30 205.474 187.124   1
  -6  -4  30 80.8274 98.3309   2
  -6  -4  29 163.485 167.989   2
  -6   4  29 35.0374 131.123   1
  -6   4  28 13864.6 1273.41   1
  -6  -4  28 13498.9 1402.19   2
  -6  -4  27 203.909 210.550   2
  -6   4  27 324.710 195.849   1
  -6  -4  26 920.930 347.257   2
   6  -4 -26 1055.61 262.391   5
  -6   4  26 420.897 204.218   1
  -6  -4  25 9.08983 108.113   2
  -6   4  25 201.498 132.340   1
   6  -4 -25 299.984 140.500   5
  -6  -4  24 17640.9 1488.23   2
  -6   4  24 16508.7 1286.39   1
   6  -4 -24 18441.6 1167.11   5
  -6   4  23 201.293 133.417   1
   6  -4 -23 103.679 80.0481   5
  -6   4  22 6451.11 356.781   7
  -6   4  22 6905.26 789.998   1
   6  -4 -22 8217.24 799.378   5
  -6  -4  22 7576.05 932.749   2
  -6   4  21 440.187 87.7816   7
   6  -4 -21 352.633 112.463   5
  -6   4  21 512.803 235.314   1
  -6  -4  21 586.175 282.789   2
  -6   4  20 16960.2 477.775   7
  -6  -4  20 19555.8 1465.10   2
  -6   4  20 18041.7 1229.58   1
   6  -4 -20 18460.5 1208.82   5
  -6  -4  19 177.787 167.968   2
   6  -4 -19 220.727 132.412   5
  -6   4  19 3.24780 8.19200   7
   6   4 -18 172.546 87.9072   3
  -6   4  18 654.392 217.630   1
   6  -4 -18 553.536 171.068   5
  -6  -4  18 816.274 280.687   2
   6   4 -17 214.943 159.683   3
   6  -4 -17 117.666 126.613   5
  -6  -4  17 456.324 226.879   2
  -6   4  17 67.6778 81.1063   1
  -6  -4  16 22421.2 1462.44   2
  -6   4  16 23517.1 1273.47   1
   6   4 -16 22229.9 1371.48   3
   6  -4 -16 21856.5 1304.93   5
  -6   4  15-52.9623 91.9129   1
   6   4 -15-56.8028 91.9807   3
  -6  -4  15-65.9953 105.579   2
   6  -4 -15-69.4452 128.008   5
   6   4 -14 16935.7 1159.96   3
  -6   4  14 17464.9 1044.74   1
  -6  -4  14 16967.7 1244.71   2
   6  -4 -14 16005.7 1116.81   5
   6   4 -13 344.422 183.988   3
  -6  -4  13 136.870 131.024   2
  -6   4  13-27.7103 72.1192   1
   6   4 -12 11719.1 920.585   3
  -6   4  12 11709.8 818.937   1
  -6  -4  12 11518.0 998.395   2
   6  -4 -12 9047.76 313.445   2
   6   4 -11-151.339 116.277   3
  -6   4  11 20.6977 82.1011   3
  -6   4  11 36.5913 55.2402   1
  -6  -4  11-140.214 190.617   2
   6  -4 -11 131.126 45.4752   2
  -6   4  10 4508.52 498.822   1
  -6  -4  10 4824.31 634.659   2
  -6   4  10 3848.70 483.694   3
   6   4 -10 4634.99 557.271   3
   6  -4 -10 3730.76 277.257   2
   6  -4  -9 558.525 117.933   2
   6   4  -9 560.975 189.987   3
  -6   4   9 533.557 173.609   1
  -6   4   9 337.431 126.521   3
  -6  -4   9 397.579 179.466   2
  -6   4   9 293.058 113.961   6
  -6   4   9 451.881 70.5171   7
  -6   4   8 12219.0 772.130   1
   6  -4  -8 11941.8 609.183   2
  -6  -4   8 11867.5 982.410   2
  -6   4   8 12254.7 713.224   6
  -6   4   8 11878.1 403.754   7
   6   4  -8 12147.6 852.990   3
  -6   4   8 11572.5 817.059   3
  -6   4   7 36.4533 59.6567   6
  -6   4   7 91.8715 39.6067   7
  -6   4   7-7.76914 64.3982   3
  -6  -4   7 26.8959 101.441   2
   6   4  -7 57.3229 130.818   3
  -6   4   7 0.42591 39.1362   1
   6  -4  -7 19.0309 19.1019   2
   6   4  -6 35239.0 1382.00   3
  -6  -4   6 35101.9 1659.51   2
  -6   4   6 33691.3 806.539   7
   6  -4  -6 34393.3 1177.98   2
  -6   4   6 35279.9 1201.49   6
  -6   4   6 34429.7 1235.71   1
  -6   4   6 36475.1 1428.56   3
   6   4  -5-46.7448 77.0267   3
  -6  -4   5-100.868 113.777   2
  -6  -4   5-6.85485 10.0867   1
  -6   4   5-71.0651 79.7435   3
  -6   4   5-18.9353 43.1092   6
   6  -4  -5 7.84967 34.5751   2
  -6   4   5 31.3620 32.9980   7
   6   4  -4 7688.32 617.391   3
  -6   4   4 7778.36 441.296   7
  -6   4   4 8277.27 688.506   3
  -6   4   4 7661.92 565.175   6
   6  -4  -4 8364.86 622.714   2
  -6  -4   4 7400.69 752.202   2
  -6   4   3 466.095 115.290   7
   6   4  -3 543.300 163.556   3
  -6  -4   3 559.013 204.061   2
  -6   4   3 425.958 178.157   3
  -6   4   3 374.696 117.597   6
   6  -4  -3 925.889 271.630   5
   6   4  -2 11572.3 722.544   3
  -6   4   2 11836.3 834.192   3
   6  -4  -2 11460.7 895.092   5
   6  -4  -2 10556.3 678.420   7
  -6  -4   2 10744.3 896.358   2
  -6   4   2 11120.4 593.749   7
   6  -4  -2 11529.2 715.969   6
   6  -4  -1 369.590 126.008   7
  -6  -4   1 272.754 165.010   2
  -6   4   1 270.593 94.4835   7
  -6  -4   1 171.388 83.6932   3
   6  -4  -1-23.0455 34.1430   6
   6   4  -1 263.311 105.961   3
   6  -4  -1 261.650 174.449   5
  -6   4   1 365.834 173.153   3
   6   4   0 3856.69 398.026   3
   6  -4   0 4480.73 470.572   7
  -6  -4   0 5053.75 614.564   2
  -6   4   0 4204.58 393.814   7
   6  -4   0 3819.41 529.428   5
  -6   4   0 4028.75 486.943   3
  -6  -4   0 3738.37 402.158   3
  -6   4  -1-80.7925 106.104   3
  -6   4  -1 79.2386 61.3237   7
  -6  -4  -1 109.528 57.0504   3
   6  -4   1 0.32750 129.456   5
  -6  -4  -1 338.838 170.337   2
   6  -4   1 107.400 90.6534   7
   6   4   2 22422.0 901.811   3
  -6   4  -2 22802.9 1186.22   3
  -6   4  -2 21583.6 968.158   7
  -6  -4  -2 23376.6 942.216   3
   6   4   2 17133.0 368.560   1
  -6  -4  -2 22535.5 1286.82   2
   6  -4   2 22458.1 1110.17   7
   6  -4   2 21700.1 1237.75   5
  -6   4  -3 3130.86 459.083   3
   6   4   3 3052.78 202.005   1
  -6  -4  -3 3008.98 458.680   2
   6   4   3 3529.84 350.197   3
   6  -4   3 3485.25 494.242   5
   6  -4   3 3426.28 442.265   7
  -6  -4  -3 3479.69 353.649   3
  -6  -4  -4 112.961 35.6871   2
   6   4   4 91.2779 43.2821   1
  -6   4  -4 103.188 89.5597   3
   6  -4   4 103.473 41.2437   7
  -6  -4  -4 77.1522 29.2808   3
   6  -4   4-2.91400 86.9340   5
   6   4   4 72.6869 53.4382   3
  -6  -4  -5 232.786 159.270   2
   6   4   5 217.613 75.0573   1
   6  -4   5 51.7333 50.6185   7
   6  -4   5 270.143 143.988   5
   6   4   5 63.8276 67.8427   3
  -6   4  -5 143.007 121.731   3
   6   4   6 15491.5 665.697   3
  -6   4  -6 14272.3 1015.16   3
   6  -4   6 16364.2 1041.64   7
  -6  -4  -6 14776.7 1010.60   2
   6  -4   6 15057.4 1018.54   5
   6   4   6 14965.2 630.657   1
   6  -4   7 555.345 224.268   7
  -6   4  -7 256.962 148.591   3
   6  -4   7 314.388 118.297   5
   6   4   7 229.185 82.0724   3
  -6  -4  -7 59.4770 93.8159   2
   6   4   7 343.986 101.354   1
  -6   4  -8 463.115 214.652   3
  -6  -4  -8 108.572 102.001   2
   6   4   8 119.991 55.4507   1
   6  -4   8 30.8806 55.0970   5
   6   4   8 121.000 58.3588   3
   6  -4   8 300.844 132.323   7
   6   4   9 134.326 67.0449   1
  -6   4  -9-7.23974 91.5549   3
   6  -4   9 223.568 188.934   7
   6   4   9-22.0182 52.6514   3
  -6  -4  -9 243.460 155.602   2
   6  -4   9-98.4263 141.276   5
  -6   4 -10 43902.9 1852.45   3
   6   4  10 49189.3 1041.64   3
   6  -4  10 48398.8 1962.69   7
   6   4  10 50976.3 1455.96   1
   6  -4  10 47563.0 1810.86   5
  -6  -4 -10 48838.9 1798.90   2
   6   4  11 106.920 56.5390   3
   6  -4  11 142.257 162.731   7
  -6  -4 -11 57.3412 77.3743   2
  -6   4 -11 98.2871 110.968   3
   6  -4  11-93.0312 134.204   5
   6   4  11 40.8934 46.1865   1
   6   4  12 685.358 199.812   7
   6   4  12 254.959 104.195   1
   6   4  12 361.264 82.8088   3
  -6   4 -12 176.477 63.5433   3
   6  -4  12 431.135 176.692   5
   6  -4  12 363.615 197.764   7
  -6  -4 -12 346.186 148.183   2
   6   4  13 112.205 38.9859   3
   6   4  13 290.893 125.479   1
   6  -4  13 283.246 125.539   5
   6   4  13 198.290 84.9190   7
   6  -4  13 543.727 252.313   7
  -6   4 -13 315.122 188.608   3
  -6   4 -14 10393.6 949.312   3
   6   4  14 9983.28 380.279   3
   6   4  14 10968.2 816.652   7
   6  -4  14 10467.1 848.504   5
   6   4  14 10332.0 764.987   1
   6  -4  14 11330.3 1032.77   7
   6   4  15-6.42380 46.4358   1
   6  -4  15-62.4652 121.317   7
   6  -4  15 98.7393 82.6511   5
  -6   4 -15 7.11780 51.5191   3
   6   4  15-3.79251 37.1380   7
   6   4  15 11.4497 16.4997   3
   6   4  16 1975.03 133.584   3
   6   4  16 2354.96 381.040   1
  -6   4 -16 2167.41 461.773   3
   6  -4  16 2235.64 479.299   7
   6  -4  16 2101.49 374.674   5
   6   4  16 2511.77 405.291   7
   6   4  17 25.4055 52.9253   7
   6   4  17-10.4764 49.6106   1
  -6   4 -17 32.2846 81.2147   3
   6  -4  17-7.42273 137.053   7
  -6   4 -18 22495.1 1493.10   3
   6   4  18 23577.1 1307.56   1
   6   4  18 24653.9 1325.94   7
   6  -4  18 22993.8 1599.36   7
  -6   4 -19 62.3685 67.4411   3
   6  -4  19 104.991 147.386   7
   6   4  19 34.5668 114.576   7
   6   4  19-69.7459 118.991   1
   6   4  20 1634.06 358.206   1
  -6   4 -20 1482.46 398.401   3
   6   4  20 1753.80 357.718   7
   6  -4  20 1702.10 432.003   7
  -6   4 -21-2.57900 60.8093   3
   6  -4  21 192.394 166.727   7
   6   4  21-68.6003 41.6931   7
   6   4  21 120.829 95.8148   1
  -6   4 -22 5562.35 795.149   3
   6   4  22 6057.10 711.325   7
   6  -4  22 6055.78 878.681   7
   6   4  22 5515.48 701.884   1
  -6   4 -23-157.364 154.390   3
   6   4  23 39.7287 102.767   7
   6  -4  23 278.420 212.151   7
   6   4  23 65.5915 127.650   1
  -6   4 -24 2490.26 561.677   3
   6   4  24 2354.92 466.243   7
   6   4  24 2257.86 477.243   1
   6  -4  24 2246.43 566.707   7
   6  -4  25-87.2583 54.0697   7
   6   4  25 217.117 178.500   1
   6   4  25 197.324 143.371   7
   6  -4  26 10305.5 1259.94   7
   6   4  26 9476.84 1029.37   1
   6   4  26 10600.4 1011.09   7
   6   4  27 14.7548 128.612   1
   6  -4  27 128.645 144.843   7
   6  -4  28 3234.65 715.452   7
   6   4  28 3671.44 664.271   1
   6   4  29 397.535 227.408   1
   6  -4  29 209.273 203.008   7
   6  -4  30 1274.92 502.033   7
   6   4  30 1360.31 426.421   1
   6   4  31-82.3298 182.398   1
   6   4  32 2969.64 651.894   1
  -6   6  33 143.788 82.3213   1
  -6   6  32 7974.57 1078.21   1
  -6   6  31 184.476 191.158   1
  -6  -6  31-71.6376 209.412   2
  -6   6  30 134.053 105.696   1
  -6  -6  30 355.205 201.721   2
  -6   6  29 175.779 126.379   1
  -6  -6  29 77.0122 137.028   2
  -6   6  28 9239.70 1092.30   1
  -6  -6  28 9349.87 1331.03   2
  -6  -6  27 157.024 303.455   2
  -6   6  27 64.3246 98.5251   1
  -6  -6  26 1290.81 469.943   2
  -6   6  26 931.752 349.444   1
  -6  -6  25 142.151 93.0495   2
  -6   6  25-4.24327 42.8720   1
  -6   6  25-35.7232 147.935   3
   6  -6 -25 78.4680 57.7925   5
  -6   6  24 10546.8 990.040   3
  -6   6  24 10482.3 1068.52   1
  -6  -6  24 9989.99 1311.73   2
   6  -6 -24 11163.6 1139.15   5
  -6   6  23 13.6571 81.9399   3
   6  -6 -23 255.970 259.854   5
  -6  -6  23 254.861 322.794   2
  -6   6  23-136.618 100.758   1
   6   6 -22 4259.82 764.944   3
  -6   6  22 4601.03 683.813   1
  -6   6  22 4423.41 623.351   3
   6  -6 -22 4839.61 748.796   5
  -6  -6  22 3802.60 778.533   2
  -6   6  21 34.2645 53.4678   3
  -6   6  21 74.4374 84.1651   1
  -6  -6  21-68.2880 97.1051   2
  -6   6  20 14034.1 1150.31   1
  -6  -6  20 13498.7 1454.19   2
  -6   6  20 14536.8 1126.89   3
   6   6 -20 14843.1 1392.96   3
   6  -6 -20 13821.6 1265.16   5
   6   6 -19 161.931 80.8019   3
  -6   6  19 17.2313 28.2255   3
  -6   6  19 132.317 176.428   1
  -6  -6  19-113.074 145.554   2
   6  -6 -19 188.806 176.238   5
   6   6 -18 907.957 322.954   3
  -6   6  18 777.558 252.234   3
  -6   6  18 660.697 233.688   1
  -6   6  18 1107.94 283.480   6
  -6  -6  18 705.389 285.160   2
   6  -6 -18 1281.76 397.592   5
   6   6 -17 643.584 284.525   3
  -6   6  17 385.713 194.674   1
  -6   6  17 384.920 140.340   6
  -6   6  17 410.728 199.533   3
  -6  -6  17 229.753 114.661   2
   6  -6 -17 633.463 271.540   5
   6   6 -16 15449.2 1319.13   3
  -6   6  16 15657.4 1121.61   1
  -6   6  16 15271.7 1129.95   3
  -6  -6  16 17412.9 1571.00   2
   6  -6 -16 14329.7 1290.78   5
  -6   6  16 16629.3 1010.03   6
   6   6 -15-121.779 95.4958   3
   6  -6 -15 181.449 163.979   5
  -6   6  15-194.264 151.045   3
  -6   6  15 58.3736 67.5204   1
  -6   6  15-111.264 80.8365   6
  -6  -6  15-100.242 110.994   2
  -6   6  14 9401.79 877.054   3
   6  -6 -14 8792.40 490.116   2
  -6   6  14 9990.41 875.914   1
   6   6 -14 10601.4 1059.22   3
  -6   6  14 10716.7 779.136   6
   6  -6 -14 9149.66 1030.58   5
  -6  -6  14 8966.20 1105.22   2
   6  -6 -13-25.3287 42.5546   2
   6   6 -13-79.8780 173.266   3
  -6   6  13 52.4174 72.6018   1
  -6   6  13-7.00751 11.3630   7
  -6   6  13 30.8040 39.3086   3
  -6  -6  13-110.596 169.232   2
   6  -6 -13 113.711 116.131   5
  -6   6  13 119.957 89.9597   6
   6   6 -12 7021.73 824.897   3
  -6  -6  12 7175.51 964.486   2
   6  -6 -12 7063.55 885.660   5
  -6   6  12 8206.69 659.966   6
   6  -6 -12 6825.16 516.421   2
  -6   6  12 6902.24 748.436   3
  -6   6  12 7350.42 717.776   1
  -6  -6  11 61.0279 91.6300   2
  -6   6  11 28.4727 73.6617   1
   6  -6 -11 34.3668 44.6846   2
  -6   6  11 153.790 162.917   3
  -6   6  11 118.702 70.6012   6
   6   6 -11 205.264 134.692   3
   6  -6 -11 178.933 163.938   5
   6   6 -10 2920.96 516.511   3
   6  -6 -10 3061.55 386.822   2
  -6   6  10 3377.85 420.502   6
   6  -6 -10 3033.12 589.514   5
  -6   6  10 3101.00 501.939   3
  -6  -6  10 3125.38 622.555   2
  -6  -6   9 471.756 109.879   1
   6  -6  -9 506.752 217.398   5
   6   6  -9 442.576 198.890   3
  -6   6   9 517.968 123.997   7
  -6   6   9 544.044 150.001   6
  -6  -6   9 468.587 297.961   2
   6  -6  -9 479.672 158.339   2
  -6   6   9 413.465 190.068   3
   6   6  -8 10438.8 954.924   3
   6  -6  -8 11017.0 820.676   2
  -6  -6   8 10150.2 479.439   1
  -6  -6   8 10396.6 1126.19   2
  -6   6   8 9355.22 543.485   7
  -6   6   8 9587.14 895.577   3
  -6   6   8 11817.7 766.805   6
   6  -6  -8 12032.7 1161.99   5
   6   6  -7 134.134 204.018   3
  -6  -6   7 24.6800 19.2195   1
  -6   6   7-0.98042 96.0200   7
   6  -6  -7-11.9063 65.4814   2
  -6   6   7-247.566 146.280   3
  -6  -6   7 73.1662 118.763   2
   6  -6  -7-68.0973 73.3706   5
  -6  -6   6 25762.6 1764.83   2
   6  -6  -6 28592.8 1466.45   2
  -6   6   6 25525.1 977.482   7
   6   6  -6 27209.5 1469.06   3
  -6  -6   6 24585.4 842.847   6
   6  -6  -6 25788.0 1681.05   5
  -6  -6   6 21554.5 500.118   1
  -6   6   6 26804.1 1502.01   3
  -6   6   5 0.39162 77.4300   3
  -6  -6   5-34.7281 40.5690   6
  -6   6   5 37.4332 46.3616   7
   6  -6  -5-47.8620 53.8438   2
   6   6  -5 4.67577 40.6884   3
  -6  -6   5 69.0949 74.3648   2
  -6  -6   4 6386.49 867.344   2
   6  -6  -4 6325.76 737.533   2
  -6  -6   4 5129.78 297.054   6
   6  -6  -4 6443.81 833.990   5
   6   6  -4 6586.90 696.824   3
  -6   6   4 5970.52 730.462   3
   6   6  -3 746.602 235.444   3
  -6  -6   3 783.361 293.332   2
  -6   6   3 704.070 247.652   3
   6  -6  -3 647.251 241.972   2
   6  -6  -3 572.538 289.192   5
   6   6  -2 8182.82 752.070   3
  -6  -6   2 7750.63 946.215   2
  -6   6   2 7865.43 828.554   3
   6  -6  -2 7691.99 843.014   2
   6  -6  -2 7859.64 924.470   5
   6   6  -1 22.6379 84.3616   3
   6  -6  -1-69.6417 144.943   5
  -6   6   1-5.38494 83.4833   3
  -6  -6   1 7.36208 137.233   2
   6  -6  -1 62.8883 38.4175   2
   6   6   0 2677.71 404.597   3
  -6  -6   0 2576.87 529.902   2
  -6   6   0 2398.65 459.062   3
   6  -6   0 3818.16 648.742   5
   6  -6   0 2531.16 489.366   2
   6   6   1 10.7885 58.1053   3
  -6  -6  -1-19.1983 61.8980   2
   6  -6   1-136.931 94.4453   5
   6  -6   1-9.45695 132.289   2
   6   6   2 12171.3 874.802   3
  -6   6  -2 12529.0 1089.42   3
   6  -6   2 13631.9 1193.73   2
  -6  -6  -2 13406.9 1211.60   2
   6  -6   2 13617.9 1220.83   5
   6   6   3 2773.13 410.147   3
  -6  -6  -3 2779.41 550.737   2
  -6   6  -3 2616.20 502.684   3
   6  -6   3 2968.58 588.929   5
   6  -6   3 2823.71 543.143   2
  -6  -6  -4 21.3672 57.4006   2
  -6   6  -4-38.4691 135.262   3
   6   6   4-1.36152 53.7513   3
   6  -6   4-113.312 141.092   7
   6  -6   4 216.273 209.302   5
  -6  -6  -5-192.863 145.344   2
   6  -6   5 10.4828 132.899   7
  -6   6  -5 78.7205 143.639   3
   6  -6   5-25.4799 105.491   5
   6   6   5 74.8154 32.5284   3
   6   6   6 11973.5 808.734   3
  -6   6  -6 12777.2 1138.94   3
   6  -6   6 12994.0 1174.61   7
  -6  -6  -6 14228.5 1212.95   2
   6  -6   6 12493.1 1157.34   5
   6   6   7 63.1661 48.1326   1
   6  -6   7-27.2728 183.453   7
  -6   6  -7 89.3298 126.015   3
   6   6   7-23.3143 88.8455   3
   6  -6   7 46.1295 89.0861   5
  -6  -6  -7 69.3713 128.829   2
   6  -6   8-174.227 189.542   7
  -6   6  -8 177.596 145.127   3
   6   6   8 63.0859 46.2796   1
   6   6   8 130.413 88.8033   3
   6  -6   8 170.865 157.078   5
  -6  -6  -8-49.0799 66.2894   2
   6   6   9 107.866 110.325   3
   6  -6   9 119.156 189.993   7
  -6   6  -9-21.8635 52.9521   3
   6   6   9 58.7095 43.9880   1
   6  -6   9-13.0988 94.8507   5
  -6  -6  -9-59.8823 113.345   2
   6   6  10 31559.3 1216.35   3
  -6   6 -10 31792.6 1858.00   3
   6   6  10 32060.9 1120.71   1
  -6  -6 -10 31397.2 1704.72   2
   6  -6  10 31946.8 1869.82   5
   6  -6  10 31617.1 1920.31   7
   6  -6  11-54.4301 103.745   7
   6   6  11 69.4406 58.7812   3
   6  -6  11-57.4500 130.130   5
   6   6  11-12.5005 30.8081   1
  -6  -6 -11-65.9719 115.245   2
  -6   6 -12 595.865 260.570   3
  -6  -6 -12 621.750 239.193   2
   6  -6  12 755.541 294.949   7
   6   6  12 638.516 163.365   3
   6   6  12 762.196 192.617   1
   6  -6  12 526.294 247.731   5
   6   6  13 233.108 103.821   1
   6  -6  13 420.025 261.314   7
   6   6  13 512.337 196.473   7
   6  -6  13 151.403 166.396   5
  -6  -6 -13 323.479 177.529   2
  -6   6 -13 489.460 260.082   3
  -6   6 -14 6972.53 928.727   3
  -6  -6 -14 8128.50 838.878   2
   6  -6  14 7470.21 974.856   7
   6   6  14 7635.75 733.300   7
   6  -6  14 6934.09 871.192   5
   6   6  14 7034.08 655.735   1
  -6   6 -15 269.919 196.761   3
   6   6  15 54.1781 61.1695   1
   6  -6  15 108.346 164.080   7
   6  -6  15 65.3377 145.989   5
   6   6  15 0.99862 64.7036   7
  -6   6 -16 1480.22 435.083   3
   6  -6  16 1412.13 456.187   7
   6   6  16 1215.55 275.325   1
   6   6  16 1542.89 342.399   7
  -6   6 -17-103.539 164.215   3
   6   6  17-64.9842 73.9101   7
   6   6  17-170.174 142.222   1
   6  -6  17 120.605 149.149   7
  -6   6 -18 19176.1 1613.40   3
   6   6  18 19245.4 1209.23   7
   6  -6  18 19685.3 1697.25   7
   6   6  18 16438.8 1153.62   1
  -6   6 -19 210.294 162.542   3
   6  -6  19 56.0312 79.7390   7
   6   6  19-10.5103 51.3347   1
   6   6  19-114.642 115.834   7
  -6   6 -20 1525.74 486.875   3
   6  -6  20 1607.11 502.029   7
   6   6  20 1513.06 374.120   1
  -6   6 -21 312.527 219.380   3
   6  -6  21-111.122 158.188   7
  -6   6 -22 5275.70 900.354   3
   6  -6  22 5977.25 999.694   7
   6  -6  23 53.2099 104.378   7
  -6   6 -23-204.316 170.407   3
  -6   6 -24 1128.80 427.548   3
   6  -6  24 1748.08 523.182   7
   6  -6  25 81.2312 87.7515   7
  -6   6 -25-65.0236 178.146   3
  -6   6 -26 5946.75 1021.09   3
  -6   6 -27 71.5153 222.401   3
  -6  -8  23-58.4309 125.501   2
   6   8 -23-117.675 152.785   3
   6  -8 -23-156.259 196.887   5
   6   8 -22 2703.35 667.782   3
   6  -8 -22 2830.13 695.998   5
  -6  -8  22 2962.22 812.615   2
   6   8 -21-168.293 225.902   3
   6  -8 -21-230.248 192.895   5
  -6  -8  21 93.3149 285.194   2
   6   8 -20 7776.99 1124.09   3
  -6  -8  20 7405.69 1253.50   2
  -6   8  20 8190.93 965.612   3
   6  -8 -20 7089.43 1105.77   5
  -6   8  19-28.5392 105.052   1
   6   8 -19 381.572 266.255   3
  -6   8  19 198.896 93.9116   3
  -6  -8  19 531.672 358.150   2
   6  -8 -19 33.4314 131.318   5
   6   8 -18 156.741 232.401   3
  -6   8  18 340.002 195.994   3
  -6  -8  18 629.698 369.084   2
   6  -8 -18 128.376 240.863   5
  -6   8  18 300.766 199.554   1
   6   8 -17 311.942 255.317   3
  -6   8  17 269.638 199.700   3
   6  -8 -17 236.151 229.118   5
  -6  -8  17-27.7863 140.485   2
   6   8 -16 15137.3 1484.80   3
  -6  -8  16 15998.0 1791.24   2
   6  -8 -16 13729.6 1521.06   5
  -6   8  16 15438.6 1327.15   3
   6   8 -15 179.658 187.818   3
  -6  -8  15 5.56709 251.333   2
   6  -8 -15-116.286 133.633   5
  -6   8  15 75.1915 109.823   3
  -6  -8  14 12240.7 1560.29   2
   6   8 -14 10908.6 1245.98   3
  -6   8  14 11193.4 1132.12   3
   6  -8 -14 10969.7 1353.35   5
   6   8 -13 77.4116 101.855   3
  -6   8  13-26.3456 83.5146   3
  -6  -8  13 266.865 253.628   2
   6  -8 -13 425.511 307.218   5
  -6  -8  12 9387.53 1354.81   2
   6   8 -12 9145.47 1096.21   3
   6  -8 -12 9041.78 1219.43   5
  -6   8  12 8823.81 1000.85   3
  -6   8  11-84.8441 128.448   3
  -6  -8  11-4.38752 111.930   2
   6  -8 -11 253.167 196.377   5
   6   8 -11 37.2027 71.1310   3
   6   8 -10 2832.00 586.460   3
   6  -8 -10 2175.71 577.212   5
  -6  -8  10 2702.54 706.587   2
  -6   8  10 2641.06 554.445   3
   6   8  -9 277.075 209.481   3
   6  -8  -9 429.511 307.187   5
  -6   8   9 65.1975 108.405   3
  -6  -8   9 461.978 308.236   2
   6   8  -8 3255.00 621.856   3
  -6   8   8 3227.54 619.471   3
   6  -8  -8 3021.42 703.013   5
  -6  -8   8 2193.56 634.128   2
   6   8  -7 162.474 140.090   3
  -6  -8   7-327.026 286.194   2
   6  -8  -7-45.3134 78.5387   2
  -6   8   7-149.274 173.162   3
   6  -8  -7-165.803 82.9211   5
   6   8  -6 5768.26 801.952   3
   6  -8  -6 6219.50 811.302   2
  -6  -8   6 5691.42 996.237   2
   6  -8  -6 7031.41 1050.54   5
  -6   8   6 6125.09 852.276   3
   6   8  -5 161.913 160.700   3
  -6   8   5-102.225 183.848   3
  -6  -8   5-161.585 173.277   2
   6  -8  -5 302.354 245.582   2
   6  -8  -5-10.9691 125.611   5
   6   8  -4 2534.24 507.102   3
  -6   8   4 2649.39 564.977   3
   6  -8  -4 2806.23 588.671   2
   6  -8  -4 2183.51 586.895   5
  -6  -8   4 2268.40 615.129   2
   6   8  -3 229.718 164.103   3
   6  -8  -3 190.807 129.724   2
   6  -8  -3 653.781 373.846   5
  -6   8   3 492.757 273.819   3
  -6  -8   3 167.192 75.2156   2
   6   8  -2 7027.65 849.086   3
  -6   8   2 5884.94 848.399   3
   6  -8  -2 6320.17 942.306   2
   6  -8  -2 7469.27 1097.23   5
  -6  -8   2 5569.27 961.452   2
   6  -8  -1 104.689 141.997   2
   6   8  -1 149.400 53.7506   3
  -6  -8   1 57.2758 143.081   2
   6  -8  -1 389.673 270.624   5
  -6   8   1 46.9430 70.9712   3
   6   8   0 4603.14 670.813   3
   6  -8   0 3958.58 768.426   2
  -6  -8   0 3073.68 690.147   2
   6  -8   0 4070.78 798.445   5
  -6   8   0 3346.87 673.826   3
   6   8   1 145.499 154.075   3
  -6  -8  -1 234.665 207.462   2
   6  -8   1 123.521 91.6757   2
   6  -8   1 289.137 225.736   5
  -6   8  -1 59.6080 69.1658   3
   6   8   2 24601.9 1508.54   3
   6  -8   2 19692.0 1781.88   2
   6  -8   2 24330.4 1956.31   5
  -6  -8  -2 24920.1 1969.60   2
  -6   8  -2 24675.4 1809.31   3
  -6  -8  -3 937.119 356.107   2
   6  -8   3 1492.12 517.434   5
   6   8   3 1700.70 394.532   3
  -6   8  -3 1351.13 435.905   3
   6  -8   3 1270.36 457.013   2
   6   8   4-68.0563 61.8934   3
   6  -8   4-185.097 202.796   5
   6  -8   4-95.8222 132.690   2
  -6   8  -4-13.7409 88.8531   3
  -6  -8  -5 196.738 171.125   2
   6   8   5 69.1133 53.8329   3
   6  -8   5 160.127 72.1697   2
   6  -8   5 296.137 213.428   5
  -6   8  -5 213.958 128.591   3
   6   8   6 6674.89 742.055   3
  -6   8  -6 7011.84 1000.20   3
  -6  -8  -6 6366.30 956.178   2
   6  -8   6 6514.57 1073.24   2
   6  -8   6 6570.67 1015.15   5
   6   8   7-107.131 95.1764   3
   6  -8   7 48.5768 165.704   5
  -6   8  -7 67.0690 167.393   3
   6  -8   7 101.675 147.473   2
  -6  -8  -7-286.931 197.740   2
   6  -8   8-106.169 240.797   5
  -6   8  -8 78.2014 111.484   3
   6  -8   8-337.633 248.279   2
  -6  -8  -8 358.914 229.250   2
  -6   8  -9-49.0876 57.0600   3
   6  -8   9 31.0337 140.968   5
   6  -8   9 314.916 250.008   2
  -6  -8  -9 233.230 183.184   2
  -6   8 -10 16467.3 1570.27   3
   6  -8  10 15258.4 1683.71   2
  -6  -8 -10 18420.6 1496.03   2
   6  -8  10 15055.4 1552.83   5
   6  -8  11 152.766 223.490   5
   6  -8  11-43.3034 106.446   2
  -6  -8 -11 280.289 205.808   2
  -6   8 -11-119.368 212.794   3
  -6   8 -12-200.344 162.940   3
  -6  -8 -12-32.2683 145.161   2
   6  -8  12-183.118 220.203   2
   6  -8  13 29.2570 225.378   2
  -6   8 -13 5.92767 179.813   3
  -6   8 -14 7871.52 1129.87   3
   6  -8  14 7533.09 1217.77   2
  -6   8 -15 31.6840 138.324   3
   6  -8  15 24.6415 118.367   2
  -6   8 -16 1150.23 443.716   3
   6  -8  16 1050.00 425.690   2
  -6   8 -17 132.008 136.810   3
   6  -8  17 135.751 155.833   2
  -6   8 -18 8621.80 1239.46   3
   6  -8  18 8153.38 1324.09   2
  -6   8 -19 50.8119 61.2180   3
   6  -8  19 198.954 238.414   2
  -6  10  14 3438.05 714.918   3
  -6  10  13-200.231 175.826   3
  -6  10  12 3062.71 689.246   3
   6  10 -11-1.56808 90.9550   3
  -6  10  11-17.8281 71.9897   3
   6  10 -10 1165.69 440.446   3
  -6 -10  10 955.204 484.134   2
  -6  10  10 1211.53 450.436   3
  -6  10   9 228.318 161.962   3
   6  10  -9 20.9923 191.730   3
  -6 -10   9 98.6218 147.843   2
  -6  10   8 5190.55 912.039   3
  -6 -10   8 6281.68 1254.48   2
   6  10  -8 5043.00 890.268   3
  -6  10   7 45.1622 80.1212   3
   6  10  -7 77.9946 104.626   3
  -6 -10   7-50.0648 262.987   2
  -6  10   6 13201.2 1446.66   3
   6  10  -6 11582.8 1318.01   3
  -6 -10   6 11499.8 1660.60   2
   6  10  -5 449.425 227.197   3
  -6 -10   5 83.1840 118.448   2
   6 -10  -5 391.955 278.156   5
  -6  10   5 174.820 171.193   3
  -6 -10   4 2286.94 740.320   2
   6  10  -4 2420.47 573.654   3
   6 -10  -4 1667.00 590.856   5
  -6  10   4 2661.14 633.844   3
   6  10  -3-132.038 139.347   3
  -6  10   3 80.8688 167.527   3
  -6 -10   3-553.398 355.570   2
   6 -10  -3 535.810 434.766   5
  -6  10   2 5543.28 957.907   3
  -6 -10   2 4571.98 1009.10   2
   6 -10  -2 5123.10 1068.47   5
   6  10  -2 5189.08 846.019   3
   6  10  -1-227.559 176.980   3
  -6 -10   1-230.188 227.550   2
  -6  10   1-147.956 251.159   3
  -6 -10   0 1042.28 485.466   2
   6  10   0 454.455 222.449   3
  -6  10   0 656.610 352.542   3
   6 -10   0 803.767 453.924   5
  -6 -10  -1 322.395 261.158   2
   6  10   1-144.120 209.859   3
  -6  10  -1 266.222 174.294   3
  -6  10  -2 7727.52 1153.29   3
  -6 -10  -2 7036.84 1204.29   2
  -6 -10  -3-43.3563 100.280   2
  -6  10  -3 597.155 352.228   3
   6 -10   3 1018.38 485.044   2
   6 -10   4 82.6538 139.448   2
   6 -10   5 439.282 316.718   2
   6 -10   6 4304.44 1024.76   2
   6 -10   7 395.888 349.472   2
   6 -10   8 66.0949 133.147   2
   6 -10   9 359.194 302.167   2
  -7  -1  37 5397.10 871.235   7
  -7   1  37 6704.09 1010.44   1
  -7  -1  37 5750.97 923.719   1
  -7  -1  36 74.8822 85.1195   7
  -7  -1  36-185.912 105.262   1
  -7   1  36 112.924 133.848   1
  -7   1  35 261.367 245.692   1
  -7  -1  35 530.724 269.077   1
  -7  -1  35 428.654 228.307   7
  -7  -1  35 627.243 275.461   2
  -7  -1  34 117.517 76.2162   7
  -7   1  34 206.887 213.561   1
  -7  -1  34-10.9483 75.5319   1
  -7  -1  34 55.7689 87.9501   2
  -7  -1  33 10074.2 1093.18   7
  -7   1  33 9449.94 930.095   7
  -7   1  33 10011.9 1137.23   1
  -7  -1  33 9609.60 1093.96   1
  -7  -1  33 8530.41 977.602   2
  -7  -1  32-36.8738 87.1089   7
  -7  -1  32 212.873 205.695   1
  -7   1  32 207.058 225.623   1
  -7   1  32 157.816 145.628   7
  -7  -1  31 1766.27 433.972   1
  -7   1  31 1847.17 392.457   7
  -7   1  31 2101.48 509.113   1
  -7  -1  31 1581.81 407.706   7
  -7  -1  30-101.286 88.7160   7
  -7   1  30-33.4105 73.5053   7
  -7   1  30 262.299 206.423   1
  -7  -1  30 44.2094 151.933   1
  -7  -1  29 23394.8 1549.97   1
  -7  -1  29 20300.5 1427.69   7
  -7   1  29 21662.6 1531.82   1
  -7   1  29 22753.6 1312.96   7
  -7   1  28 88.7915 97.4403   7
  -7  -1  28 74.3661 86.9632   7
  -7   1  27 968.717 324.463   1
  -7   1  27 1186.47 276.513   7
  -7  -1  27 1072.61 306.126   7
  -7   1  26 142.611 145.312   7
  -7   1  26-5.18610 107.693   1
  -7  -1  26 42.0955 51.2543   7
  -7  -1  25 22671.7 1370.64   7
  -7   1  25 22342.6 1408.13   1
  -7   1  25 24773.4 1214.78   7
  -7  -1  24-23.0766 92.2263   7
  -7   1  24 187.481 106.914   7
  -7   1  24 232.365 198.783   1
  -7   1  23 165.236 110.465   7
  -7  -1  23-149.906 116.865   7
  -7   1  23-5.93379 109.053   1
   7  -1 -23 116.087 72.5036   4
  -7  -1  22-25.0753 53.6172   7
  -7   1  22-4.55074 34.2701   7
  -7   1  22 93.2397 103.124   1
   7  -1 -22-17.7022 46.4754   4
  -7  -1  21 17791.3 1099.17   7
  -7   1  21 17763.6 902.060   7
  -7   1  21 18629.3 1152.05   1
   7  -1 -21 17684.0 965.120   4
  -7  -1  20 18.7112 105.464   7
  -7   1  20 56.1408 82.0626   7
   7  -1 -20 18.7748 39.4340   7
   7  -1 -20 0.24734 43.6353   4
  -7   1  20 52.9419 167.595   1
  -7  -1  19 17723.7 1031.55   7
   7  -1 -19 17171.5 955.136   4
   7  -1 -19 16146.2 825.079   7
  -7   1  19 17009.6 820.137   7
  -7   1  19 18042.9 1076.87   1
  -7   1  18-12.5122 96.6552   1
  -7  -1  18 27.3990 64.8469   7
  -7  -1  18 84.7789 130.096   2
   7  -1 -18 38.4482 69.3185   4
  -7   1  18-25.1880 50.5406   7
   7  -1 -18 45.8373 50.4741   7
  -7   1  17 18189.1 775.219   7
  -7   1  17 19570.7 1062.97   1
  -7  -1  17 19936.3 1029.16   2
   7  -1 -17 19514.5 1014.10   4
   7  -1 -17 18574.9 807.566   7
  -7  -1  17 19449.2 1025.01   7
  -7  -1  16 195.429 97.2236   7
  -7  -1  16 178.013 71.9968   2
   7  -1 -16 271.157 92.7075   7
  -7   1  16 468.589 174.942   1
  -7   1  16 158.220 74.5649   7
  -7   1  16 219.932 75.6807   2
   7  -1 -16 365.733 149.777   4
   7  -1 -15 263.230 89.1468   7
   7   1 -15-71.0554 59.7029   7
  -7   1  15 102.207 54.1007   1
  -7   1  15 118.764 62.5619   7
  -7   1  15 227.784 70.2428   2
  -7  -1  15 177.436 72.3689   2
   7  -1 -15 334.243 132.725   4
  -7  -1  14-15.8967 33.5189   1
   7   1 -14 179.361 99.1668   7
  -7   1  14 163.289 104.371   1
  -7  -1  14 71.3957 35.4635   2
   7  -1 -14 119.678 54.4084   7
  -7   1  14 25.0022 30.2525   2
   7  -1 -14 187.073 93.6951   4
  -7   1  13 52659.5 977.969   2
  -7  -1  13 51819.5 1507.59   2
   7   1 -13 49775.6 1501.73   7
   7  -1 -13 48868.2 1062.52   7
  -7  -1  13 50369.8 1383.97   1
   7  -1 -13 49655.9 1565.66   4
  -7   1  13 51288.3 1539.18   1
   7  -1 -12 3.54115 23.4834   7
   7   1 -12 4.40231 40.7600   7
  -7  -1  12 62.2584 50.8711   1
  -7  -1  12 23.1524 40.4176   2
  -7   1  12-27.6616 35.6182   2
  -7   1  12-46.7919 77.0231   1
   7  -1 -12 73.3890 99.9362   4
  -7  -1  11 12413.6 629.733   1
  -7   1  11 11661.9 410.373   2
   7   1 -11 11743.4 706.974   7
  -7  -1  11 13383.8 737.469   2
  -7   1  11 12140.1 714.150   1
   7  -1 -11 11809.6 458.341   7
   7  -1 -11 11894.6 743.914   4
  -7   1  10 22.5692 19.7424   2
   7   1 -10 42.5880 25.1722   7
  -7  -1  10 0.73714 23.8125   2
  -7   1  10-44.0408 71.5637   1
   7  -1 -10 37.1931 13.8236   7
  -7  -1  10-20.6087 53.5414   1
  -7  -1   9 24801.6 812.199   1
  -7   1   9 26063.7 977.918   1
  -7  -1   9 25489.3 996.608   2
  -7   1   9 21948.3 516.110   2
   7  -1  -9 23247.9 576.936   7
   7   1  -9 27749.8 1042.01   2
   7  -1  -9 26292.4 1088.97   4
  -7  -1   8 0.67095 42.2454   1
  -7   1   8-163.374 88.3039   1
  -7  -1   8 6.86154 36.4373   2
   7  -1  -8-1.46436 7.66001   2
  -7   1   8-18.7943 20.6852   2
   7  -1  -8 160.731 115.235   4
   7  -1  -7 5452.16 278.603   2
  -7   1   7 5611.80 425.592   1
   7   1  -7 5353.22 340.650   1
  -7  -1   7 5558.31 348.320   1
  -7   1   7 5423.41 264.399   2
  -7  -1   7 5347.47 447.353   2
   7  -1  -7 5951.32 510.724   4
   7  -1  -6 63.7171 33.2966   2
  -7  -1   6 93.6513 53.5823   2
   7   1  -6 60.3020 36.2846   1
  -7   1   6 69.1714 33.4979   2
  -7   1   6 65.6284 45.6486   1
  -7  -1   6 73.6845 37.7622   1
   7  -1  -6 377.073 162.404   4
  -7   1   5 29657.0 930.800   1
  -7  -1   5 29125.9 715.237   1
   7  -1  -5 29136.5 695.264   2
   7   1  -5 29669.6 731.731   1
   7  -1  -5 30533.0 1134.29   4
  -7  -1   5 29626.5 1025.79   2
  -7   1   4 1.90717 44.4601   1
   7   1  -4 6.66622 18.8550   1
  -7  -1   4 54.2875 63.5213   2
  -7  -1   4 52.5993 29.6546   1
   7  -1  -4-21.8039 32.5331   7
   7  -1  -4-2.22991 23.9534   2
   7   1  -3 89953.7 1139.57   1
  -7  -1   3 86575.5 1810.58   2
   7  -1  -3 88349.6 1213.63   7
   7  -1  -3 90627.8 1351.10   2
   7  -1  -3 93522.0 1916.26   4
  -7   1   3 91409.1 1593.36   6
  -7  -1   2 415.689 123.883   2
   7  -1  -2 285.137 76.8574   7
  -7  -1   2 423.732 104.342   6
  -7   1   2 498.044 142.703   6
   7  -1  -2 434.253 94.0146   2
   7   1  -2 404.206 78.8925   1
   7  -1  -2 475.316 138.691   4
   7  -1  -1 11922.5 501.344   7
  -7  -1   1 12755.7 693.447   2
  -7   1   1 12118.5 604.089   6
  -7  -1   1 11211.5 464.913   6
   7  -1  -1 12380.2 674.105   4
   7  -1   0 154.597 84.2993   4
  -7   1   0 147.865 62.6812   6
  -7  -1   0 110.114 59.9524   2
  -7   1   0 166.053 60.8994   7
  -7  -1   0 89.0725 55.8412   6
   7   1   0 89.2084 30.2915   6
  -7   1   0 52.0010 26.1327   3
   7  -1   0 34.9441 35.2248   7
   7   1   1 22565.3 665.607   6
  -7   1  -1 21425.0 740.539   3
  -7  -1  -1 21134.6 901.551   2
   7  -1   1 19783.5 830.878   4
  -7   1  -1 21698.2 745.936   7
   7  -1   1 20475.3 746.672   7
  -7   1  -2-103.855 65.4305   3
  -7  -1  -2-11.5108 31.1996   2
   7  -1   2-42.1836 71.3921   4
   7  -1   2-136.988 63.0355   7
   7   1   2 28.3821 47.5054   6
   7   1   3 1229.79 161.270   6
   7  -1   3 868.654 166.003   7
  -7  -1  -3 1368.83 228.494   2
   7  -1   3 1179.11 191.450   4
  -7   1  -3 911.753 158.928   3
  -7   1  -4-28.7626 41.6238   3
   7   1   4 34.8525 30.5523   6
   7  -1   4-14.7860 25.9883   3
  -7  -1  -4-17.9946 51.4752   2
   7  -1   4-9.20400 29.4580   4
   7  -1   4 8.45187 48.6341   7
   7  -1   5 56222.7 1322.35   4
  -7   1  -5 56771.6 1288.66   3
   7   1   5 58065.6 1472.75   7
  -7  -1  -5 60584.4 1607.01   2
   7  -1   5 55853.5 1462.51   7
   7  -1   5 57929.8 1240.28   3
   7  -1   6-9.29202 15.7080   3
  -7   1  -6 107.702 59.2478   3
   7  -1   6 109.313 61.3869   7
   7   1   6 47.3916 57.3691   7
   7  -1   6 60.9818 51.0781   4
  -7   1  -7 378.397 122.264   3
   7  -1   7 484.923 118.736   3
   7   1   7 264.945 115.901   7
   7   1   7 416.836 141.816   2
   7  -1   7 332.374 91.2363   4
   7  -1   7 230.090 112.222   7
   7   1   8 63.6638 37.1627   7
   7  -1   8 4.08046 21.9673   3
   7  -1   8 75.1300 52.6182   7
  -7   1  -8-12.8226 20.6243   3
   7   1   8-20.4275 30.8501   2
  -7   1  -9 24912.3 936.423   3
   7   1   9 25356.6 1085.50   7
   7  -1   9 24412.5 1118.77   7
   7  -1   9 24265.4 886.367   3
  -7   1 -10-54.9378 54.3445   3
   7  -1  10 48.9140 48.8579   3
   7   1  10-56.3838 47.4954   7
   7   1  10 12.8894 12.9029   3
   7  -1  10 95.1574 106.323   7
  -7   1 -11 449.031 133.023   3
   7   1  11 417.121 89.3546   5
   7   1  11 559.161 176.966   7
   7  -1  11 375.735 114.600   3
   7  -1  11 580.554 185.819   7
   7   1  11 410.418 62.7873   3
   7  -1  12 141.537 60.3678   5
  -7   1 -12 212.553 83.5579   3
   7  -1  12 86.3644 126.188   7
   7   1  12 172.251 45.5913   3
   7  -1  12 142.855 70.0819   3
   7   1  12 156.627 51.7939   5
   7   1  12 489.165 190.097   7
  -7   1 -13 55029.5 1540.05   3
   7  -1  13 52343.6 1033.01   5
   7   1  13 54967.1 1798.50   7
   7  -1  13 53610.7 1485.37   3
   7   1  13 50017.5 837.975   3
   7   1  13 51445.6 814.739   5
   7  -1  13 53455.3 1875.97   7
   7  -1  14 6.34432 128.812   7
   7   1  14 10.6185 72.4350   7
   7   1  14 12.6981 15.7549   3
   7  -1  14 105.255 74.5005   3
  -7   1 -14 64.8006 60.1875   3
   7  -1  14-12.2694 17.7107   5
  -7   1 -15 426.829 139.243   3
   7  -1  15 365.848 147.790   7
   7   1  15 454.746 91.7021   3
   7  -1  15 510.042 154.908   3
   7   1  15 703.579 221.847   7
   7  -1  15 326.524 67.3618   5
  -7   1 -16 49.4304 79.3037   3
   7   1  16 13.4242 89.4135   7
   7   1  16 29.4790 23.7744   3
   7  -1  16-19.4455 90.9258   7
  -7   1 -17 9070.37 689.100   3
   7  -1  17 9045.56 849.411   7
   7   1  17 8781.05 793.571   7
   7   1  17 8668.86 442.069   3
   7   1  18 26.9363 73.7338   7
   7  -1  18-87.2544 128.637   7
   7   1  18-9.13849 17.6969   3
   7  -1  19 3208.98 533.613   7
   7   1  19 3243.13 512.659   7
   7  -1  20-13.4687 63.8668   7
   7   1  20 116.283 91.8590   7
   7   1  21 20300.4 1347.37   7
   7  -1  21 19110.5 1374.42   7
   7   1  22 165.068 199.400   7
   7  -1  22-59.4809 126.707   7
   7  -1  23 4289.42 684.235   7
   7   1  23 3452.23 575.663   7
   7   1  24-34.5992 74.9808   7
   7  -1  24-192.088 175.030   7
   7   1  25 3778.81 629.318   7
   7  -1  25 2973.45 599.252   7
   7  -1  26 211.678 218.170   7
   7   1  26-9.33887 119.070   7
   7  -1  27 6860.17 934.471   7
   7   1  27 6362.45 856.178   7
   7  -1  28-55.8808 107.737   7
   7   1  28-22.0510 89.5110   7
   7  -1  29 11276.4 1260.15   7
   7   1  29 11194.6 1189.03   7
   7   1  30 55.1426 106.259   7
   7  -1  30 285.880 217.238   7
   7   1  31 7557.04 1019.31   7
   7  -1  31 7362.40 1070.83   7
   7  -1  32 154.197 152.186   7
   7   1  32-116.329 173.917   7
   7  -1  33 1655.62 518.340   7
   7   1  33 1990.36 567.863   7
   7   1  34 728.938 337.037   7
  -7  -3  38 619.325 395.229   2
  -7  -3  37 8861.29 1142.40   1
  -7  -3  37 7315.45 1105.33   2
  -7   3  36 208.441 163.817   1
  -7  -3  36 136.354 196.945   2
  -7  -3  36 30.4458 40.7235   1
  -7  -3  35 14.5877 123.679   1
  -7   3  35 271.969 214.392   1
  -7  -3  35-155.332 191.375   2
  -7   3  34 39.7453 150.621   1
  -7  -3  34 131.233 155.679   2
  -7   3  33 10097.4 1169.24   1
  -7  -3  33 9654.28 1202.84   2
  -7   3  32-101.807 199.750   1
  -7  -3  32 229.064 226.041   2
  -7   3  31 1716.15 473.084   1
  -7  -3  31 1742.10 477.703   2
  -7   3  30 53.1507 43.8736   1
  -7  -3  30 355.552 226.127   2
  -7  -3  29 9837.05 1132.53   2
  -7   3  29 9849.59 1072.80   1
  -7   3  28 195.927 170.074   1
  -7  -3  28 145.028 166.476   7
  -7  -3  28 700.273 323.441   2
  -7   3  27-126.171 127.555   1
  -7  -3  27 81.3780 135.323   7
  -7  -3  27 187.693 185.412   2
  -7   3  26 114.645 126.350   1
  -7  -3  26-8.51257 90.6902   7
   7  -3 -26 81.3727 73.4526   5
  -7  -3  26 166.078 170.247   2
  -7   3  26 124.739 79.0885   7
  -7   3  25 19769.8 855.449   7
  -7  -3  25 17817.0 1417.12   2
  -7  -3  25 18763.1 1426.85   7
   7  -3 -25 19598.4 1120.51   5
  -7   3  25 19298.3 1363.37   1
   7  -3 -24-33.0082 93.9592   5
  -7   3  24 162.480 145.236   1
  -7  -3  24 163.957 207.098   2
  -7   3  24 75.5821 54.4628   7
  -7   3  23 420.464 111.485   7
  -7  -3  23 437.820 216.734   2
  -7   3  23 406.775 80.9864   2
  -7   3  23 427.198 198.659   1
  -7   3  22-1.02240 15.2338   7
  -7   3  22 51.9723 28.6094   2
  -7  -3  22 89.7751 113.339   2
  -7   3  22 91.0269 133.430   1
  -7   3  21 26877.0 803.385   7
  -7  -3  21 25999.0 1576.32   2
  -7   3  21 25913.9 1455.71   1
  -7   3  20 470.402 231.485   1
  -7   3  20 318.940 89.5635   7
  -7  -3  20 276.493 216.581   2
  -7   3  19 20427.5 1230.17   1
  -7  -3  19 21174.4 1362.47   2
  -7   3  19 19830.7 581.321   7
  -7   3  18-9.68549 139.678   1
  -7   3  18 79.1107 34.1085   7
  -7  -3  18 229.688 173.719   2
  -7   3  17 14419.4 1002.63   1
  -7  -3  17 16019.6 1150.74   2
  -7  -3  16 575.314 216.953   2
  -7   3  16 819.942 240.952   1
  -7  -3  15 961.734 270.383   2
  -7   3  15 752.665 225.118   1
  -7   3  14 270.599 148.907   1
  -7  -3  14-73.8392 91.2778   2
  -7   3  13 34017.2 1382.40   1
  -7  -3  13 33843.7 1575.40   2
   7   3 -12-70.6550 45.6307   3
  -7   3  12 109.879 57.2824   1
  -7  -3  12 76.4785 72.7708   2
   7   3 -11 12786.2 875.272   3
  -7  -3  11 12600.8 945.348   2
  -7   3  11 11634.8 776.469   1
   7   3 -10 78.5679 107.918   3
  -7  -3  10-117.098 102.867   2
  -7   3  10 5.15098 66.2135   1
   7   3  -9 19470.4 1008.20   3
  -7   3   9 19536.3 955.082   1
  -7  -3   9 19438.9 1141.70   2
   7   3  -8 190.599 111.584   3
  -7  -3   8 140.094 76.4984   2
  -7   3   8 290.910 138.907   1
   7  -3  -8 142.165 50.0226   2
   7   3  -7 13764.1 806.711   3
  -7   3   7 12155.0 311.364   7
  -7   3   7 14316.1 779.769   1
  -7  -3   7 12255.6 419.529   1
  -7  -3   7 13990.8 963.745   2
   7  -3  -7 12904.7 518.381   2
  -7   3   7 13271.9 723.033   6
  -7  -3   6 288.331 55.6291   1
   7   3  -6 454.652 161.225   3
   7  -3  -6 261.806 101.340   1
  -7   3   6 305.883 60.0520   7
  -7  -3   6 330.304 124.713   3
  -7  -3   6 462.245 163.375   2
  -7   3   6 285.804 103.303   6
  -7   3   6 432.035 130.885   1
  -7   3   6 297.056 103.395   3
   7   3  -5 13441.8 750.831   3
  -7  -3   5 13323.8 757.601   3
  -7  -3   5 13397.0 934.519   2
   7  -3  -5 15054.5 806.444   1
  -7   3   5 13211.8 446.415   7
  -7   3   5 13156.9 717.616   6
   7  -3  -5 12923.8 518.402   7
  -7   3   5 14111.3 754.667   1
  -7   3   5 14018.2 807.640   3
   7   3  -4 140.960 111.262   3
  -7   3   4 11.5970 59.6533   3
   7  -3  -4 135.093 61.7526   7
  -7   3   4 10.0161 20.0751   7
  -7   3   4 134.260 103.974   6
  -7  -3   4 86.7283 70.3781   3
   7  -3  -4 26.0784 52.4727   1
  -7  -3   4 180.595 144.642   2
  -7  -3   3 27460.2 1307.51   2
   7   3  -3 25774.4 968.625   3
   7  -3  -3 29094.0 1090.28   1
  -7  -3   3 27953.6 1024.17   3
  -7   3   3 26141.9 745.112   7
  -7   3   3 28215.0 1151.95   3
  -7   3   3 27097.8 1038.07   6
   7  -3  -3 26092.3 865.560   7
   7   3  -2 1201.01 209.354   3
   7  -3  -2 1102.93 210.193   1
   7  -3  -2 1650.64 261.474   6
  -7  -3   2 1080.64 260.341   2
  -7  -3   2 1219.36 208.201   3
  -7   3   2 1254.25 245.249   3
  -7   3   2 1050.17 185.097   6
   7  -3  -2 977.122 176.074   7
  -7   3   2 1243.63 174.863   7
   7   3  -1 8725.84 518.058   3
   7  -3  -1 9772.14 623.613   1
  -7  -3   1 8886.58 540.849   3
   7  -3  -1 10124.3 653.467   6
  -7   3   1 8827.19 667.585   3
  -7   3   1 8844.70 494.741   7
  -7  -3   1 8994.54 748.832   2
   7  -3  -1 8306.87 532.019   7
  -7   3   1 8742.79 596.332   6
   7   3   0 264.714 102.469   3
  -7  -3   0 330.197 161.649   2
  -7   3   0 354.630 104.288   7
  -7   3   0 261.317 111.915   3
   7  -3   0 333.735 121.917   6
   7   3   0 323.359 143.291   5
   7   3   0 469.866 173.122   2
  -7  -3   0 283.553 99.8178   3
   7  -3   0 388.273 121.944   7
   7   3   1 16064.5 660.298   3
   7   3   1 18602.1 1087.05   2
  -7  -3  -1 16996.1 680.179   3
   7   3   1 15369.2 354.254   1
   7  -3   1 17280.0 826.285   7
  -7  -3  -1 17280.3 1041.92   2
  -7   3  -1 16727.0 752.784   7
  -7   3  -1 18179.3 944.121   3
   7   3   1 17002.2 946.213   5
  -7  -3  -2 13.3979 104.446   2
   7   3   2 112.706 60.7619   3
  -7  -3  -2 36.8895 13.3383   3
   7  -3   2 41.6120 79.3015   7
  -7   3  -2-71.7711 99.1110   3
  -7   3  -2 23.3800 13.0468   7
   7   3   2 102.813 38.7098   2
   7   3   2 113.406 75.5193   5
   7   3   3 4887.85 325.987   3
  -7   3  -3 5316.62 527.440   3
   7  -3   3 5251.90 486.117   7
  -7  -3  -3 5165.20 337.153   3
  -7   3  -3 4938.88 447.611   7
  -7  -3  -3 5560.55 586.758   2
   7   3   3 5106.81 512.791   5
   7  -3   4 309.795 158.718   7
  -7   3  -4 13.3674 89.4635   3
   7   3   4 302.271 95.9304   3
  -7  -3  -4 16.5260 19.6024   3
  -7   3  -4 193.528 105.299   7
   7   3   4 32.7863 12.8342   6
   7   3   4 113.064 80.4188   5
  -7  -3  -4 1.12278 51.7151   2
   7   3   5 90082.9 1219.84   3
  -7   3  -5 91113.5 2271.88   3
   7   3   5 93480.6 2178.46   5
   7  -3   5 91894.4 2201.02   7
  -7  -3  -5 94210.0 2362.19   2
   7   3   5 87449.0 1091.32   6
   7   3   6 119.271 44.7021   3
  -7   3  -6 71.7016 71.3154   3
   7   3   6 150.877 103.465   5
   7   3   6 27.3072 21.4066   6
  -7  -3  -6 32.6701 53.2071   2
   7   3   7 41.1532 21.2548   3
   7  -3   7 161.021 124.248   7
  -7   3  -7 295.980 207.072   3
   7   3   7 102.195 77.4204   5
  -7  -3  -7 96.9223 67.8249   2
   7  -3   7 26.9708 73.7491   5
   7   3   8 77.1603 26.5288   3
  -7  -3  -8 350.525 158.258   2
  -7   3  -8 39.0583 52.9498   3
   7  -3   8 180.098 131.595   7
   7  -3   8 142.799 94.3749   5
   7   3   8 86.2445 76.9449   5
  -7   3  -9 10835.1 818.074   3
  -7  -3  -9 10421.3 793.277   2
   7  -3   9 10608.2 755.900   5
   7  -3   9 10891.7 844.807   7
   7   3   9 9797.34 687.875   5
   7  -3  10 52.4129 141.887   7
   7   3  10 22.2731 50.8330   5
  -7  -3 -10-1.43254 50.1696   2
   7   3  10 94.2226 105.360   7
   7  -3  10 23.1764 47.0244   5
  -7   3 -10-37.7727 86.7691   3
  -7   3 -11 62.1198 86.7994   3
   7  -3  11 38.8576 76.8957   5
   7  -3  11 350.418 119.890   7
   7   3  11 277.695 114.048   5
   7   3  11 135.649 102.358   7
   7   3  12 833.843 212.301   7
   7  -3  12 603.139 183.886   5
  -7   3 -12 672.874 207.552   3
   7  -3  12 813.109 270.048   7
   7   3  12 843.597 196.156   5
  -7   3 -12-38.8329 46.7263   4
  -7   3 -13 21643.3 1247.43   3
   7   3  13 22811.5 1159.61   7
   7   3  13 20862.4 956.916   5
   7  -3  13 23101.5 1096.04   5
   7  -3  13 20286.5 1280.70   7
  -7   3 -14-9.23497 112.790   3
   7   3  14-300.134 138.316   7
   7  -3  14 31.5080 111.168   7
   7  -3  14-67.6675 75.4618   5
  -7   3 -14 95.5928 99.1030   4
  -7   3 -15 210.746 129.884   3
   7   3  15 199.963 127.597   7
   7  -3  15 153.288 109.894   7
   7  -3  15 166.608 127.457   5
  -7   3 -15-28.7335 41.5561   4
  -7   3 -16-2.94057 88.1243   3
   7  -3  16-148.531 150.035   7
  -7   3 -16 1.09267 16.2937   4
   7  -3  16-14.8199 23.5993   5
   7   3  16-90.8046 137.621   7
  -7   3 -17 13316.6 1041.90   3
   7  -3  17 13228.1 796.948   5
   7  -3  17 13623.8 1137.68   7
   7   3  17 13067.3 970.961   7
  -7   3 -18 121.493 114.275   3
   7   3  18 64.6490 49.2527   7
   7  -3  18 143.747 103.188   7
  -7   3 -19 4975.16 667.552   3
   7   3  19 5877.03 676.258   7
   7  -3  19 5149.75 732.077   7
  -7   3 -20 75.0178 65.4675   3
   7   3  20 246.175 159.012   7
  -7   3 -21 23165.1 1481.24   3
   7   3  21 23863.3 1427.15   7
   7  -3  21 23774.1 1660.27   7
  -7   3 -22 360.959 235.799   3
   7  -3  22 384.052 277.528   7
   7   3  22 554.605 226.349   7
   7  -3  23 3046.09 602.722   7
  -7   3 -23 3347.33 586.700   3
   7   3  23 2780.36 507.770   7
   7  -3  24-4.90070 130.349   7
   7   3  24 226.619 176.144   7
   7  -3  25 2384.04 591.509   7
   7   3  25 2984.72 546.453   7
   7   3  26 68.4738 105.730   7
   7  -3  26 370.324 290.198   7
   7  -3  27 6466.69 981.633   7
   7   3  27 5764.25 797.089   7
   7   3  28 539.031 298.990   7
   7  -3  28 296.535 278.222   7
   7   3  29 11291.6 1150.93   7
   7  -3  29 11940.2 1376.13   7
   7   3  30-15.2147 81.9270   7
   7  -3  30 202.191 272.722   7
   7  -3  31 6769.04 1095.46   7
   7   3  31 5742.17 887.538   1
   7   3  32 97.6838 44.1916   1
  -7   5  34 26.5770 148.599   1
  -7  -5  34 258.161 228.515   2
  -7   5  33 7689.45 1070.67   1
  -7  -5  33 6412.00 1108.89   2
  -7   5  32-113.135 160.251   1
  -7  -5  32 222.263 172.438   2
  -7  -5  31 2687.51 691.140   2
  -7   5  31 1862.21 506.054   1
  -7   5  30 195.039 203.060   1
  -7  -5  30 526.826 324.083   2
  -7  -5  29 16694.7 1688.45   2
  -7   5  29 17938.8 1514.68   1
  -7  -5  28 155.947 224.693   2
  -7   5  28 142.613 186.655   1
  -7   5  27 1454.85 415.200   1
  -7  -5  27 1247.10 443.296   2
   7  -5 -26-103.803 102.060   5
  -7   5  26 229.147 146.602   1
  -7  -5  26-45.9950 109.620   2
  -7  -5  25 17949.9 1657.11   2
  -7   5  25 17990.8 1410.01   1
   7  -5 -25 17738.9 1321.66   5
  -7   5  24 107.409 60.4278   1
  -7  -5  24 66.6120 133.641   2
   7  -5 -24 66.8978 135.213   5
  -7   5  23 195.751 182.276   1
  -7  -5  23 401.964 249.480   2
   7  -5 -23 674.822 258.671   5
  -7   5  22-67.7480 99.4731   1
  -7  -5  22 175.801 154.089   2
   7  -5 -22-70.3568 125.438   5
  -7  -5  21 10275.4 1181.77   2
  -7   5  21 9909.45 959.396   1
   7  -5 -21 9432.99 978.259   5
  -7  -5  20-50.0548 114.618   2
   7  -5 -20 74.9547 103.049   5
   7   5 -19 4896.74 744.266   3
  -7   5  19 4182.05 577.778   3
  -7   5  19 4618.53 635.514   1
  -7  -5  19 5032.53 805.665   2
   7  -5 -19 4467.83 672.808   5
   7   5 -18 165.418 191.269   3
  -7   5  18 264.241 173.165   1
  -7   5  18 232.746 146.976   3
  -7  -5  18 348.507 218.308   2
   7  -5 -18 99.8690 102.145   5
   7   5 -17 11635.3 1086.91   3
  -7   5  17 10219.4 911.995   1
  -7  -5  17 12102.3 1206.97   2
   7  -5 -17 11428.5 1068.21   5
  -7   5  17 10467.6 908.269   3
   7   5 -16 48.7650 56.3598   3
  -7   5  16 253.983 128.852   1
  -7   5  16 106.632 120.445   3
  -7  -5  16 541.177 271.590   2
   7  -5 -16 399.866 205.178   5
   7   5 -15 1093.32 328.450   3
  -7   5  15 811.272 215.721   1
  -7  -5  15 1282.71 384.305   2
   7  -5 -15 932.011 290.984   5
  -7   5  15 786.714 246.269   3
   7   5 -14 58.2378 52.3874   3
  -7   5  14-6.49748 119.134   1
  -7  -5  14-82.5719 167.566   2
   7  -5 -14-166.747 124.374   5
  -7   5  14 106.525 139.670   3
  -7   5  13 19008.8 1135.47   1
   7   5 -13 18037.9 1275.78   3
  -7  -5  13 19274.8 1457.97   2
  -7   5  13 18327.0 1164.77   3
   7  -5 -13 15777.6 487.308   2
  -7   5  13 18648.9 1039.58   6
   7  -5 -13 18999.3 1362.35   5
   7   5 -12-94.1588 67.0130   3
  -7   5  12-86.4083 102.727   1
  -7   5  12-19.1377 85.7814   3
  -7   5  12-166.812 125.510   6
   7  -5 -12 130.246 133.832   5
   7  -5 -12 3.92377 17.6886   2
   7   5 -11 14924.2 1089.16   3
  -7   5  11 13524.9 992.302   3
  -7   5  11 15548.2 989.595   1
  -7   5  11 14893.9 900.335   6
  -7  -5  11 13928.9 1210.33   2
   7  -5 -11 13872.9 1145.66   5
   7  -5 -11 13351.1 609.581   2
   7   5 -10 17.2486 120.651   3
  -7   5  10 56.5997 60.9108   1
  -7   5  10 18.4667 64.5121   3
   7  -5 -10 78.9253 171.327   5
   7  -5 -10 40.7687 34.3069   2
  -7  -5  10 142.199 121.611   2
  -7   5  10-61.7058 87.7085   6
  -7   5  10 36.2743 19.8278   7
  -7   5   9 14901.9 935.385   1
   7   5  -9 13807.4 1012.32   3
   7  -5  -9 14587.5 764.477   2
  -7   5   9 14732.7 1033.50   3
  -7  -5   9 13628.0 1180.18   2
  -7   5   9 13603.2 479.757   7
   7  -5  -9 12944.7 1106.31   5
  -7   5   9 14450.2 861.671   6
   7   5  -8 40.7092 93.8170   3
  -7   5   8 9.74908 23.4707   7
  -7   5   8-42.7680 65.3521   3
  -7  -5   8 116.350 94.9609   2
   7  -5  -8-179.087 115.668   5
  -7   5   8-78.9010 102.035   6
   7  -5  -8-3.05050 37.6308   2
  -7  -5   7 2973.55 184.271   1
  -7  -5   7 4150.07 645.686   2
   7  -5  -7 3685.44 444.593   2
  -7   5   7 3748.81 515.679   3
  -7   5   7 3521.90 292.217   7
  -7   5   7 3958.99 447.975   6
   7   5  -7 3735.80 506.038   3
   7  -5  -7 3596.65 588.013   5
   7  -5  -6 382.368 144.802   2
   7   5  -6 287.626 132.216   3
  -7   5   6 410.067 169.548   3
  -7   5   6 359.188 99.1714   7
  -7  -5   6 388.893 185.017   2
  -7   5   6 452.653 150.860   6
   7  -5  -6 595.730 242.201   5
   7  -5  -5 20357.2 1117.21   2
  -7   5   5 20386.8 1226.47   3
  -7  -5   5 21121.8 1449.98   2
   7   5  -5 21110.3 1163.28   3
  -7   5   5 20425.5 1021.37   6
  -7   5   5 19205.1 776.902   7
   7  -5  -5 19583.6 1352.78   5
   7  -5  -4-57.4052 84.0170   2
   7   5  -4 65.9148 104.290   3
  -7  -5   4-39.5132 67.1040   2
  -7   5   4-77.2242 59.1248   3
  -7   5   4 69.2074 63.0401   7
   7  -5  -4 216.164 248.195   5
   7   5  -3 39389.7 1517.57   3
  -7  -5   3 37260.9 1898.35   2
  -7   5   3 39371.1 1206.59   7
  -7   5   3 38759.0 1713.10   3
   7  -5  -3 39675.8 1904.19   5
   7  -5  -3 41621.5 1675.80   2
   7   5  -2 211.599 143.756   3
  -7   5   2 255.561 104.274   7
  -7  -5   2 269.848 180.232   2
   7  -5  -2 435.719 227.115   5
  -7   5   2 115.432 74.5540   3
   7  -5  -2 176.959 129.550   2
   7   5  -1 4552.42 490.846   3
  -7   5   1 4176.32 571.843   3
   7  -5  -1 4116.10 499.343   7
   7  -5  -1 4547.32 648.818   5
  -7  -5   1 4562.66 657.175   2
   7   5   0-34.8396 31.5782   3
   7  -5   0 84.0284 83.2353   7
  -7  -5   0 101.481 111.490   2
  -7   5   0-46.2176 130.776   3
   7  -5   0-48.2326 94.8229   5
   7   5   1 11703.0 766.811   3
  -7   5  -1 11961.2 967.209   3
   7  -5   1 11013.4 993.298   5
  -7  -5  -1 10056.9 969.204   2
   7  -5   1 11916.9 924.715   7
  -7  -5  -2 88.7241 127.617   2
   7   5   2-19.5657 36.5469   3
   7  -5   2-4.77009 41.8301   7
   7  -5   2-5.43405 82.8879   5
  -7   5  -2 39.5996 73.0400   3
  -7  -5  -3 978.848 297.234   2
   7   5   3 1064.94 203.802   3
   7  -5   3 1325.26 323.783   7
  -7   5  -3 1247.18 333.981   3
   7  -5   3 1503.71 366.009   5
  -7  -5  -4-43.3448 130.577   2
   7  -5   4 221.995 139.261   7
   7  -5   4 81.3940 53.0559   5
  -7   5  -4 21.7881 99.0489   3
  -7  -5  -4 19.5255 31.1187   3
   7   5   4 43.2863 25.6161   3
   7   5   4 31.1923 24.1845   1
   7   5   5 17346.2 556.974   1
   7   5   5 16876.0 846.890   3
  -7   5  -5 17125.4 1210.69   3
   7  -5   5 18137.5 1205.96   7
   7  -5   5 18904.1 1300.27   5
  -7  -5  -5 18132.7 1274.70   2
   7   5   6-58.0403 60.0191   3
   7   5   6-15.6202 24.9548   1
  -7   5  -6-91.6604 139.372   3
   7  -5   6-142.192 149.742   5
  -7  -5  -6 37.3170 47.2379   2
   7  -5   6 58.1399 97.7620   7
   7  -5   7 1553.71 365.859   7
   7  -5   7 732.115 244.452   5
  -7   5  -7 1461.59 374.445   3
   7   5   7 1198.09 212.373   3
   7   5   7 1256.15 193.460   1
  -7  -5  -7 1391.15 348.962   2
  -7  -5  -8 184.554 259.172   2
   7   5   8-11.4433 47.3162   1
  -7   5  -8 134.886 144.454   3
   7   5   8 67.3591 55.0357   3
   7  -5   8 13.8557 121.850   7
   7  -5   8 30.3525 96.9465   5
   7   5   9 12039.0 625.045   3
  -7   5  -9 12625.0 1082.37   3
   7   5   9 11986.2 691.952   1
   7  -5   9 10763.0 982.197   5
  -7  -5  -9 12749.0 1037.38   2
   7  -5   9 11437.7 1034.11   7
  -7   5 -10 292.807 196.701   3
   7   5  10-15.9877 31.4009   3
   7  -5  10 103.295 193.687   7
  -7  -5 -10 22.9613 86.1863   2
   7  -5  10 177.691 217.764   5
   7   5  10 89.4732 82.1394   1
  -7   5 -11 641.881 250.148   3
  -7  -5 -11 195.527 139.157   2
   7  -5  11 247.875 179.520   5
   7  -5  11 196.455 158.408   7
   7   5  11 156.399 69.6389   3
   7   5  11 135.652 76.9532   1
   7   5  12 880.432 205.037   1
   7   5  12 933.770 147.889   3
  -7   5 -12 878.992 286.766   3
   7  -5  12 1362.41 406.224   7
  -7  -5 -12 904.639 268.641   2
   7  -5  12 901.385 293.543   5
  -7   5 -13 37739.2 1992.47   3
   7  -5  13 38786.8 2052.59   7
  -7  -5 -13 43788.5 1892.60   2
   7   5  13 40399.0 1655.73   7
   7  -5  13 42340.5 1959.51   5
   7   5  13 38257.2 898.774   3
   7   5  13 42885.7 1557.14   1
   7  -5  14 208.720 204.920   7
   7   5  14-112.716 122.097   7
   7  -5  14 40.4328 77.0685   5
   7   5  14 55.2478 29.5812   1
  -7   5 -14 23.5941 71.2294   3
  -7   5 -15 1833.12 450.829   3
   7  -5  15 1630.64 470.736   7
   7   5  15 1034.30 268.858   7
   7  -5  15 1529.07 362.727   5
   7   5  15 1284.44 287.027   1
  -7   5 -16-59.2696 132.042   3
   7   5  16 49.7205 46.3605   7
   7   5  16 50.2844 38.9260   1
   7  -5  16-2.23788 148.702   7
   7  -5  16 213.998 167.628   5
   7   5  17 7473.83 742.271   1
   7  -5  17 7599.12 989.270   7
  -7   5 -17 5872.41 818.849   3
   7   5  17 7869.11 773.863   7
   7  -5  18 271.868 199.438   7
  -7   5 -18 84.4983 138.859   3
   7   5  18 79.3762 140.045   1
   7   5  18 131.860 110.356   7
  -7   5 -19 1363.83 410.355   3
   7   5  19 1862.66 395.823   1
   7  -5  19 2141.90 556.626   7
   7   5  19 2457.08 449.407   7
  -7   5 -20-1.16936 82.7749   3
   7   5  20-108.155 92.9946   7
   7  -5  20 177.039 143.953   7
   7   5  20 230.729 160.293   1
  -7   5 -21 12855.8 1299.00   3
   7  -5  21 14031.1 1427.79   7
   7   5  21 13255.1 1110.35   1
   7   5  21 14655.8 1129.84   7
  -7   5 -22-6.86680 86.9864   3
   7   5  22-21.0009 51.8304   1
   7  -5  22 250.881 190.558   7
   7   5  22 333.260 184.246   7
  -7   5 -23 1307.27 440.852   3
   7  -5  23 1532.23 495.151   7
   7   5  23 1563.55 401.151   1
   7   5  23 1681.95 393.483   7
  -7   5 -24 170.308 183.375   3
   7  -5  24 129.905 178.027   7
   7   5  24 239.221 155.703   7
   7   5  24 157.973 101.164   1
  -7   5 -25 2676.15 627.172   3
   7   5  25 2258.26 504.581   1
   7  -5  25 3019.37 702.496   7
  -7   5 -26 127.714 167.788   3
   7   5  26 145.055 119.386   1
   7  -5  26-50.8736 74.0595   7
   7   5  27 5077.66 787.840   1
   7  -5  27 6895.50 1116.90   7
   7   5  28 22.1755 100.062   1
  -7   7  31 2370.73 588.047   1
  -7   7  30-21.8534 60.1508   1
  -7   7  29 3921.91 724.414   1
  -7   7  28-141.695 139.036   1
  -7  -7  28 138.477 216.326   2
  -7   7  27 221.020 161.435   1
  -7  -7  27-351.844 277.632   2
  -7   7  26-225.562 168.869   1
  -7  -7  26 200.870 195.875   2
  -7   7  25 11844.2 1197.32   1
  -7  -7  25 13310.9 1646.64   2
  -7  -7  24 116.251 189.440   2
  -7   7  24 14.5717 66.4840   3
   7  -7 -24 80.7665 112.120   5
  -7   7  24 8.15789 52.8440   1
  -7   7  23 307.100 185.509   1
  -7   7  23 403.754 209.935   3
  -7  -7  23 417.339 258.544   2
   7  -7 -23-205.674 220.376   5
  -7  -7  22 452.706 326.664   2
   7  -7 -22 303.399 227.658   5
  -7   7  22 27.0025 70.0176   3
  -7   7  22 115.698 126.454   1
  -7  -7  21 12472.8 1550.84   2
  -7   7  21 13475.6 1191.66   3
  -7   7  21 11799.5 1118.12   1
   7  -7 -21 11006.0 1278.21   5
   7   7 -21 11871.7 1328.87   3
  -7   7  20 163.023 40.7590   3
  -7   7  20 153.514 194.367   1
  -7  -7  20 238.003 259.039   2
   7  -7 -20 373.388 256.563   5
   7   7 -20 37.6963 137.363   3
   7   7 -19 7041.41 985.356   3
  -7   7  19 8149.84 892.724   1
  -7  -7  19 7287.53 1144.43   2
   7  -7 -19 8433.67 1111.35   5
  -7   7  19 8042.53 917.809   3
   7   7 -18 344.321 257.896   3
  -7   7  18 278.408 169.417   3
  -7  -7  18-49.3955 135.232   2
   7  -7 -18 389.436 262.119   5
  -7   7  18 57.2085 116.227   1
   7   7 -17 11908.7 1254.39   3
  -7   7  17 12430.6 1071.33   1
  -7  -7  17 11059.9 1380.57   2
   7  -7 -17 11765.3 1309.52   5
  -7   7  17 11576.2 1082.20   3
   7   7 -16 447.564 297.447   3
  -7   7  16 228.436 169.253   1
   7  -7 -16 254.044 237.682   5
  -7   7  16-25.2909 99.2773   3
  -7  -7  16 139.293 201.931   2
  -7   7  16 93.1101 88.2451   6
   7   7 -15 52.3391 139.358   3
  -7   7  15 134.147 127.649   1
   7  -7 -15 234.635 142.475   5
  -7  -7  15-48.9743 84.1810   2
  -7   7  15 103.104 92.9530   6
  -7   7  15-51.8500 134.867   3
   7   7 -14-69.6156 135.115   3
  -7   7  14 6.99323 96.7139   3
  -7   7  14 61.2603 74.3024   6
  -7  -7  14-221.843 273.162   2
   7  -7 -14 160.368 159.867   5
  -7   7  14 89.2048 73.0941   1
   7   7 -13 10098.8 1093.11   3
  -7   7  13 11511.6 829.239   6
  -7  -7  13 10212.4 1288.28   2
  -7   7  13 9960.64 1009.77   3
   7  -7 -13 10929.3 1240.99   5
   7   7 -12 105.216 96.0165   3
  -7   7  12-89.8570 107.277   6
  -7   7  12-39.0949 53.5480   3
  -7  -7  12 296.014 257.492   2
   7  -7 -12 171.321 197.720   5
   7  -7 -11 8573.57 686.872   2
   7   7 -11 9930.67 1046.32   3
   7  -7 -11 10241.7 1186.14   5
  -7  -7  11 9810.79 1253.35   2
  -7   7  11 11210.1 809.609   6
  -7   7  11 10307.0 1020.45   3
   7   7 -10 223.553 163.565   3
   7  -7 -10-53.9237 98.5452   2
  -7   7  10-70.9890 91.1526   3
  -7  -7  10-57.1180 70.0849   2
   7  -7 -10 27.4769 89.1063   5
   7   7  -9 10376.7 1041.02   3
  -7  -7   9 9297.65 1191.84   2
  -7   7   9 9569.50 993.140   3
   7  -7  -9 9796.58 1162.56   5
   7  -7  -9 10466.7 852.589   2
   7   7  -8 244.565 211.091   3
   7  -7  -8-42.0138 74.1426   2
  -7  -7   8-88.5253 130.405   2
  -7   7   8 223.316 187.555   3
   7  -7  -8 205.702 216.183   5
   7   7  -7 4176.90 644.368   3
  -7  -7   7 5274.18 911.428   2
   7  -7  -7 4633.97 617.557   2
  -7   7   7 3979.99 644.283   3
   7  -7  -7 4933.03 816.123   5
   7   7  -6-53.8109 85.3798   3
   7  -7  -6 14.9880 113.369   5
   7  -7  -6 49.6669 71.8505   2
  -7   7   6-104.780 157.365   3
  -7  -7   6 103.785 100.039   2
   7   7  -5 7190.02 810.438   3
  -7  -7   5 6856.12 1005.10   2
   7  -7  -5 6432.88 804.895   2
   7  -7  -5 6739.00 953.687   5
  -7   7   5 6377.61 819.940   3
  -7  -7   4 2.68211 80.7748   2
   7   7  -4 154.636 152.457   3
  -7   7   4-75.3375 113.427   3
   7  -7  -4 151.251 62.1077   2
   7  -7  -4 33.4519 96.1482   5
   7   7  -3 14647.3 1129.42   3
   7  -7  -3 16448.0 1471.26   5
  -7   7   3 14923.5 1259.06   3
   7  -7  -3 16136.6 1345.48   2
  -7  -7   3 15751.6 1496.18   2
   7   7  -2 155.256 142.129   3
  -7  -7   2-112.258 178.012   2
   7  -7  -2 74.9369 143.979   5
  -7   7   2 288.844 217.157   3
   7  -7  -2-0.54368 95.3485   2
   7   7  -1 4537.68 604.302   3
  -7   7   1 4611.02 715.488   3
  -7  -7   1 3670.64 715.583   2
   7  -7  -1 3913.13 690.256   2
   7  -7  -1 4213.50 755.110   5
   7   7   0-50.1472 51.1819   3
  -7   7   0-70.4578 98.0999   3
   7  -7   0-196.942 203.594   2
  -7  -7   0 44.6724 119.272   2
   7  -7   0 324.367 259.768   5
   7   7   1 8672.82 831.978   3
  -7   7  -1 9509.69 1050.02   3
   7  -7   1 7072.55 952.651   2
   7  -7   1 8499.21 1053.58   5
  -7  -7  -1 8313.11 1066.53   2
  -7  -7  -2 132.080 73.8662   2
   7   7   2-7.70822 113.673   3
   7  -7   2 81.6492 103.432   5
   7  -7   2-146.052 50.7580   2
  -7   7  -2 26.7796 89.5879   3
   7   7   3 2875.99 463.360   3
   7  -7   3 3162.17 653.656   5
  -7  -7  -3 2320.88 557.832   2
   7  -7   3 2468.06 567.309   2
  -7   7  -3 2448.29 543.801   3
   7   7   4 10.5358 56.3831   3
  -7  -7  -4 199.802 143.039   2
  -7   7  -4 229.293 156.738   3
   7  -7   4 119.244 114.310   5
   7  -7   4-64.2968 119.446   2
   7   7   5 32005.4 1481.00   3
  -7   7  -5 31316.5 1937.65   3
   7  -7   5 28371.5 1997.61   2
   7  -7   5 28424.2 1947.90   5
  -7  -7  -5 28971.5 1932.15   2
   7   7   6 205.053 139.019   3
  -7   7  -6 257.757 148.862   3
  -7  -7  -6 430.336 219.346   2
   7  -7   6 420.410 276.155   5
   7  -7   6 277.908 278.364   2
   7   7   7 438.239 155.804   3
  -7   7  -7 372.765 301.441   3
   7  -7   7 2.47504 184.075   5
  -7  -7  -7 453.671 206.868   2
   7  -7   7 606.003 249.245   2
   7   7   8 75.2443 75.3340   3
  -7   7  -8-197.807 145.108   3
  -7  -7  -8 114.857 100.240   2
   7  -7   8-163.238 186.222   5
   7  -7   8-29.6449 142.224   7
   7  -7   8-118.140 80.2916   2
   7   7   9 5397.90 559.974   3
  -7   7  -9 4931.33 804.397   3
   7  -7   9 4967.36 821.358   7
  -7  -7  -9 5804.90 816.842   2
   7  -7   9 5377.88 851.229   5
   7  -7  10-35.9001 127.748   7
  -7   7 -10 171.528 237.432   3
   7  -7  10-86.5595 119.355   5
  -7  -7 -10-120.896 142.010   2
  -7   7 -11-149.196 166.096   3
   7  -7  11 68.6245 61.1244   5
   7  -7  11 36.8103 152.579   7
  -7  -7 -11 75.1675 35.2293   2
  -7   7 -12 600.068 251.035   3
   7  -7  12 384.103 266.372   7
   7  -7  12 504.079 247.277   5
  -7  -7 -12 802.981 297.994   2
  -7   7 -13 12617.6 1332.17   3
   7  -7  13 11932.6 1350.27   7
  -7  -7 -13 13234.5 1182.67   2
   7  -7  13 11887.2 1291.22   5
   7   7  14 138.467 139.003   7
   7  -7  14 109.771 152.155   5
  -7  -7 -14 314.384 184.381   2
   7  -7  14 106.553 159.412   7
  -7   7 -14-16.0696 68.0234   3
  -7   7 -15 802.986 340.154   3
   7  -7  15 612.108 310.258   7
  -7  -7 -15 500.150 232.922   2
   7   7  15 393.760 181.060   7
  -7   7 -16 108.638 139.954   3
   7  -7  16 17.8337 138.261   7
   7   7  16 122.991 112.421   7
  -7   7 -17 8303.85 1131.97   3
   7  -7  17 8141.27 1176.38   7
  -7   7 -18-75.2029 115.092   3
   7  -7  18-71.7813 174.047   7
  -7   7 -19 2390.82 632.854   3
   7  -7  19 2352.82 653.153   7
  -7   7 -20-79.7367 220.941   3
   7  -7  20 13.7872 107.661   7
  -7   7 -21 14893.3 1588.73   3
   7  -7  21 15312.5 1709.95   7
   7  -7  22-291.631 269.017   7
  -7   7 -22 243.542 229.963   3
  -7   7 -23 1287.85 492.338   3
   7  -9 -22-107.268 200.069   5
   7  -9 -21 5643.94 1083.66   5
   7  -9 -20-348.326 270.456   5
   7  -9 -19 5386.51 1059.03   5
   7   9 -18-68.2525 130.217   3
  -7  -9  18 55.9573 104.844   2
  -7   9  18-18.7986 82.2134   3
   7  -9 -18 210.932 225.811   5
  -7  -9  17 8779.38 1453.53   2
  -7   9  17 9747.66 1145.43   3
   7  -9 -17 10350.8 1457.92   5
   7   9 -17 10091.5 1303.68   3
   7   9 -16 25.5499 59.2202   3
  -7  -9  16-74.5663 143.527   2
  -7   9  16-108.139 123.995   3
   7  -9 -16-81.5371 258.041   5
   7   9 -15 305.467 230.896   3
  -7   9  15 170.946 204.223   3
  -7  -9  15-29.6954 258.652   2
   7  -9 -15-25.4023 88.9340   5
  -7   9  14-286.922 239.607   3
   7   9 -14 119.001 173.889   3
  -7  -9  14 223.671 264.721   2
   7  -9 -14-134.248 228.991   5
   7   9 -13 8894.12 1164.17   3
  -7  -9  13 8839.47 1427.21   2
  -7   9  13 6437.70 941.217   3
   7  -9 -13 7256.68 1196.00   5
   7   9 -12 178.118 166.902   3
   7  -9 -12-222.192 237.762   5
  -7  -9  12-116.593 191.163   2
  -7   9  12-27.4673 73.8754   3
   7   9 -11 7631.01 1053.76   3
  -7   9  11 7487.33 1022.32   3
  -7  -9  11 6151.99 1169.28   2
   7  -9 -11 7160.69 1191.20   5
   7   9 -10 158.736 62.4540   3
  -7   9  10-94.4399 155.537   3
  -7  -9  10 164.394 94.1480   2
   7   9  -9 6454.58 948.489   3
  -7   9   9 6670.06 962.207   3
   7  -9  -9 7849.16 1228.03   5
  -7  -9   9 7120.61 1248.32   2
   7   9  -8-75.2629 68.1431   3
  -7  -9   8-93.5132 78.2651   2
  -7   9   8 118.011 105.126   3
   7  -9  -8-115.096 96.9578   5
   7   9  -7 2670.73 595.264   3
  -7   9   7 2661.35 605.366   3
   7  -9  -7 3063.94 734.941   5
  -7  -9   7 2398.40 703.058   2
   7   9  -6-155.323 142.585   3
  -7   9   6-37.2363 108.672   3
   7  -9  -6 205.836 210.344   5
   7   9  -5 4779.63 773.677   3
  -7   9   5 5350.03 880.088   3
  -7  -9   5 3807.82 880.144   2
   7  -9  -5 4539.18 930.864   5
   7   9  -4 103.495 138.981   3
  -7   9   4 61.5240 98.1714   3
   7  -9  -4-88.6872 100.969   5
   7   9  -3 14091.5 1305.46   3
  -7   9   3 15725.4 1527.66   3
   7  -9  -3 13372.1 1598.05   5
  -7  -9   3 13722.7 1658.73   2
   7   9  -2 53.3031 132.441   3
  -7   9   2-196.462 169.197   3
   7  -9  -2-139.994 149.855   2
   7  -9  -2-234.975 189.474   5
   7  -9  -1 2484.50 690.993   5
   7   9  -1 2536.84 550.547   3
  -7  -9   1 2015.35 635.176   2
  -7   9   1 2727.21 645.568   3
   7  -9  -1 2056.44 579.464   2
   7   9   0 273.477 215.023   3
  -7  -9   0-84.7152 195.460   2
  -7   9   0-119.192 152.277   3
   7  -9   0 143.511 164.454   2
   7  -9   0 262.625 273.597   5
   7   9   1 5561.52 774.966   3
  -7  -9  -1 4907.66 974.168   2
  -7   9  -1 6686.28 1013.80   3
   7  -9   1 4474.37 893.824   2
   7  -9   1 5713.20 1038.04   5
  -7  -9  -2 278.331 271.558   2
   7   9   2 177.034 150.802   3
   7  -9   2 337.700 270.235   2
   7  -9   2 60.2546 171.752   5
  -7   9  -2 371.291 249.273   3
  -7  -9  -3 1221.93 454.928   2
   7   9   3 607.086 257.256   3
   7  -9   3 1264.94 513.950   2
   7  -9   3 1236.53 501.728   5
  -7   9  -3 1486.30 502.199   3
  -7  -9  -4 75.3574 144.338   2
  -7   9  -4 0.74098 75.0064   3
   7  -9   4-141.853 173.260   2
   7  -9   4-225.013 110.235   5
  -7   9  -5 14288.6 1520.77   3
   7  -9   5 14849.6 1676.01   5
   7  -9   5 11154.3 1509.58   2
  -7  -9  -5 13261.7 1494.80   2
  -7   9  -6-158.154 131.494   3
   7  -9   6 53.5261 113.062   2
  -7  -9  -6-214.920 188.593   2
  -7   9  -7 516.986 275.501   3
   7  -9   7 458.846 307.551   5
   7  -9   7-58.3904 116.106   2
  -7  -9  -7 409.118 240.117   2
  -7   9  -8-135.857 156.855   3
   7  -9   8 7.03543 126.735   2
   7  -9   8 176.790 290.897   5
  -7  -9  -8-11.9997 31.3132   2
  -7   9  -9 5341.02 956.153   3
   7  -9   9 4691.98 930.724   5
   7  -9   9 4723.37 1006.59   2
  -7   9 -10 764.691 407.280   3
   7  -9  10 218.025 316.864   2
  -7   9 -11 169.953 220.876   3
   7  -9  11 4.20201 137.761   2
  -7   9 -12 600.279 321.968   3
   7  -9  12 260.163 243.912   2
   7  -9  13 11957.1 1667.34   2
   7  -9  14-62.6885 274.741   2
  -8   0  38 5866.07 964.036   1
  -8   0  37-39.0534 114.393   1
  -8   0  36 4201.00 786.297   1
  -8   0  35 94.6125 94.5411   7
  -8   0  35 36.4041 139.000   1
  -8   0  34 13140.8 1323.22   1
  -8   0  34 11569.5 1112.17   7
  -8   0  33-26.6664 67.6783   1
  -8   0  33 109.613 176.793   2
  -8   0  33-80.4634 71.7948   7
  -8   0  32 235.210 150.920   7
  -8   0  32 245.677 213.833   1
  -8   0  32 136.723 131.298   2
  -8   0  31 69.6564 136.287   7
  -8   0  31 65.0330 133.503   1
  -8   0  31-45.1916 120.175   2
  -8   0  30 18596.8 1430.10   1
  -8   0  30 17947.6 1278.85   7
  -8   0  30 17996.1 1233.52   2
  -8   0  29 251.646 204.184   7
  -8   0  29 195.457 180.559   1
  -8   0  29 173.240 281.561   2
  -8   0  28 1577.53 358.488   7
   8   0 -28 1348.17 261.442   4
  -8   0  28 1633.76 400.237   1
  -8   0  28 1321.33 323.835   2
   8   0 -27 132.967 79.3305   4
  -8   0  27-29.5095 47.7895   7
  -8   0  27-92.5755 136.115   1
  -8   0  26 9900.93 856.097   7
  -8   0  26 10260.0 962.483   1
   8   0 -26 8938.70 713.611   4
  -8   0  25 55.7494 176.975   1
  -8   0  25-114.321 120.184   7
   8   0 -25 126.514 108.555   4
  -8   0  24 2158.86 422.776   1
  -8   0  24 2069.63 363.671   7
   8   0 -24 2142.24 359.925   4
  -8   0  23 44.0777 77.5648   1
  -8   0  23 84.5258 68.0621   7
  -8   0  23-31.8531 29.4413   2
  -8   0  22 14589.4 935.742   7
  -8   0  22 13856.5 1009.58   1
  -8   0  22 16157.2 950.281   2
  -8   0  21 28.1041 48.6060   7
  -8   0  21 12.4134 30.4535   2
  -8   0  20 695.692 171.272   7
  -8   0  20 831.193 235.533   1
  -8   0  20 785.528 191.816   2
  -8   0  19-55.8858 46.8392   7
  -8   0  19-11.6559 33.8363   2
  -8   0  18 29547.7 1317.20   1
  -8   0  18 30467.7 1160.74   2
   8   0 -18 28469.8 1202.38   7
  -8   0  18 29208.3 1169.85   7
  -8   0  17-33.6308 132.500   1
   8   0 -17-25.0457 48.7924   7
  -8   0  17 29.8231 36.8899   2
  -8   0  16 9461.21 602.005   2
  -8   0  16 9054.78 683.534   1
   8   0 -16 8114.49 595.202   7
  -8   0  15-101.473 61.7454   2
  -8   0  15-28.2696 68.1655   1
   8   0 -15 6.93937 45.6408   7
  -8   0  14 18735.5 917.768   1
   8   0 -14 19320.7 849.018   7
  -8   0  14 20434.7 839.443   2
   8   0 -13 35.4470 57.0637   7
  -8   0  13 27.1662 30.2889   1
  -8   0  13 17.4049 21.0731   2
   8   0 -12 8203.18 528.944   7
  -8   0  12 8978.95 535.380   2
  -8   0  12 8712.07 588.853   1
   8   0 -11-17.2055 50.3183   7
  -8   0  11-32.5741 54.7519   2
  -8   0  11 46.9392 51.7693   1
   8   0 -10 40353.1 1133.07   7
   8   0 -10 41838.0 1122.30   2
  -8   0  10 39849.4 1186.65   1
   8   0 -10 41527.0 1221.66   1
  -8   0  10 41449.0 1100.92   2
   8   0  -9-22.7098 34.7978   1
  -8   0   9-27.2323 38.5022   2
  -8   0   9 22.3769 41.5955   1
   8   0  -9 56.8623 49.8645   2
   8   0  -8 91064.6 1707.59   1
  -8   0   8 85906.9 1629.05   1
   8   0  -8 89978.7 1647.68   2
  -8   0   8 86808.7 1556.07   2
  -8   0   7-31.3190 50.2623   2
   8   0  -7 9.39067 30.0938   2
  -8   0   7-14.7246 34.9871   1
   8   0  -7 18.2252 23.9242   1
   8   0  -6 40816.9 1084.29   2
  -8   0   6 43545.7 1083.45   1
   8   0  -6 45010.4 1121.49   1
  -8   0   6 42413.6 1106.03   2
   8   0  -5 20.9477 43.2606   2
  -8   0   5-42.9955 42.0150   1
   8   0  -5 12.2185 35.7155   1
  -8   0   5 9.38513 53.7420   2
  -8   0   4 3593.80 294.025   1
   8   0  -4 3447.23 285.859   1
  -8   0   4 2950.10 296.364   2
  -8   0   3-54.7839 34.9254   2
  -8   0   3 76.2159 108.638   6
   8   0  -3 36.4494 32.2539   1
   8   0  -2 7221.71 416.204   1
  -8   0   2 6912.40 432.917   6
  -8   0   2 7819.07 492.334   2
  -8   0   1 42.1296 34.4476   6
  -8   0   1-59.6065 66.7167   2
  -8   0   0 38475.3 1145.99   2
  -8   0   0 37244.4 1025.41   6
   8   0   0 40719.7 1062.73   6
   8   0   1 76.4807 65.7076   6
   8   0   1 18.3486 43.9889   7
   8   0   2 220.554 85.2260   7
   8   0   2 210.288 82.7380   6
  -8   0  -2 304.295 70.6034   3
   8   0   3 17.5786 65.5407   7
   8   0   3 19.0876 29.0877   6
  -8   0  -3-14.9356 33.5610   3
   8   0   4 12563.4 679.220   7
  -8   0  -4 12195.0 462.111   3
   8   0   4 12914.3 658.489   6
   8   0   5-12.7005 70.1497   7
  -8   0  -5 1.43211 24.2259   3
  -8   0  -6 11110.4 456.950   3
   8   0   6 11224.4 698.013   7
  -8   0  -7-9.88168 19.0244   3
   8   0   7-20.1024 48.6737   7
  -8   0  -8 54321.8 1060.86   3
   8   0   8 56622.1 1667.08   7
   8   0   8 52390.3 993.798   3
  -8   0  -9-41.9424 48.5119   3
   8   0   9-114.919 114.246   7
   8   0   9-2.22825 17.2739   3
   8   0   9 24.3796 35.5590   4
  -8   0 -10 3449.82 284.804   3
   8   0  10 3848.38 296.914   4
   8   0  10 3584.17 273.913   3
   8   0  10 4147.56 469.392   7
  -8   0 -11-9.31866 27.7568   3
   8   0  11 13.0825 78.4762   7
   8   0  11-31.3148 40.5498   3
   8   0  11 24.7866 18.7268   4
   8   0  12 17229.1 649.910   3
  -8   0 -12 18349.7 713.179   3
   8   0  12 19242.5 1076.43   7
   8   0  13 70.2704 133.382   7
   8   0  13 73.9536 59.1109   3
   8   0  14 1139.59 179.310   3
   8   0  14 1499.84 328.831   7
   8   0  15 67.1110 87.2741   7
   8   0  15-16.1324 16.7032   3
   8   0  16 46496.9 1876.27   7
   8   0  16 44580.7 1200.43   3
   8   0  17-96.8168 73.2162   7
   8   0  17 33.9084 44.9591   3
   8   0  18 873.571 179.940   3
   8   0  18 1285.12 328.757   7
   8   0  19 41.3786 105.310   7
   8   0  20 6951.92 794.414   7
   8   0  21 143.828 125.446   7
   8   0  22 1895.57 415.629   7
   8   0  23-163.079 159.886   7
   8   0  24 11081.5 1116.12   7
   8   0  25-44.0026 100.070   7
   8   0  26 3646.73 662.805   7
   8   0  27-113.435 193.227   7
   8   0  28 4757.96 796.509   7
   8   0  29 100.425 141.157   7
   8   0  30 11407.7 1282.06   7
   8   0  31 260.756 244.985   7
   8   0  32 14287.8 1489.91   7
   8   0  33 163.844 138.806   7
  -8  -2  37 302.203 242.941   1
  -8   2  37 138.486 199.646   1
  -8  -2  37 183.545 167.649   2
  -8  -2  36 4654.51 809.580   1
  -8  -2  36 4398.46 792.230   2
  -8   2  36 5332.72 885.189   1
  -8  -2  35 204.406 124.897   2
  -8  -2  35 103.104 179.610   1
  -8   2  35 221.195 212.657   1
  -8  -2  34 6612.42 952.412   2
  -8  -2  34 7884.14 1004.20   1
  -8   2  34 7141.65 992.475   1
  -8  -2  33-28.6708 106.689   1
  -8   2  33 128.453 163.560   1
  -8  -2  33 38.8025 177.215   2
  -8  -2  32 305.435 235.257   1
  -8  -2  32 193.417 144.567   2
  -8   2  32 247.081 178.210   1
  -8  -2  31-53.2908 114.529   1
  -8   2  31 163.229 169.660   1
  -8  -2  31 60.6152 130.053   2
  -8   2  30 11580.4 1163.78   1
  -8  -2  30 10754.4 1068.55   1
  -8  -2  30 11460.9 1151.70   7
  -8  -2  30 10185.5 1082.82   2
  -8  -2  29-123.378 129.800   7
  -8   2  29-38.8486 85.7974   7
  -8   2  29 118.875 154.744   1
  -8  -2  29 163.568 191.354   2
  -8   2  28 1555.13 401.933   1
  -8   2  28 912.629 213.830   7
  -8  -2  28 1372.79 373.765   2
  -8  -2  28 978.277 318.527   7
  -8  -2  27-108.929 75.5109   7
  -8   2  27-21.3685 59.6414   7
  -8   2  27 62.9390 58.9569   2
  -8  -2  27 62.2445 104.626   2
  -8   2  26 10029.7 985.205   1
  -8   2  26 9736.66 702.943   7
  -8  -2  26 10642.3 1022.88   7
  -8  -2  26 10511.5 1016.57   2
  -8   2  26 9757.56 617.719   2
  -8   2  25 65.1203 99.2886   1
  -8   2  25 152.014 143.148   7
  -8   2  25-42.3289 55.5270   2
  -8  -2  25-7.92235 71.4485   2
  -8  -2  24 411.956 188.823   7
  -8   2  24 572.659 227.282   1
  -8   2  24 562.665 149.078   7
  -8   2  24 501.348 126.625   2
  -8  -2  24 523.703 213.832   2
  -8   2  23 403.599 133.100   7
  -8   2  23 187.394 76.7013   2
  -8   2  23 221.905 162.802   1
  -8   2  23 163.366 70.4807   2
   8  -2 -23 245.896 96.7238   7
  -8  -2  23 213.661 139.932   2
   8  -2 -22 16213.3 771.604   7
  -8   2  22 17344.6 683.471   2
  -8  -2  22 18363.3 1230.26   2
  -8   2  22 19269.7 842.461   7
  -8   2  22 18235.1 1210.76   1
  -8   2  21 91.8389 34.4210   7
   8  -2 -21 157.806 66.2039   7
  -8   2  21 322.233 201.076   1
  -8   2  21 107.753 46.9319   2
  -8   2  21 209.563 71.2132   2
  -8  -2  21 370.494 200.244   2
  -8   2  20 315.521 74.9919   2
  -8   2  20 162.832 68.2727   1
  -8   2  20 556.488 124.549   7
   8  -2 -20 133.999 58.5619   7
  -8   2  20 153.257 54.0841   2
  -8  -2  20 260.875 115.169   2
  -8   2  19-42.4999 55.0758   1
   8  -2 -19 26.5095 95.6845   4
   8  -2 -19 13.0033 14.4708   7
  -8   2  19 32.4290 15.4089   2
  -8   2  19 27.2289 24.0304   2
  -8  -2  19-21.8922 91.9999   2
  -8   2  18 25121.8 584.322   2
  -8  -2  18 31538.4 1497.02   2
  -8   2  18 21766.8 544.078   2
  -8   2  18 31177.0 1443.74   1
   8  -2 -18 31433.7 1429.14   4
   8  -2 -18 25645.9 758.594   7
  -8   2  17 18.7018 10.8661   2
  -8   2  17-10.4560 15.0641   2
  -8  -2  17 17.7130 112.362   2
  -8   2  17 42.1411 129.979   1
   8  -2 -17-26.7209 79.5058   4
   8  -2 -17 22.3543 33.6786   7
  -8  -2  16 20559.8 1164.77   2
   8  -2 -16 19267.0 1111.26   4
  -8   2  16 19439.3 1089.62   1
   8  -2 -16 15397.7 489.463   7
   8  -2 -15 203.621 51.8703   7
  -8   2  15 241.283 129.520   1
  -8  -2  15 210.923 114.093   2
   8  -2 -15 265.628 150.788   4
  -8  -2  14 29338.3 1341.80   2
  -8   2  14 28255.9 1255.04   1
   8  -2 -14 26530.6 1273.58   4
  -8   2  13-113.210 137.945   1
  -8  -2  13 99.7005 29.5809   1
  -8  -2  13 96.8879 79.5268   2
  -8  -2  12 809.273 160.524   1
  -8   2  12 396.049 162.596   1
  -8  -2  12 1058.53 251.499   2
   8  -2 -12 797.201 215.454   4
  -8   2  11 8.79175 77.0650   1
  -8  -2  11-97.2700 105.529   2
   8  -2 -11 20.8975 74.1542   4
  -8  -2  11 14.9948 36.3588   1
  -8  -2  10 21877.6 1108.31   2
  -8   2  10 21476.5 981.402   1
  -8  -2  10 20702.8 745.254   1
   8  -2 -10 21792.6 1110.90   4
  -8  -2   9 43.9913 34.9284   1
  -8  -2   9 6.10524 66.6088   2
  -8   2   9 53.3099 40.7355   1
   8  -2  -9 219.542 133.683   4
  -8  -2   8 38346.9 1437.77   2
  -8  -2   8 32971.3 849.131   1
   8  -2  -8 36527.1 1417.01   4
  -8   2   8 37351.3 1242.82   1
   8  -2  -7 0.56603 19.9303   7
  -8  -2   7 9.68709 30.4364   1
  -8   2   7 100.221 73.6592   1
  -8  -2   7 6.74071 75.1352   2
   8  -2  -7 11.9651 11.4011   2
  -8  -2   6 11306.9 663.263   3
  -8   2   6 11048.9 655.064   1
  -8  -2   6 11011.1 769.265   2
  -8  -2   6 10431.5 408.615   1
  -8   2   6 10756.3 641.461   6
   8  -2  -6 11165.3 423.389   2
   8  -2  -6 11224.9 769.251   4
   8  -2  -6 10528.6 360.904   7
  -8  -2   5 243.127 88.0379   3
  -8   2   5 159.161 79.3352   1
  -8  -2   5 401.707 135.769   2
   8  -2  -5 230.503 65.3659   7
  -8   2   5 184.193 78.2511   6
  -8  -2   5 238.926 58.7840   1
   8  -2  -5 257.222 145.571   4
   8  -2  -4 8501.54 395.195   7
  -8  -2   4 8980.69 537.739   3
  -8   2   4 8599.53 383.935   7
   8   2  -4 8055.34 303.027   1
  -8   2   4 9115.88 580.634   6
   8  -2  -4 8587.99 657.510   4
  -8  -2   4 8827.12 682.988   2
  -8  -2   3-45.6320 53.1604   3
   8  -2  -3 46.0898 44.2590   7
  -8   2   3 72.0799 52.6526   6
   8   2  -3 6.28898 8.36514   1
  -8   2   3-9.78202 29.6078   7
  -8  -2   3 52.7760 70.2018   2
   8  -2  -3-0.92886 60.0574   4
  -8  -2   2 11066.3 537.614   3
   8   2  -2 10859.1 333.019   1
   8  -2  -2 10685.4 518.497   7
  -8   2   2 11804.5 671.675   3
  -8   2   2 11312.3 502.148   7
  -8   2   2 11426.3 662.684   6
  -8  -2   2 10402.3 427.553   6
   8  -2  -2 10175.8 711.525   4
  -8  -2   2 10682.6 760.778   2
  -8  -2   1 124.154 79.6652   2
  -8  -2   1 86.5805 44.9874   3
  -8   2   1 15.6054 48.2668   6
  -8   2   1 147.673 52.2496   7
  -8   2   1 217.291 91.3407   3
  -8  -2   1 171.375 61.2369   6
   8  -2  -1 253.829 124.021   4
   8   2  -1 93.2971 39.3237   1
   8  -2  -1 221.384 103.586   7
  -8   2   0 61487.9 1316.55   7
  -8  -2   0 57294.8 1069.94   3
  -8   2   0 59338.7 1538.30   6
   8  -2   0 55660.9 1315.84   7
  -8   2   0 59257.7 1527.61   3
  -8  -2   0 61813.8 1833.44   2
   8  -2   0 59135.1 1693.05   4
  -8  -2   0 55945.6 949.982   6
  -8   2  -1 82.0468 52.3187   7
   8  -2   1 358.690 151.273   7
  -8   2  -1 134.999 79.6044   3
   8  -2   1 38.9102 32.5405   4
  -8  -2  -1 50.4589 81.1773   2
  -8  -2  -1 24.7693 17.6172   3
  -8   2  -1 177.469 101.750   4
  -8  -2  -2 8954.94 350.501   3
  -8   2  -2 10254.8 595.763   7
  -8   2  -2 9549.16 614.279   3
   8  -2   2 9422.22 593.847   7
   8   2   2 9553.34 411.562   6
  -8  -2  -2 10025.5 727.363   2
  -8   2  -2 9528.81 688.836   4
  -8  -2  -3 330.969 55.6063   3
  -8   2  -3 273.608 106.280   3
   8  -2   3 458.078 154.610   7
  -8   2  -3 389.107 127.732   7
   8   2   3 477.674 95.7410   6
   8  -2   3 495.379 135.127   3
  -8  -2  -3 246.722 105.452   2
  -8   2  -3 429.137 151.966   4
  -8   2  -4 14199.6 774.936   3
   8  -2   4 13224.1 723.106   3
   8   2   4 14342.2 926.030   2
   8   2   4 13772.6 545.346   6
  -8  -2  -4 12992.8 837.502   2
  -8   2  -4 13751.9 743.833   7
  -8   2  -4 14105.3 831.314   4
   8  -2   4 13597.4 772.777   7
   8   2   5 558.678 183.605   2
  -8  -2  -5 546.126 165.088   2
   8  -2   5 690.593 191.131   7
   8   2   5 608.081 123.859   6
   8  -2   5 492.224 138.401   3
  -8   2  -5 596.553 158.842   3
  -8   2  -5 711.159 196.838   4
   8  -2   6 5703.72 533.751   7
   8  -2   6 5791.46 490.490   3
  -8   2  -6 5828.39 513.743   3
  -8  -2  -6 5982.03 571.503   2
  -8   2  -6 6386.68 558.811   4
   8  -2   7 690.613 207.121   7
   8   2   7 944.164 207.565   7
   8  -2   7 722.471 176.413   3
  -8   2  -7 795.558 192.868   3
  -8  -2  -7 412.144 149.645   2
  -8   2  -7 922.068 215.728   4
  -8   2  -8 43501.5 1462.88   3
   8   2   8 47279.4 1529.53   7
   8  -2   8 45626.3 1602.71   7
   8   2   8 43856.6 1301.83   5
   8  -2   8 46386.9 1438.40   3
  -8   2  -9 199.170 115.347   3
   8  -2   9 302.466 217.210   7
   8   2   9 22.3261 50.7804   7
   8   2   9-9.80681 56.3456   5
  -8   2 -10 713.270 201.544   3
   8  -2  10 705.780 194.723   7
   8   2  10 997.937 229.345   7
   8   2  10 760.993 156.914   5
   8  -2  11 203.324 145.591   7
  -8   2 -11 22.6715 45.9195   3
   8   2  11 136.225 51.8986   5
   8   2  11 321.288 130.494   7
   8  -2  11-3.46344 54.3910   5
  -8   2 -12 11204.5 793.623   3
   8  -2  12 10974.0 879.022   7
   8   2  12 10974.3 807.688   7
   8  -2  12 10789.8 659.247   5
   8   2  12 10437.1 575.638   5
  -8   2 -13 205.988 106.681   3
   8  -2  13 27.2353 128.924   7
   8   2  13 374.614 155.534   7
   8   2  13 201.514 69.0223   5
   8  -2  13 283.877 116.343   5
  -8   2 -14 28.4676 61.3242   3
   8   2  14 21.4401 54.8035   7
   8  -2  14 93.2631 63.6300   5
   8   2  14 35.9163 19.7821   5
   8  -2  14 90.1349 86.1781   7
  -8   2 -15 47.6458 52.7952   3
   8  -2  15 357.995 254.104   7
   8   2  15 137.131 113.932   7
   8  -2  15 88.8033 65.2289   5
  -8   2 -16 30990.7 1418.05   3
   8  -2  16 30521.5 1628.50   7
   8  -2  16 29452.0 970.995   5
   8   2  16 32691.5 1543.13   7
  -8   2 -17-51.2769 42.8883   3
   8   2  17-93.7958 38.1266   7
   8   2  17 11.5384 12.7270   4
  -8   2 -18 598.957 191.299   3
   8  -2  18 448.237 208.485   7
   8   2  18 721.803 239.020   7
  -8   2 -19-23.8713 31.9818   3
   8  -2  19-130.899 165.489   7
   8   2  19-68.9429 129.637   7
  -8   2 -20 9031.95 827.457   3
   8  -2  20 8560.48 946.349   7
   8   2  20 8486.00 862.694   7
   8   2  21-22.3755 82.1530   7
   8  -2  21 374.121 224.852   7
   8   2  22 6499.66 787.353   7
   8  -2  22 6367.15 857.890   7
   8  -2  23 212.168 162.492   7
   8   2  23 300.995 222.370   7
   8  -2  24 19822.0 1593.83   7
   8   2  24 21881.1 1503.77   7
   8  -2  25-56.7521 156.808   7
   8   2  25 356.432 245.717   7
   8   2  26 2732.50 545.949   7
   8  -2  26 3560.89 700.230   7
   8  -2  27 107.471 58.6543   7
   8   2  27 191.629 162.485   7
   8  -2  28 3797.62 743.554   7
   8   2  28 4047.20 703.096   7
   8  -2  29-52.6747 159.694   7
   8   2  29 153.077 177.898   7
   8  -2  30 7394.50 1088.88   7
   8   2  30 5654.81 872.439   7
   8   2  31 69.9141 81.5440   7
   8  -2  31 0.78388 145.915   7
   8   2  32 7475.31 1026.40   7
   8   2  33 31.3269 224.835   7
  -8  -4  37-129.292 236.206   2
  -8  -4  36 3678.92 826.161   2
  -8  -4  36 4563.65 806.943   1
  -8   4  35 90.8676 179.261   1
  -8  -4  35-41.6542 180.765   1
  -8  -4  35-127.092 200.855   2
  -8  -4  34 7550.10 1147.44   2
  -8   4  34 7606.26 1067.55   1
  -8  -4  34 7837.65 1013.08   1
  -8   4  33 60.1758 96.9809   1
  -8  -4  33 197.708 252.318   2
  -8   4  32 111.951 150.580   1
  -8  -4  32 269.060 251.949   2
  -8   4  31 158.469 102.926   1
  -8  -4  31 186.344 263.998   2
  -8  -4  30 12904.6 1409.87   2
  -8   4  30 13541.2 1320.58   1
  -8   4  29 22.3392 109.630   1
  -8  -4  29 181.587 216.123   2
  -8   4  28 1189.13 382.559   1
  -8  -4  28 1010.30 363.936   2
  -8   4  27 216.509 142.941   1
  -8  -4  27 343.967 207.929   2
   8  -4 -27 124.764 68.2426   5
  -8  -4  26 10263.4 1171.68   2
  -8   4  26 10124.0 1058.84   1
   8  -4 -26 11547.6 998.040   5
  -8   4  25 52.2084 91.1112   1
  -8  -4  25 274.220 255.971   2
   8  -4 -25-35.5726 126.026   5
  -8   4  24 466.543 210.138   1
  -8  -4  24 302.995 188.136   2
   8  -4 -24 681.052 241.605   5
  -8   4  23-105.190 149.647   1
  -8  -4  23 268.410 188.302   2
   8  -4 -23 164.688 116.458   5
  -8   4  22 15997.8 1214.51   1
  -8  -4  22 17172.1 1423.98   2
   8  -4 -22 16901.9 1238.08   5
  -8   4  21 251.062 236.892   1
  -8  -4  21 747.605 353.938   2
   8  -4 -21 162.567 140.673   5
  -8   4  20 1224.91 339.317   1
  -8  -4  20 915.314 309.961   2
  -8   4  19 12.5801 97.7573   1
  -8  -4  19-125.325 194.362   2
  -8  -4  18 19805.2 1440.02   2
  -8   4  18 17457.0 1167.33   1
  -8  -4  17 61.2557 133.471   2
  -8   4  17-61.7315 93.6321   1
  -8   4  16 9928.49 835.669   1
  -8  -4  16 11171.1 1050.51   2
   8   4 -15 241.196 169.836   3
  -8  -4  15 65.0363 171.651   2
  -8   4  15 462.163 204.994   1
   8   4 -14 18091.6 1200.43   3
  -8   4  14 18482.2 1091.40   1
  -8  -4  14 19430.1 1364.76   2
   8   4 -13 290.042 160.798   3
  -8  -4  13 201.424 161.593   2
  -8   4  13 116.605 112.061   1
   8   4 -12 1263.30 313.072   3
  -8   4  12 1409.82 296.864   1
  -8  -4  12 1366.41 346.218   2
   8   4 -11-3.23554 74.3437   3
  -8   4  11 78.5822 109.797   1
  -8   4  11-87.4168 86.5216   6
   8  -4 -11 4.96183 12.4366   2
  -8  -4  11 111.738 78.8672   2
   8   4 -10 19156.0 1134.38   3
  -8   4  10 18699.5 1038.90   1
  -8  -4  10 19041.1 1283.87   2
  -8   4  10 20389.6 1135.35   3
  -8   4  10 19225.3 999.283   6
   8  -4 -10 16462.0 544.352   2
  -8   4   9 144.726 70.1862   1
   8   4  -9 260.178 150.592   3
   8  -4  -9 264.401 86.9715   2
  -8  -4   9 179.034 127.151   2
  -8  -4   9 191.313 52.2949   1
  -8   4   9 116.780 87.7445   3
  -8   4   9 243.591 124.536   6
   8   4  -8 33159.1 1422.04   3
  -8   4   8 36195.5 1376.50   1
  -8  -4   8 30769.2 663.553   1
  -8  -4   8 33685.3 1698.73   2
  -8   4   8 30337.3 596.136   7
   8  -4  -8 33983.8 1046.93   2
  -8   4   8 33321.0 1277.93   6
  -8   4   8 34469.8 1460.50   3
   8   4  -7 191.217 134.650   3
  -8  -4   7 42.6380 15.8696   1
  -8  -4   7 239.531 143.505   2
  -8   4   7 87.1583 112.864   6
   8  -4  -7 53.1679 42.9497   2
  -8   4   7 16.7909 13.1560   7
  -8   4   7 126.814 74.3441   3
  -8   4   7 88.3143 76.6965   1
   8   4  -6 14463.2 898.741   3
  -8  -4   6 15330.4 1134.70   2
  -8   4   6 15535.0 862.384   6
  -8   4   6 14259.1 522.330   7
  -8   4   6 15751.8 978.376   3
   8  -4  -6 15420.6 790.335   2
   8   4  -5 74.7712 77.4993   3
  -8   4   5 19.4103 13.5635   7
   8  -4  -5-30.5381 68.7375   7
  -8  -4   5 76.8613 87.2863   2
  -8   4   5 159.042 94.3522   3
  -8   4   5 61.6380 92.8130   6
   8   4  -4 6220.17 552.974   3
  -8  -4   4 7093.27 764.104   2
  -8   4   4 6411.42 636.471   3
  -8   4   4 5519.44 531.726   6
   8  -4  -4 5614.86 464.780   7
  -8   4   4 6048.16 397.654   7
   8   4  -3 219.465 94.5311   3
   8  -4  -3 438.717 137.859   7
  -8   4   3 376.280 151.135   3
  -8   4   3 280.081 90.9054   7
  -8   4   3 282.748 108.814   6
  -8  -4   3 449.946 205.427   2
   8   4  -2 7313.10 570.606   3
   8  -4  -2 7483.96 583.073   7
  -8   4   2 7407.79 496.531   7
  -8   4   2 6931.49 675.329   3
  -8  -4   2 7483.85 589.409   3
  -8  -4   2 8299.96 817.784   2
   8   4  -1 56.3288 100.915   3
  -8   4   1 60.9258 46.4454   7
   8  -4  -1-95.8271 34.4359   7
  -8   4   1-7.07940 41.7456   3
  -8  -4   1 16.4296 40.7551   3
  -8  -4   1 102.034 108.726   2
   8   4   0 37234.5 1204.99   3
   8  -4   0 37223.9 1394.24   7
  -8   4   0 35414.8 1183.04   7
  -8  -4   0 38215.4 1258.12   3
  -8   4   0 35856.2 1536.94   3
  -8  -4   0 36322.1 1718.80   2
  -8  -4  -1 880.984 257.033   2
   8   4   1 740.526 174.296   3
  -8  -4  -1 423.739 135.622   3
   8  -4   1 640.930 177.667   7
  -8   4  -1 737.622 183.648   7
  -8   4  -1 899.705 209.924   3
   8  -4   2 5845.66 581.426   7
  -8   4  -2 5952.68 630.645   3
   8   4   2 7087.41 491.201   3
  -8  -4  -2 6329.09 718.610   2
  -8  -4  -2 6958.60 495.508   3
  -8  -4  -3 41.8231 63.0208   2
   8   4   3 124.270 33.1997   3
  -8   4  -3 109.703 83.2604   3
   8  -4   3 145.546 85.4432   7
  -8  -4  -3 251.480 91.9590   3
   8   4   3 58.1882 29.2619   1
   8  -4   3 100.399 101.592   5
   8   4   4 7887.58 486.631   3
  -8   4  -4 7962.69 743.714   3
   8   4   4 7785.74 379.604   1
  -8  -4  -4 7437.00 476.656   3
   8  -4   4 7819.27 704.865   7
  -8  -4  -4 7777.87 780.311   2
   8  -4   4 8297.44 798.320   5
   8   4   5 123.844 79.4698   3
   8  -4   5 276.154 222.697   7
   8   4   5 47.9866 19.3731   1
  -8   4  -5 142.717 59.4533   3
  -8  -4  -5 319.539 170.147   2
   8  -4   5 148.912 111.500   5
   8   4   6 6551.64 394.045   3
  -8   4  -6 6384.36 692.067   3
   8   4   6 7429.37 447.078   1
  -8  -4  -6 6434.65 694.960   2
   8  -4   6 5995.67 664.387   5
   8  -4   6 7168.69 701.593   7
   8   4   7 855.583 133.687   3
  -8  -4  -7 639.685 230.266   2
   8   4   7 642.271 80.0089   6
   8  -4   7 417.517 183.680   5
   8  -4   7 1185.67 307.934   7
   8   4   7 768.193 153.813   1
  -8   4  -7 691.771 226.550   3
   8   4   8 34585.2 794.645   3
  -8   4  -8 32085.5 1592.15   3
   8   4   8 37732.3 1136.34   1
   8   4   8 30497.8 680.376   6
   8  -4   8 36071.7 1638.12   5
  -8  -4  -8 34635.6 1624.52   2
   8  -4   8 35962.3 1650.99   7
   8   4   9-14.8865 21.4575   3
   8  -4   9-116.119 64.5720   5
  -8   4  -9 142.525 124.091   3
   8   4   9-43.8274 43.4222   6
   8  -4   9 171.631 108.518   7
  -8  -4  -9 39.0093 63.2782   2
  -8   4 -10 1143.82 309.564   3
   8  -4  10 903.455 272.959   7
  -8  -4 -10 1396.58 328.157   2
   8   4  10 919.071 142.155   6
   8   4  10 861.694 93.6436   3
   8  -4  10 973.927 262.580   5
  -8   4 -11 621.081 233.968   3
  -8  -4 -11 638.892 203.756   2
   8   4  11 525.955 173.133   7
   8  -4  11 675.108 261.968   7
   8  -4  11 244.366 119.228   5
  -8   4 -12 11552.5 997.447   3
   8   4  12 11749.5 879.493   7
   8  -4  12 12105.8 1045.59   7
   8  -4  12 12508.5 946.371   5
  -8  -4 -12 12755.6 992.102   2
   8  -4  13 487.995 196.850   7
   8   4  13 460.018 165.068   7
   8  -4  13 471.192 185.964   5
  -8   4 -13 523.571 221.325   3
  -8   4 -14 255.033 158.194   3
   8  -4  14 332.936 133.247   5
   8   4  14 381.460 171.123   7
   8  -4  14 169.861 99.2639   7
  -8   4 -15 113.252 114.825   3
   8  -4  15 246.766 187.357   7
   8   4  15 38.0095 60.0488   7
   8  -4  15-78.4805 92.1475   5
  -8   4 -16 28814.7 1659.10   3
   8  -4  16 27189.9 1388.51   5
   8  -4  16 28634.3 1756.69   7
   8   4  16 29451.6 1480.34   7
  -8   4 -17-22.1789 75.4527   3
   8  -4  17 164.453 148.219   7
   8   4  17-28.9655 64.5984   7
   8  -4  17-10.6182 33.8124   5
  -8   4 -18 455.324 210.047   3
   8  -4  18 506.622 201.991   7
   8   4  18 475.350 203.375   7
  -8   4 -19-33.8665 141.260   3
   8  -4  19 109.062 113.657   7
   8   4  19-117.832 137.018   7
  -8   4 -20 5541.09 787.167   3
   8  -4  20 5114.37 810.306   7
   8   4  20 6173.53 738.776   7
  -8   4 -21 153.144 180.946   3
   8   4  21 146.350 129.594   7
   8  -4  21 472.829 249.153   7
  -8   4 -22 3560.46 651.978   3
   8  -4  22 3835.17 728.184   7
   8   4  22 4165.32 625.105   7
   8   4  22 3047.98 526.987   1
  -8   4 -23 29.5721 65.3367   3
   8   4  23 277.760 138.313   7
   8   4  23 262.135 184.256   1
   8  -4  23 489.930 282.866   7
  -8   4 -24 13677.4 1299.43   3
   8   4  24 14269.1 1204.84   7
   8  -4  24 16917.4 1586.58   7
   8   4  24 15054.2 1243.50   1
  -8   4 -25 177.908 183.103   3
   8  -4  25-124.009 151.198   7
   8   4  25 203.501 175.272   7
   8   4  25-34.9584 60.9577   1
   8  -4  26 2366.21 601.131   7
   8   4  26 3501.31 614.273   7
   8   4  26 2309.89 516.222   1
   8  -4  27 525.255 300.815   7
   8   4  27 515.048 238.001   1
   8   4  27 433.012 227.413   7
   8  -4  28 4398.03 872.658   7
   8   4  28 4218.00 724.490   1
   8   4  29 122.533 163.949   1
   8   4  30 3180.98 650.941   1
   8   4  31-154.187 150.271   1
  -8   6  33-69.7058 174.098   1
  -8   6  32 15.6929 132.591   1
  -8  -6  31 34.9243 170.396   2
  -8   6  31 91.6430 126.454   1
  -8   6  30 10791.4 1225.61   1
  -8  -6  30 11912.9 1548.84   2
  -8  -6  29 238.345 63.3976   2
  -8   6  29 193.150 158.244   1
  -8   6  28 1287.85 402.704   1
  -8  -6  28 1305.99 475.944   2
  -8   6  27 495.428 233.235   3
  -8  -6  27 412.065 266.168   2
  -8   6  27 608.140 270.237   1
  -8   6  26 8727.73 1030.00   1
  -8  -6  26 8385.49 1238.68   2
  -8   6  26 10924.8 1077.34   3
   8  -6 -26 10283.0 1133.24   5
  -8   6  25 167.386 146.648   3
  -8   6  25-120.303 158.140   1
  -8  -6  25 58.8166 116.534   2
   8  -6 -25 236.878 163.266   5
   8  -6 -24 523.885 236.350   5
  -8   6  24 171.352 99.6710   3
  -8  -6  24 120.143 96.9599   2
  -8   6  24 260.819 172.771   1
  -8   6  23-50.2568 133.331   3
  -8   6  23-13.9851 67.8379   1
  -8  -6  23-201.299 188.076   2
   8  -6 -23 7.77130 119.357   5
  -8   6  22 13731.2 1190.04   1
  -8  -6  22 14053.7 1518.74   2
  -8   6  22 12257.9 1105.16   3
   8  -6 -22 13380.7 1316.20   5
  -8   6  21-42.6994 147.436   3
  -8   6  21-30.1727 124.957   1
  -8  -6  21-85.1749 69.3457   2
   8  -6 -21 158.549 153.529   5
  -8   6  20 869.845 278.986   1
  -8   6  20 537.893 229.362   3
  -8  -6  20 1583.26 484.166   2
   8  -6 -20 957.894 354.434   5
   8   6 -19 422.415 226.023   3
  -8   6  19 305.390 167.755   3
  -8   6  19 287.355 180.459   1
  -8  -6  19 103.840 110.232   2
  -8   6  19 368.014 144.019   6
   8  -6 -19 123.194 48.6881   5
   8   6 -18 11559.3 1176.50   3
  -8   6  18 11397.9 1017.34   1
  -8  -6  18 12154.7 1340.20   2
  -8   6  18 12625.7 1083.59   3
  -8   6  18 13675.7 1023.99   6
   8  -6 -18 11934.6 1237.73   5
   8   6 -17 27.4737 113.440   3
  -8   6  17-13.2447 82.3768   3
  -8   6  17 49.4491 77.9614   1
  -8  -6  17-160.977 179.633   2
  -8   6  17-65.0446 89.9087   6
   8  -6 -17-22.8563 93.6484   5
  -8   6  16 6050.45 717.596   1
  -8  -6  16 6299.74 948.838   2
   8   6 -16 6281.34 833.184   3
  -8   6  16 5908.01 735.054   3
   8  -6 -16 5574.19 822.578   5
  -8   6  16 6149.74 648.379   6
   8   6 -15 132.347 175.970   3
  -8   6  15 165.698 104.980   1
  -8   6  15 35.8622 106.700   3
  -8   6  15 153.587 125.410   6
   8  -6 -15-77.1283 144.162   5
  -8  -6  15 27.3395 55.2462   2
   8   6 -14 11282.7 1086.22   3
  -8   6  14 12301.8 991.904   1
  -8   6  14 12001.4 1039.21   3
  -8   6  14 12184.8 904.516   6
   8  -6 -14 10803.4 1143.69   5
  -8  -6  14 12096.1 1292.34   2
   8   6 -13 53.6083 80.2168   3
  -8   6  13 71.9839 89.5597   1
  -8   6  13 28.5111 59.7860   6
  -8  -6  13-72.2521 170.939   2
  -8   6  13 242.822 161.217   3
   8  -6 -13 2.53763 21.5413   2
  -8  -6  12 1221.87 388.693   2
  -8   6  12 1831.46 373.643   1
   8  -6 -12 1404.94 213.082   2
  -8   6  12 1475.15 360.296   3
  -8   6  12 1758.77 325.253   6
   8   6 -12 1301.49 352.269   3
   8  -6 -12 1353.96 419.283   5
   8   6 -11-163.872 155.997   3
   8  -6 -11 8.02195 23.8249   2
  -8   6  11-13.4604 87.6575   3
  -8  -6  11 235.180 167.114   2
  -8   6  11-4.26333 32.2195   6
   8  -6 -11 129.343 69.2420   5
   8   6 -10 14099.4 1132.02   3
  -8  -6  10 14101.2 1345.02   2
  -8   6  10 13587.7 1098.36   3
  -8  -6  10 14155.2 470.997   1
  -8   6  10 15087.1 962.625   6
   8  -6 -10 14242.1 1290.55   5
   8  -6 -10 14131.5 807.292   2
   8   6  -9 87.9209 53.1247   3
  -8   6   9 250.662 174.205   3
  -8  -6   9 113.877 31.4584   1
   8  -6  -9 219.617 101.279   2
  -8   6   9 150.008 73.7346   6
  -8  -6   9 463.583 280.779   2
  -8  -6   9 167.610 39.9786   1
   8  -6  -9 331.978 214.754   5
   8   6  -8 23013.4 1389.00   3
  -8  -6   8 21958.0 1665.84   2
   8  -6  -8 22813.8 1194.35   2
  -8   6   8 23372.5 1183.22   6
   8  -6  -8 22987.5 1625.22   5
  -8   6   8 21309.6 1378.36   3
   8   6  -7-59.1183 90.1710   3
  -8   6   7 63.4070 42.2163   7
  -8  -6   7 181.919 181.714   2
  -8   6   7 99.9117 93.7376   6
   8  -6  -7 93.3479 49.2553   2
   8  -6  -7 387.712 233.465   5
  -8   6   7 81.0947 102.215   3
   8   6  -6 10935.5 930.498   3
  -8  -6   6 8904.17 433.347   6
   8  -6  -6 11696.2 954.278   2
  -8   6   6 9537.61 579.960   7
  -8  -6   6 9918.23 1103.39   2
  -8   6   6 11362.1 1013.81   3
   8  -6  -6 10251.0 1088.68   5
  -8   6   5-11.6089 53.0996   7
  -8  -6   5 22.1807 20.1857   6
   8  -6  -5-89.1604 39.7479   2
  -8   6   5-54.2820 90.5030   3
  -8  -6   5 17.6932 115.421   2
  -8  -6   4 5532.53 799.119   2
   8   6  -4 5171.06 622.263   3
  -8   6   4 5098.96 691.536   3
   8  -6  -4 5044.09 656.791   2
   8  -6  -4 5277.25 757.784   5
   8   6  -3 529.890 205.286   3
  -8   6   3 820.199 270.789   3
   8  -6  -3 271.251 134.015   2
   8  -6  -3 652.433 247.195   5
  -8  -6   3 418.768 222.221   2
   8   6  -2 6501.52 664.263   3
  -8   6   2 6713.29 787.756   3
   8  -6  -2 6233.66 842.032   5
   8  -6  -2 6791.19 799.356   2
  -8  -6   2 4845.14 756.420   2
   8   6  -1 1.24567 65.7142   3
  -8   6   1-146.376 187.429   3
   8  -6  -1 60.7782 180.344   5
  -8  -6   1-35.1250 90.0381   2
   8  -6  -1 189.673 135.223   2
   8   6   0 21296.8 1179.97   3
  -8   6   0 19788.4 1371.01   3
   8  -6   0 20006.9 1412.31   2
   8  -6   0 22251.2 1567.39   5
  -8  -6   0 18468.3 1484.45   2
   8   6   1 608.640 203.275   3
  -8   6  -1 1113.51 345.603   3
  -8  -6  -1 514.922 243.594   2
   8  -6   1 779.948 254.692   7
   8  -6   1 661.958 283.718   5
   8   6   2 4881.54 548.097   3
  -8   6  -2 4361.50 658.377   3
   8  -6   2 5233.69 766.086   5
  -8  -6  -2 4861.53 762.387   2
   8  -6   2 4597.96 656.498   7
  -8  -6  -3-34.3425 161.438   2
   8   6   3-38.7213 71.5891   3
  -8   6  -3-145.251 74.1527   3
   8  -6   3 237.444 199.556   5
   8  -6   3-33.5221 77.9165   7
   8   6   4 7816.31 655.033   3
  -8   6  -4 7087.59 863.941   3
   8  -6   4 7900.43 899.346   7
  -8  -6  -4 7081.51 916.426   2
   8  -6   4 7230.84 899.467   5
   8   6   5 166.647 85.1752   3
   8  -6   5 341.634 203.001   7
   8  -6   5-14.6069 91.1234   5
  -8   6  -5 265.308 174.069   3
  -8  -6  -5-99.5694 156.154   2
   8   6   6 6240.48 562.188   3
  -8   6  -6 5269.62 747.039   3
   8  -6   6 6599.01 835.263   7
   8  -6   6 5554.50 797.234   5
  -8  -6  -6 5913.40 800.301   2
   8   6   7 285.218 94.3576   3
   8   6   7 349.731 80.6829   1
   8  -6   7 328.814 185.789   7
  -8   6  -7 405.581 237.619   3
   8  -6   7 488.556 236.048   5
  -8  -6  -7 441.298 216.313   2
   8   6   8 23642.1 1019.57   3
   8   6   8 21175.9 734.412   1
  -8   6  -8 22576.1 1584.84   3
   8  -6   8 21174.3 1550.17   7
   8  -6   8 22220.2 1580.35   5
  -8  -6  -8 22897.6 1546.75   2
   8   6   9 16.3339 22.6019   3
  -8  -6  -9 103.344 124.705   2
  -8   6  -9 252.748 201.578   3
   8   6   9 40.7009 43.6648   1
   8  -6   9 13.0835 112.604   5
   8  -6   9-56.6752 99.1390   7
   8   6  10 530.557 135.458   3
   8  -6  10 607.611 279.916   7
   8  -6  10 558.836 251.219   5
   8   6  10 427.592 128.349   1
  -8  -6 -10 548.460 221.407   2
  -8   6 -10 335.574 204.323   3
  -8   6 -11 349.461 213.635   3
   8  -6  11 167.393 108.276   5
  -8  -6 -11 203.915 151.554   2
   8   6  11 128.817 61.1023   1
  -8   6 -12 9954.99 1102.85   3
   8  -6  12 10338.4 1139.73   7
   8   6  12 11147.6 746.494   1
  -8  -6 -12 11285.4 1062.89   2
   8  -6  12 9386.11 1036.15   5
  -8   6 -13 65.3796 121.901   3
   8   6  13 63.0368 42.7411   1
   8   6  13 66.1627 63.7364   7
   8  -6  13 326.833 215.276   7
  -8  -6 -13-23.3502 66.3120   2
   8  -6  13-3.16340 140.421   5
  -8   6 -14 442.304 231.560   3
   8  -6  14 236.866 191.545   7
   8   6  14 181.428 130.154   7
  -8  -6 -14 65.2169 38.0301   2
   8  -6  14-12.1466 81.7358   5
  -8   6 -15 288.272 189.732   3
   8  -6  15 15.2871 225.314   5
   8  -6  15 144.598 107.566   7
   8   6  15 135.120 100.784   7
  -8   6 -16 21457.3 1685.75   3
   8   6  16 24979.0 1439.19   7
   8  -6  16 23115.8 1624.22   5
   8  -6  16 21774.9 1767.71   7
  -8   6 -17 146.403 89.6099   3
   8   6  17 128.662 119.630   7
   8  -6  17 74.3156 124.354   7
  -8   6 -18 464.070 273.092   3
   8   6  18 493.716 203.202   7
   8  -6  18 689.250 336.416   7
  -8   6 -19-34.1213 77.6666   3
   8  -6  19 144.688 176.533   7
   8   6  19-4.15107 32.4296   7
  -8   6 -20 4515.95 815.221   3
   8   6  20 6300.15 760.742   7
   8  -6  20 5477.23 939.040   7
  -8   6 -21-244.478 195.069   3
   8  -6  21-69.3397 133.731   7
  -8   6 -22 2424.01 618.544   3
   8  -6  22 2746.75 705.170   7
  -8   6 -23-35.8017 254.945   3
   8  -6  23 264.364 246.503   7
   8  -6  24 10111.9 1382.27   7
  -8   6 -24 9737.82 1254.56   3
  -8   6 -25 163.306 181.150   3
  -8   6 -26 2179.33 617.904   3
  -8   6 -27 236.761 187.362   3
   8  -8 -24-27.2857 208.286   5
  -8   8  23 307.761 191.513   1
  -8  -8  23-299.068 264.871   2
   8  -8 -23 95.4553 209.799   5
  -8   8  22 9043.16 1025.07   1
  -8  -8  22 11733.9 1616.97   2
   8  -8 -22 11394.9 1448.59   5
  -8   8  22 11720.3 1211.03   3
  -8   8  21 68.9944 86.8891   1
  -8  -8  21 539.611 311.005   2
   8  -8 -21 453.642 337.628   5
  -8   8  21 212.163 80.6861   3
   8   8 -20-9.84082 135.599   3
  -8   8  20 14.9345 99.5432   1
  -8   8  20 25.1318 143.813   3
   8  -8 -20-64.8719 199.743   5
  -8  -8  20 20.1206 184.297   2
   8   8 -19 116.155 88.6791   3
  -8   8  19 212.857 225.116   3
   8  -8 -19 105.423 106.646   5
  -8   8  19 28.5145 49.5438   1
   8   8 -18 10210.8 1246.22   3
  -8  -8  18 10688.7 1496.11   2
  -8   8  18 10036.2 1111.54   3
   8  -8 -18 10038.5 1331.50   5
   8   8 -17 11.8250 120.845   3
  -8   8  17 5.64336 108.334   3
  -8  -8  17 23.9505 206.713   2
   8  -8 -17-62.5517 101.062   5
   8   8 -16 6597.14 973.797   3
  -8   8  16 6296.06 880.742   3
  -8  -8  16 6119.97 1118.47   2
   8  -8 -16 6304.44 1052.90   5
   8   8 -15 238.778 233.762   3
  -8  -8  15 201.711 164.415   2
   8  -8 -15 224.964 255.167   5
  -8   8  15-44.9343 146.103   3
   8   8 -14 10388.6 1204.86   3
  -8  -8  14 9098.64 1328.98   2
   8  -8 -14 9146.17 1242.53   5
  -8   8  14 9524.42 1073.57   3
   8   8 -13 317.684 222.989   3
  -8  -8  13 222.154 241.103   2
   8  -8 -13-140.066 185.105   5
  -8   8  13 159.541 174.784   3
   8   8 -12 924.757 356.382   3
   8  -8 -12 346.304 292.015   5
  -8   8  12 184.831 170.795   3
  -8  -8  12 462.146 358.599   2
  -8   8  11 16.9035 86.0639   3
   8   8 -11 144.568 158.862   3
  -8  -8  11-290.451 328.945   2
   8  -8 -11 172.916 155.333   5
   8   8 -10 8205.92 999.864   3
  -8  -8  10 6282.16 1077.03   2
  -8   8  10 7779.98 976.472   3
   8  -8 -10 7852.33 1145.07   5
   8   8  -9-20.1152 145.372   3
  -8   8   9 96.0437 92.6083   3
  -8  -8   9-57.0882 273.569   2
   8  -8  -9-232.861 186.617   5
   8   8  -8 8476.93 995.352   3
  -8  -8   8 7433.20 1162.82   2
  -8   8   8 8126.35 1009.70   3
   8  -8  -8 8297.50 1186.65   5
   8   8  -7 26.9615 58.5424   3
  -8  -8   7-100.227 181.414   2
  -8   8   7 30.0832 97.9137   3
   8  -8  -7 221.677 199.990   5
   8   8  -6 4422.35 693.495   3
   8  -8  -6 3779.70 637.976   2
  -8  -8   6 4157.24 849.741   2
  -8   8   6 4741.86 777.352   3
   8  -8  -6 4097.99 817.746   5
   8   8  -5 87.7072 163.437   3
  -8  -8   5 104.596 96.2992   2
  -8   8   5 502.336 300.182   3
   8  -8  -5 191.056 149.283   2
   8  -8  -5-50.5276 220.763   5
   8   8  -4 5577.30 776.124   3
   8  -8  -4 5894.03 852.761   2
  -8   8   4 6866.15 949.208   3
  -8  -8   4 5588.95 972.531   2
   8  -8  -4 7126.24 1077.65   5
   8   8  -3 290.194 175.493   3
  -8  -8   3 323.585 318.487   2
  -8   8   3 40.6457 164.165   3
   8  -8  -3 20.2518 48.8163   2
   8  -8  -3 104.010 203.185   5
   8   8  -2 6582.74 819.301   3
  -8   8   2 6102.67 910.194   3
  -8  -8   2 5212.92 956.252   2
   8  -8  -2 6684.40 968.417   2
   8  -8  -2 6711.06 1056.89   5
   8   8  -1 1.35320 80.7003   3
  -8  -8   1 374.445 253.049   2
  -8   8   1 216.180 235.988   3
   8  -8  -1 242.888 123.402   2
   8  -8  -1 290.473 252.060   5
   8   8   0 15518.4 1212.10   3
   8  -8   0 16162.4 1620.44   5
  -8   8   0 15706.8 1463.05   3
   8  -8   0 12362.2 1363.36   2
  -8  -8   0 13390.8 1501.95   2
  -8  -8  -1 394.284 275.005   2
   8   8   1 95.8573 87.0571   3
   8  -8   1 417.994 256.241   5
  -8   8  -1-86.2452 196.059   3
   8  -8   1 82.4907 140.856   2
   8   8   2 4375.42 614.226   3
  -8   8  -2 3957.75 750.842   3
  -8  -8  -2 4820.23 886.014   2
   8  -8   2 2937.57 677.487   2
   8  -8   2 4662.20 853.995   5
  -8  -8  -3-74.5216 171.308   2
   8   8   3 120.651 67.8222   3
  -8   8  -3 321.755 226.408   3
   8  -8   3-156.382 169.330   5
   8  -8   3 35.3802 72.8530   2
   8   8   4 6585.31 739.192   3
  -8   8  -4 7394.46 1026.63   3
   8  -8   4 5706.33 968.809   2
   8  -8   4 6950.08 1045.02   5
  -8  -8  -4 6958.49 1046.39   2
   8   8   5 757.702 254.518   3
   8  -8   5 807.438 384.869   5
  -8  -8  -5 231.300 138.084   2
   8  -8   5 453.558 290.910   2
  -8   8  -5 408.963 278.195   3
  -8   8  -6 4701.44 843.408   3
  -8  -8  -6 4897.76 846.065   2
   8  -8   6 3903.59 785.226   5
   8  -8   6 4219.90 852.235   2
  -8   8  -7 146.477 202.917   3
   8  -8   7 67.0776 134.445   5
   8  -8   7 200.093 574.738   2
  -8  -8  -7 125.852 192.191   2
  -8   8  -8 17133.0 1602.71   3
   8  -8   8 13090.6 1537.82   2
  -8  -8  -8 16144.1 1506.37   2
   8  -8   8 15196.4 1577.43   5
   8  -8   9-228.564 223.736   5
  -8  -8  -9-47.0196 93.5996   2
   8  -8   9 132.333 203.727   2
  -8   8  -9 130.112 180.620   3
  -8   8 -10-54.3683 221.420   3
   8  -8  10 176.732 208.312   5
  -8  -8 -10 385.363 225.501   2
   8  -8  10 145.452 200.196   2
  -8   8 -11-54.7459 77.2754   3
   8  -8  11 104.431 174.723   5
  -8  -8 -11-36.5010 53.3046   2
  -8   8 -12 8074.32 1138.35   3
   8  -8  12 6856.43 1150.39   2
  -8  -8 -12 8435.59 1028.39   2
   8  -8  12 7305.19 1099.62   5
  -8   8 -13 6.16104 129.950   3
   8  -8  13 371.017 270.250   5
  -8  -8 -13 84.7342 105.231   2
  -8   8 -14-77.7530 104.797   3
   8  -8  14 294.579 174.632   2
  -8   8 -15-84.8537 217.247   3
   8  -8  15 206.252 219.963   2
  -8   8 -16 12534.3 1478.34   3
   8  -8  16 11023.7 1465.17   7
   8  -8  16 12331.3 1615.27   2
  -8   8 -17-31.7386 211.282   3
   8  -8  17 37.8921 94.4376   7
   8  -8  18 811.602 373.011   7
  -8  10  15-105.680 132.365   3
  -8  10  14 3708.33 765.249   3
  -8  10  13 247.014 181.943   3
  -8  10  12 1357.16 442.440   3
   8  10 -11 396.095 210.566   3
  -8  10  11 285.174 200.914   3
   8  10 -10 7253.96 1089.58   3
  -8  10  10 7136.27 1085.56   3
   8  10  -9 125.034 86.8208   3
  -8  10   9-69.4068 200.526   3
  -8 -10   9 130.707 154.617   2
   8  10  -8 10441.6 1272.04   3
  -8  10   8 10882.0 1344.00   3
  -8 -10   8 9426.04 1538.80   2
   8  10  -7 344.581 312.248   3
  -8 -10   7 38.1244 112.743   2
  -8  10   7 513.535 293.908   3
   8  10  -6 5408.13 895.784   3
  -8 -10   6 4903.41 1093.10   2
  -8  10   6 5327.53 937.994   3
   8  10  -5 196.887 205.017   3
  -8 -10   5-147.334 169.470   2
  -8 -10   4 2709.54 783.364   2
   8  10  -4 2831.37 630.833   3
  -8  10   4 2223.21 636.084   3
   8  10  -3 77.0725 40.4021   3
  -8 -10   3-11.0265 68.2125   2
  -8  10   3 44.3856 190.893   3
   8  10  -2 3226.19 638.361   3
  -8 -10   2 2934.44 836.796   2
  -8  10   2 3116.54 749.601   3
  -8 -10   1-158.879 193.050   2
  -8  10   1 504.149 313.260   3
  -8 -10   0 4947.83 1038.45   2
  -8 -10  -1 324.069 246.001   2
  -8 -10  -2 525.142 331.819   2
  -8 -10  -3 225.991 137.882   2
   8 -10   5 601.823 399.301   2
   8 -10   6 1894.40 678.566   2
   8 -10   7-435.543 326.894   2
   8 -10   8 9032.49 1501.58   2
  -9  -1  38 32.0734 125.109   1
  -9   1  38 61.5645 64.9776   1
  -9  -1  37 1431.61 450.112   1
  -9   1  37 1408.58 449.933   1
  -9   1  36 31.4779 133.022   1
  -9  -1  36 128.717 159.914   1
  -9   1  35 8261.20 1072.54   1
  -9  -1  35 7821.30 1031.11   1
  -9  -1  35 7622.38 956.439   2
  -9   1  34 152.216 201.259   1
  -9  -1  34 177.589 210.134   1
  -9  -1  34 246.439 170.348   2
  -9   1  33 7132.67 976.905   1
  -9  -1  33 8006.65 997.480   1
  -9  -1  33 6279.54 841.923   2
  -9   1  32 274.047 230.854   1
  -9  -1  32 17.0239 46.6342   2
  -9  -1  32 81.8646 87.6345   1
  -9   1  31 16774.4 1408.26   1
  -9   1  31 16905.1 1164.73   7
  -9  -1  31 16236.5 1362.02   1
  -9  -1  31 16226.3 1287.68   2
  -9  -1  30-35.2610 80.1229   1
  -9   1  30 131.277 90.4924   7
  -9   1  30 87.0314 108.054   1
  -9   1  30 4.36968 69.3036   2
  -9  -1  30 124.029 106.423   2
  -9   1  29 44.5964 29.8306   7
  -9  -1  29 212.598 169.260   1
  -9   1  29-31.2295 55.0141   1
  -9   1  29 173.048 123.122   2
  -9  -1  29-75.6207 103.838   2
  -9  -1  28 35.4919 119.188   1
  -9   1  28 94.7546 115.049   7
  -9   1  28 45.1962 131.461   1
  -9   1  28 66.1469 55.3871   2
  -9  -1  28 146.185 121.788   2
  -9   1  27 17749.5 1320.80   1
  -9   1  27 19975.6 1145.57   7
  -9   1  27 18715.6 1032.81   2
  -9  -1  27 19110.1 1291.60   2
  -9  -1  27 18326.6 1297.45   1
   9  -1 -27 20311.1 1143.11   4
  -9  -1  26 254.750 182.779   1
  -9   1  26 242.779 205.523   1
  -9   1  26 11.2822 47.9319   2
  -9  -1  26 268.376 193.600   2
   9  -1 -26-62.9416 118.618   4
  -9   1  26 20.8392 40.1292   7
  -9   1  25 684.821 192.508   7
  -9   1  25 1044.19 324.487   1
  -9   1  25 646.752 177.367   2
  -9  -1  25 948.829 274.442   2
   9  -1 -25 503.907 180.319   4
  -9  -1  25 602.165 218.909   1
  -9   1  24 9.07157 53.8519   7
  -9  -1  24 83.7390 84.6747   1
  -9   1  24-164.333 87.3408   1
  -9   1  24-31.3815 46.0993   2
  -9  -1  24 79.7769 65.5635   2
   9  -1 -24 25.9905 34.9351   4
  -9   1  23 11456.5 968.298   1
  -9  -1  23 13147.1 982.228   2
  -9   1  23 13766.8 788.073   2
  -9  -1  23 12369.8 961.792   1
   9  -1 -23 12661.3 927.417   4
  -9  -1  22 43.7799 40.9714   1
  -9   1  22 62.3759 139.349   1
   9  -1 -22 195.255 97.0854   7
  -9   1  22 2.50384 50.7589   2
  -9  -1  22-20.6756 50.5514   2
   9  -1 -22 60.8627 56.2789   4
  -9  -1  21 730.315 221.750   2
   9  -1 -21 845.153 198.581   7
  -9  -1  21 943.842 286.390   1
  -9   1  21 800.477 239.608   1
  -9   1  21 797.862 173.512   2
   9  -1 -21 649.734 200.464   4
  -9   1  20 40.1507 107.072   1
   9  -1 -20 132.041 60.3751   7
   9  -1 -20 130.676 120.565   4
  -9  -1  20 129.710 95.1771   2
  -9   1  20 48.7722 28.7854   2
  -9  -1  20 340.819 170.057   1
   9  -1 -19 22551.2 953.950   7
  -9  -1  19 25188.9 1230.63   2
  -9  -1  19 22771.1 1171.61   1
  -9   1  19 23643.3 875.908   2
   9  -1 -19 20962.0 1185.13   4
  -9   1  19 23216.5 1238.53   1
  -9   1  18 283.467 183.522   1
   9  -1 -18 81.0798 58.8192   7
  -9   1  18 92.1110 44.4774   2
  -9  -1  18 134.704 100.449   2
  -9  -1  18 142.882 128.195   1
   9  -1 -18-65.5973 84.0988   4
  -9   1  17 98.9656 50.3205   2
  -9   1  17 163.606 125.768   1
   9  -1 -17 201.949 72.8956   7
  -9  -1  17 284.480 139.397   1
  -9  -1  17 46.5068 39.0062   2
   9  -1 -17 60.0075 44.0252   4
  -9   1  16 51.0666 33.3482   2
  -9  -1  16-19.8484 58.8764   1
   9  -1 -16 35.1532 31.6860   7
  -9  -1  16 46.5704 51.3507   2
  -9   1  16 101.011 70.8166   1
   9  -1 -16 86.3829 63.6602   4
  -9   1  15 21178.2 699.061   2
  -9  -1  15 21031.1 986.925   1
  -9  -1  15 22016.9 1073.00   2
   9  -1 -15 20974.2 779.360   7
  -9   1  15 22402.9 1099.77   1
   9  -1 -15 20600.6 1147.57   4
  -9  -1  14 124.128 85.2182   1
  -9  -1  14 84.3867 103.800   2
   9  -1 -14 36.8890 26.7980   7
  -9   1  14 22.4080 21.4177   2
  -9   1  14 47.6365 69.8648   1
   9   1 -14 147.405 84.2089   7
  -9  -1  13 40676.0 1267.81   1
   9  -1 -13 41275.6 992.733   7
   9   1 -13 41373.3 1450.42   7
  -9  -1  13 42869.4 1447.59   2
  -9   1  13 41773.1 1436.19   1
  -9   1  13 40333.8 890.592   2
  -9   1  12 11.8948 27.0890   2
   9   1 -12 36.6582 49.3105   7
  -9  -1  12-37.5129 65.0164   1
   9  -1 -12-0.41988 31.6824   7
  -9  -1  12-11.7879 37.8151   2
  -9   1  12 16.6014 73.0550   1
  -9  -1  11 16328.5 862.561   2
   9   1 -11 16377.4 880.360   7
   9  -1 -11 15230.7 576.733   7
   9   1 -11 17233.4 896.881   2
  -9   1  11 15449.4 828.120   1
  -9   1  11 15203.1 529.969   2
  -9  -1  11 15553.5 728.423   1
   9  -1 -10 309.508 82.9348   2
  -9  -1  10 238.229 99.7477   2
  -9  -1  10 331.512 95.5149   1
   9   1 -10 218.647 102.100   2
  -9   1  10 260.148 70.4242   2
  -9   1  10 363.714 115.668   1
  -9  -1   9 538.055 158.036   2
  -9  -1   9 568.481 133.355   1
   9   1  -9 507.308 120.296   1
   9  -1  -9 611.803 114.232   2
   9   1  -9 639.944 170.283   2
  -9   1   9 768.691 175.754   1
  -9   1   9 510.027 94.6459   2
  -9  -1   8 144.651 65.6865   1
   9   1  -8 193.546 101.206   2
   9  -1  -8 76.0113 40.8045   2
   9   1  -8 116.451 70.4822   1
  -9  -1   8 64.2293 55.1104   2
  -9   1   8 198.496 82.0460   1
  -9   1   8 92.5746 42.3913   2
   9   1  -7 25581.1 819.423   1
  -9   1   7 25778.0 978.077   1
  -9  -1   7 22818.9 761.580   1
  -9   1   7 25634.5 724.904   2
   9  -1  -7 24106.8 739.472   2
  -9  -1   7 25782.6 1049.76   2
   9  -1  -6-30.8186 41.3196   2
  -9  -1   6-91.1306 85.4033   2
   9   1  -6-5.36133 14.5325   1
  -9   1   6-51.6275 75.8659   1
  -9  -1   6-19.9960 28.0528   1
  -9   1   6 13.8670 22.5695   2
  -9   1   5 28525.0 986.796   1
  -9  -1   5 27849.9 793.087   1
   9   1  -5 28834.3 801.888   1
  -9   1   5 28352.9 1023.88   6
   9  -1  -5 28849.8 860.719   2
  -9  -1   5 27990.3 1109.98   2
  -9  -1   4 122.405 77.4982   2
   9   1  -4 134.325 53.7955   1
   9  -1  -4 98.6108 44.8743   7
  -9   1   4 150.444 80.8355   6
   9  -1  -4 95.2154 43.9703   2
   9   1  -3 17022.2 576.627   1
   9  -1  -3 14813.0 603.849   7
  -9   1   3 15680.5 750.533   6
   9  -1  -3 16775.9 693.177   2
  -9  -1   3 16642.7 872.696   2
  -9  -1   3 15755.0 647.732   6
   9  -1  -2 341.466 167.691   4
   9   1  -2 186.779 66.4466   1
   9  -1  -2 171.745 73.9884   7
  -9   1   2 310.948 109.503   6
  -9  -1   2 185.418 64.6596   6
   9  -1  -2 304.318 84.4294   2
  -9  -1   2 268.961 112.989   2
   9  -1  -1 17227.0 706.849   7
   9  -1  -1 16962.3 742.938   2
  -9  -1   1 16644.4 654.790   6
  -9   1   1 17540.1 805.104   6
  -9  -1   1 16379.0 863.332   2
   9  -1  -1 17883.2 918.768   4
   9   1   0 39.6562 36.8492   6
  -9   1   0-25.3447 73.6339   6
   9  -1   0 77.3948 52.3641   7
  -9  -1   0 88.3902 38.3795   6
  -9   1   0 27.8112 18.3865   3
  -9  -1   0 188.915 109.487   2
   9  -1   0 73.8253 72.4510   4
  -9   1  -1 9010.92 524.402   3
   9   1   1 8753.09 479.631   6
   9  -1   1 8140.15 526.673   7
  -9  -1  -1 8737.80 648.655   2
   9  -1   1 9015.35 630.029   4
  -9   1  -2 27.8226 45.1388   7
  -9   1  -2-10.3456 37.6014   3
   9   1   2 30.1947 15.3549   6
   9  -1   2-40.1883 65.0462   7
  -9  -1  -2-57.3767 69.0100   2
   9  -1   2 25.9688 40.7122   4
  -9   1  -3 46575.9 1204.19   3
   9  -1   3 47093.7 1369.06   7
  -9  -1  -3 48902.3 1549.05   2
   9   1   3 48794.3 1218.08   6
   9  -1   3 46482.3 1396.81   4
  -9   1  -4 27.6900 59.6375   3
  -9  -1  -4 53.7554 20.8008   3
   9   1   4 79.5272 42.6216   6
  -9  -1  -4 144.908 103.491   2
   9  -1   4-51.3565 66.2362   7
   9  -1   4 113.486 87.8511   4
  -9   1  -5 860.869 164.921   3
   9  -1   5 1125.51 219.289   7
   9   1   5 930.050 179.023   6
   9   1   5 927.917 202.550   7
   9  -1   5 1049.62 207.078   4
  -9   1  -6 20.5770 35.8295   3
   9   1   6 52.1592 39.3176   7
   9   1   6-18.4158 63.1538   6
   9  -1   6-97.6311 88.7519   7
   9  -1   6 40.8404 33.8745   4
  -9   1  -7 7325.84 511.101   3
   9  -1   7 7676.18 633.025   7
   9   1   7 7751.42 619.154   7
   9  -1   7 7295.89 475.763   3
   9  -1   7 7475.83 523.975   4
   9   1   8 102.568 69.1908   7
   9  -1   8 20.4661 79.3786   7
   9  -1   8 68.0217 53.5295   3
  -9   1  -8 109.147 57.5050   3
   9  -1   8 11.5203 23.2204   4
  -9   1  -9 1577.53 246.368   3
   9  -1   9 2154.12 271.998   3
   9  -1   9 1672.05 309.592   7
   9   1   9 1689.76 298.591   7
   9  -1  10 109.692 60.6780   7
  -9   1 -10 97.9722 72.9793   3
   9   1  10-4.80839 76.3925   7
   9  -1  10 7.38377 32.0521   3
  -9   1 -11 44900.8 1353.41   3
   9  -1  11 44644.8 1286.94   3
   9   1  11 47309.6 1692.03   7
   9  -1  11 45533.9 1714.02   7
   9   1  12 30.6969 48.1944   7
  -9   1 -12-61.1963 61.6540   3
   9  -1  12 59.2247 115.324   7
   9  -1  12 35.3147 46.7929   3
  -9   1 -13 87.4977 49.5513   3
   9  -1  13 49.0130 53.2610   7
   9   1  13 219.762 123.457   7
   9  -1  13-8.26239 57.6853   3
   9   1  13 103.228 50.4805   5
  -9   1 -14-45.1660 62.7325   3
   9  -1  14-128.311 140.270   7
   9   1  14-176.265 131.588   7
   9  -1  14 6.75903 27.8527   5
   9   1  14-20.5491 8.21773   5
   9  -1  14 2.95157 61.3194   3
   9   1  14 4.77821 29.8690   4
  -9   1 -15 12592.6 780.551   3
   9   1  15 11532.7 332.005   5
   9  -1  15 12821.2 746.605   3
   9   1  15 13819.1 1008.95   7
   9  -1  15 12813.4 1016.40   7
   9  -1  15 11502.2 483.055   5
   9   1  15 10717.0 343.685   4
  -9   1 -16-15.8070 49.9968   3
   9  -1  16 44.5592 132.028   7
   9   1  16 135.719 126.353   7
   9   1  16 13.8398 18.8638   3
   9  -1  16-22.6291 21.1130   5
  -9   1 -17 100.664 85.3998   3
   9  -1  17-65.2696 60.7982   7
   9   1  17 23.4367 22.2763   3
   9   1  17 22.3013 45.4738   7
   9   1  18-19.0496 74.0159   7
   9  -1  18-3.02031 138.152   7
   9  -1  19 19729.4 1389.11   7
   9   1  19 20295.2 1350.52   7
   9  -1  20-33.7169 116.468   7
   9   1  20 182.372 158.977   7
   9   1  21 251.043 168.707   7
   9  -1  21 109.642 72.7815   7
   9  -1  22-15.6527 55.4791   7
   9   1  22 141.730 179.443   7
   9  -1  23 8310.74 983.663   7
   9   1  23 8260.85 937.602   7
   9  -1  24 16.5428 105.071   7
   9   1  24 331.759 206.212   7
   9  -1  25 2813.05 613.994   7
   9   1  25 3150.23 604.096   7
   9   1  26-52.2609 114.540   7
   9  -1  26 120.862 199.823   7
   9   1  27 17826.9 1499.27   7
   9  -1  27 16997.4 1548.54   7
   9   1  28 137.458 107.151   7
   9  -1  28 136.006 212.799   7
   9  -1  29 3341.77 707.449   7
   9   1  29 3591.27 708.783   7
   9   1  30-46.6611 47.2629   7
   9  -1  30-292.626 217.180   7
   9   1  31 1325.55 453.538   7
   9  -1  31 1470.89 502.944   7
   9   1  32-36.5171 83.3518   7
  -9  -3  38 210.793 190.709   2
  -9  -3  37 1349.90 450.694   1
  -9  -3  37 1024.08 371.660   2
  -9   3  36-101.606 172.019   1
  -9  -3  36 200.287 181.640   1
  -9   3  35 11872.5 1325.79   1
  -9  -3  35 9646.36 1239.79   2
  -9  -3  35 10536.9 1185.21   1
  -9  -3  34 79.6266 162.256   2
  -9   3  34-154.358 155.568   1
  -9  -3  34-88.4096 95.4321   1
  -9  -3  33 5562.55 909.033   2
  -9   3  33 6468.61 939.922   1
  -9  -3  33 4859.16 760.418   1
  -9  -3  32-149.739 176.630   1
  -9  -3  32 25.4553 52.1044   2
  -9   3  32 36.8173 138.009   1
  -9   3  31 7190.09 952.490   1
  -9  -3  31 7701.99 1034.37   2
  -9  -3  31 7023.12 883.977   1
  -9  -3  30-58.0077 103.292   1
  -9  -3  30 308.707 234.705   2
  -9   3  30 226.137 189.058   1
  -9  -3  29 288.787 224.584   2
  -9   3  29-93.3829 120.869   1
  -9   3  28-91.1707 62.1665   1
  -9  -3  28 215.092 110.194   2
   9  -3 -28 240.097 143.938   5
  -9  -3  27 11943.8 1194.48   2
  -9   3  27 11819.8 1125.93   1
  -9   3  26 55.1657 91.2393   1
  -9  -3  26 126.325 153.842   2
  -9   3  25 1050.18 316.786   1
  -9  -3  25 1339.66 370.296   2
  -9   3  24-39.4093 111.443   1
  -9  -3  24 93.1933 121.383   2
  -9   3  23 23326.1 1465.67   1
  -9  -3  23 24167.2 1578.32   2
  -9   3  22 582.416 267.615   1
  -9  -3  22 199.460 195.681   2
  -9  -3  21 4002.64 630.624   2
  -9   3  21 4427.67 604.140   1
  -9   3  20 761.322 264.640   1
  -9  -3  20 576.381 240.407   2
  -9  -3  19 32020.9 1707.17   2
  -9   3  19 31609.7 1569.36   1
  -9   3  18 101.286 99.7215   1
  -9  -3  18 197.053 114.678   2
  -9   3  17 471.406 194.171   1
  -9  -3  17 211.878 126.410   2
  -9   3  16 118.796 122.530   1
  -9  -3  16 126.949 115.595   2
  -9  -3  15 9604.88 883.299   2
  -9  -3  15 10541.6 660.607   1
  -9   3  15 10036.6 801.905   1
  -9  -3  14-33.6770 90.6385   2
  -9   3  14-107.111 91.3628   1
  -9  -3  14-47.7719 57.7143   1
  -9   3  13 15726.6 957.331   1
  -9  -3  13 16718.6 1134.92   2
  -9  -3  13 15374.0 721.574   1
  -9  -3  12 62.1396 19.0704   1
  -9  -3  12 252.638 128.404   2
  -9   3  12 173.916 108.799   1
  -9   3  11 18361.9 1003.96   1
  -9  -3  11 20201.9 1228.53   2
  -9  -3  11 16756.2 676.857   1
  -9   3  10 1353.39 273.586   1
  -9  -3  10 1371.48 303.466   2
  -9  -3  10 1162.62 165.694   1
  -9   3   9 1302.62 254.977   1
  -9  -3   9 1394.89 327.037   2
   9  -3  -9 1156.63 130.384   2
   9  -3  -9 1275.16 120.960   2
  -9  -3   9 1222.65 159.296   1
  -9   3   8 272.962 77.6218   6
  -9  -3   8 324.886 78.8202   1
  -9  -3   8 233.271 138.301   2
  -9   3   8 332.533 149.024   1
   9  -3  -8 190.277 48.5034   7
  -9   3   7 19718.5 985.273   1
  -9  -3   7 19548.4 1191.51   2
  -9  -3   7 18381.6 512.210   1
   9  -3  -7 18339.0 557.171   7
  -9   3   7 20919.6 976.138   6
  -9  -3   6 8.47442 50.1484   3
  -9   3   6 10.9058 15.5345   7
  -9  -3   6-85.4249 105.596   2
  -9   3   6 77.1099 69.6784   6
   9  -3  -6 56.6020 36.8661   7
  -9  -3   6 3.59190 7.97251   1
  -9  -3   5 26673.3 1085.01   3
   9  -3  -5 27466.0 825.485   7
  -9   3   5 26183.6 704.838   7
  -9   3   5 28352.5 1226.14   3
  -9   3   5 26866.3 1129.21   6
  -9  -3   5 28301.7 1409.50   2
  -9  -3   4 552.733 152.872   3
  -9  -3   4 616.747 201.565   2
  -9   3   4 426.151 94.5721   7
   9  -3  -4 655.459 135.543   7
  -9   3   4 451.060 155.260   3
  -9   3   4 526.796 149.798   6
  -9  -3   3 6936.32 514.971   3
   9  -3  -3 6526.54 459.352   7
  -9   3   3 6851.66 414.854   7
  -9   3   3 6747.84 600.221   3
  -9   3   3 7209.61 584.232   6
  -9  -3   3 6957.61 708.516   2
  -9  -3   2 67.5982 91.1661   2
  -9  -3   2 187.341 52.5620   6
  -9  -3   2 165.558 85.7147   3
  -9   3   2 250.927 84.1453   7
   9  -3  -2 159.291 74.3250   7
  -9   3   2 153.503 66.2340   3
  -9   3   2 5.56456 63.7407   6
  -9  -3   1 8838.03 532.497   3
   9  -3  -1 9010.72 583.139   7
  -9  -3   1 8437.09 330.398   6
  -9   3   1 9650.79 713.167   3
  -9   3   1 9216.58 543.001   7
  -9   3   1 8679.52 654.740   6
  -9  -3   1 9129.91 804.146   2
  -9  -3   0-2.07010 22.8954   3
  -9  -3   0-17.4975 96.8806   2
   9  -3   0 81.3190 90.1164   7
  -9   3   0 41.9043 81.1277   3
  -9   3   0 9.30554 15.8847   7
   9   3   0 13.4548 15.4063   1
  -9  -3  -1 15119.1 633.469   3
  -9   3  -1 15239.0 901.873   3
  -9  -3  -1 15834.3 1064.50   2
  -9   3  -1 15598.0 774.681   7
   9  -3   1 14398.8 797.258   7
  -9  -3  -2-38.8799 37.4664   3
  -9   3  -2 92.0699 76.6536   7
  -9   3  -2-33.0518 79.1091   3
  -9  -3  -2-52.1842 96.1149   2
  -9   3  -3 65534.9 1928.64   3
  -9  -3  -3 63221.6 1115.67   3
   9  -3   3 63457.8 1784.20   7
  -9  -3  -3 65932.1 2121.87   2
  -9   3  -4-102.978 126.872   3
   9   3   4-26.4051 25.3423   6
  -9  -3  -4 28.9928 23.0466   3
  -9  -3  -4 123.698 145.298   2
   9   3   5 3800.84 271.114   6
  -9   3  -5 4326.38 504.145   3
   9  -3   5 4005.21 469.929   7
  -9  -3  -5 4506.75 544.664   2
   9   3   6 144.329 53.4556   6
  -9   3  -6 202.530 107.252   3
  -9  -3  -6-27.2416 75.2894   2
   9  -3   6 198.085 125.396   7
  -9   3  -7 12716.9 899.964   3
   9  -3   7 11624.8 861.581   7
  -9  -3  -7 12126.9 919.818   2
   9   3   7 12957.6 839.360   5
   9   3   7 11772.2 540.077   6
   9   3   8 271.654 83.2734   6
  -9   3  -8 301.856 143.641   3
   9  -3   8 557.141 177.050   7
  -9  -3  -8 380.530 190.247   2
   9   3   8 360.902 131.630   5
   9  -3   9 629.696 190.186   7
  -9   3  -9 601.316 213.425   3
   9   3   9 499.170 145.737   7
  -9  -3  -9 519.660 180.085   2
   9   3   9 586.024 178.740   5
   9  -3   9 622.341 197.361   5
   9   3  10-24.0428 35.3652   7
  -9  -3 -10-49.6921 52.3422   2
   9   3  10-23.7922 38.0713   5
   9  -3  10 56.2878 52.3935   5
   9  -3  10-2.42134 54.2852   7
  -9   3 -11 18008.0 1124.70   3
   9  -3  11 17358.6 1164.52   7
   9   3  11 16723.5 1035.73   7
   9   3  11 17366.3 937.018   5
   9  -3  11 19721.0 1076.28   5
  -9   3 -12 28.0669 76.3677   3
   9  -3  12 308.099 155.834   7
   9   3  12 463.122 251.388   7
   9   3  12 84.0099 67.1572   5
   9  -3  12 143.044 84.9258   5
  -9   3 -13-36.2416 49.4268   3
   9  -3  13 136.703 86.2696   7
   9  -3  13-61.2359 110.479   5
   9   3  13 45.5169 27.5175   5
   9   3  13-69.8863 80.4759   7
  -9   3 -14 36.6931 110.685   3
   9  -3  14 161.908 135.300   7
   9   3  14 123.391 110.820   7
   9  -3  14 336.078 150.183   5
   9   3  14 184.146 103.637   5
  -9   3 -15 9477.55 874.376   3
   9   3  15 11358.8 925.301   7
   9  -3  15 9877.43 733.572   5
   9  -3  15 9939.39 968.146   7
  -9   3 -16 70.3937 81.0679   3
   9   3  16 164.687 146.570   7
   9  -3  16 5.85737 33.1099   5
   9  -3  16 181.507 166.746   7
  -9   3 -17 78.9163 81.4827   3
   9   3  17 125.015 112.484   7
   9  -3  17 253.524 122.829   5
   9  -3  17-119.723 167.753   7
   9  -3  18 79.5778 133.915   7
   9   3  18 189.567 164.429   7
  -9   3 -18 173.812 156.358   3
   9  -3  18 272.761 119.749   5
  -9   3 -19 26548.7 1548.55   3
   9  -3  19 26897.0 1753.78   7
   9   3  19 30702.0 1644.33   7
  -9   3 -20 140.087 119.906   3
   9  -3  20 179.295 143.642   7
   9   3  20 65.6736 118.921   7
  -9   3 -21 413.554 217.731   3
   9  -3  21 561.094 266.321   7
   9   3  21 517.905 213.615   7
  -9   3 -22 0.45930 92.7016   3
   9  -3  22-10.1572 56.4053   7
   9   3  22-108.553 165.557   7
  -9   3 -23 8721.41 942.122   3
   9  -3  23 8184.15 1044.79   7
   9   3  23 9238.36 973.927   7
   9  -3  24 199.311 229.659   7
   9   3  24 336.319 191.533   7
   9  -3  25 2283.74 587.327   7
   9   3  25 2164.84 505.028   7
   9   3  26 160.298 164.607   7
   9  -3  26 162.619 119.474   7
   9   3  27 12589.6 1241.76   7
   9  -3  27 15171.1 1552.84   7
   9  -3  28-278.447 110.295   7
   9   3  28-167.946 115.997   7
   9  -3  29 3858.47 815.555   7
   9   3  29 2124.57 522.969   7
   9   3  30-118.590 74.0665   7
  -9  -5  36 295.696 211.959   1
  -9  -5  35 5691.94 1075.69   2
  -9  -5  35 5909.43 886.877   1
  -9   5  34-123.125 154.220   1
  -9  -5  34-107.288 119.670   1
  -9  -5  34-100.944 147.595   2
  -9  -5  33 5243.13 1006.86   2
  -9   5  33 5934.02 943.637   1
  -9  -5  33 6171.26 878.420   1
  -9   5  32 392.887 225.290   1
  -9  -5  32 441.600 330.363   2
  -9  -5  32 424.325 224.179   1
  -9  -5  31 14319.6 1614.13   2
  -9   5  31 16296.8 1496.54   1
  -9   5  30 195.660 126.937   1
  -9  -5  30-42.1949 126.607   2
  -9   5  29-201.676 185.007   1
  -9  -5  29-282.189 199.225   2
  -9   5  28 345.363 229.085   1
  -9  -5  28 617.197 332.163   2
  -9  -5  27 22361.8 1906.43   2
   9  -5 -27 21639.7 1537.72   5
  -9   5  27 21579.1 1603.63   1
  -9   5  26-36.2595 129.250   1
  -9  -5  26-190.076 96.1650   2
   9  -5 -26-137.404 121.616   5
   9  -5 -25 317.619 137.345   5
  -9  -5  25 194.333 54.1062   2
   9  -5 -24 112.924 81.6062   5
  -9  -5  24 144.363 100.897   2
  -9   5  24 433.008 245.521   1
  -9  -5  23 5804.40 907.244   2
   9  -5 -23 5869.51 821.798   5
  -9   5  23 5782.39 770.269   1
  -9  -5  22-29.3657 148.752   2
   9  -5 -22 125.747 73.7095   5
  -9   5  22 248.874 138.753   1
  -9  -5  21 1106.58 393.984   2
  -9   5  21 1125.36 321.844   1
   9  -5 -21 1285.47 358.791   5
  -9  -5  20 948.610 362.297   2
  -9   5  20 792.389 259.139   1
   9  -5 -20 738.614 254.198   5
  -9   5  19 17489.3 1248.96   1
  -9  -5  19 18676.8 1546.21   2
   9  -5 -19 17716.3 1412.74   5
  -9   5  18-21.6996 65.4277   1
  -9  -5  18-92.7414 159.839   2
   9  -5 -18 113.956 133.074   5
  -9   5  17 387.763 182.424   1
  -9  -5  17 399.767 193.347   2
   9  -5 -17 131.011 132.913   5
  -9   5  17 96.8056 69.9675   3
   9   5 -16-188.169 162.595   3
  -9   5  16 51.8315 77.0223   1
  -9  -5  16 0.55934 66.1050   2
  -9   5  16-24.1061 96.2500   3
   9  -5 -16-232.425 225.283   5
   9   5 -15 21793.5 1442.13   3
  -9   5  15 22497.1 1320.46   1
  -9  -5  15 23718.8 1671.30   2
  -9   5  15 22408.4 1363.07   3
  -9   5  15 23369.6 1282.40   6
   9   5 -14 246.592 213.982   3
  -9   5  14 102.812 134.931   1
  -9  -5  14-131.472 77.1246   2
  -9   5  14 60.4179 141.931   3
  -9   5  14-106.840 150.613   6
   9   5 -13 16478.0 1206.48   3
  -9   5  13 17213.0 1112.12   1
  -9  -5  13 17625.8 1406.20   2
  -9   5  13 16962.6 1165.37   3
  -9   5  13 18116.2 1085.60   6
  -9  -5  13 17747.2 730.467   1
   9   5 -12 156.093 164.024   3
  -9   5  12 64.1373 112.363   1
  -9   5  12 64.5953 58.8092   6
  -9   5  12-12.0973 46.6807   3
  -9  -5  12 50.6294 42.2178   1
  -9  -5  12 204.056 200.538   2
   9  -5 -12 53.4185 36.2922   2
   9   5 -11 12298.8 998.119   3
  -9   5  11 12231.9 910.402   1
  -9  -5  11 12475.1 1166.24   2
  -9   5  11 12208.1 983.296   3
  -9  -5  11 12377.1 514.050   1
  -9   5  11 12833.2 883.742   6
   9  -5 -11 10987.6 518.482   2
   9   5 -10 1532.73 347.315   3
  -9   5  10 1135.11 281.961   1
   9  -5 -10 1158.06 197.904   2
  -9   5  10 800.953 75.7680   7
  -9  -5  10 1320.68 387.098   2
  -9   5  10 1694.55 378.219   3
  -9   5  10 1115.94 258.678   6
  -9  -5  10 1121.31 136.556   1
   9   5  -9 607.502 210.600   3
  -9  -5   9 590.159 81.0874   1
  -9   5   9 630.695 92.8746   7
   9  -5  -9 814.899 185.058   2
  -9   5   9 619.199 219.848   3
  -9   5   9 559.106 177.556   6
  -9  -5   9 482.778 206.673   2
   9   5  -8 406.043 175.654   3
  -9   5   8 437.647 88.1620   7
  -9   5   8 669.470 236.506   3
  -9   5   8 628.259 205.385   6
   9  -5  -8 694.636 178.642   2
  -9  -5   8 293.976 176.088   2
   9   5  -7 10904.5 876.505   3
  -9   5   7 11167.1 507.047   7
   9  -5  -7 12301.9 810.290   2
  -9   5   7 12298.6 847.813   6
  -9  -5   7 10788.9 1060.77   2
  -9   5   7 10953.3 911.353   3
   9   5  -6 56.4815 103.784   3
   9  -5  -6 83.1007 59.4977   2
  -9   5   6-39.7701 26.6657   7
  -9   5   6 70.8422 102.807   3
  -9   5   6-88.4890 72.1003   6
  -9  -5   5 22677.0 1522.42   2
   9   5  -5 21720.8 1171.66   3
  -9   5   5 20752.4 802.212   7
   9  -5  -5 20966.8 1143.18   2
  -9   5   5 21860.8 1129.66   6
  -9   5   5 22539.6 1321.72   3
   9   5  -4 73.8627 77.4585   3
  -9  -5   4 126.555 145.659   2
  -9   5   4 13.7664 76.6432   3
  -9   5   4 17.3463 40.6534   7
   9  -5  -4 27.3509 119.013   5
   9   5  -3 16955.3 1003.20   3
   9  -5  -3 15574.2 962.812   7
  -9   5   3 15665.3 1126.21   3
  -9   5   3 14882.0 759.148   7
   9  -5  -3 17136.4 1283.08   5
  -9  -5   3 16143.0 1283.87   2
   9   5  -2 10.7007 93.1170   3
  -9  -5   2 95.6316 57.2069   2
   9  -5  -2 1.44649 63.8974   7
  -9   5   2 127.285 63.8130   7
  -9   5   2-22.6017 114.939   3
   9  -5  -2 150.792 177.210   5
   9   5  -1 11199.9 778.564   3
   9  -5  -1 11407.4 863.492   7
   9  -5  -1 10380.8 1002.08   5
  -9  -5   1 10074.8 1016.27   2
  -9   5   1 11041.3 948.730   3
   9   5   0 6.16476 71.1010   3
  -9  -5   0-47.8843 80.1162   2
   9  -5   0 25.6855 54.9309   7
  -9   5   0-15.2039 53.5539   3
   9  -5   0 145.079 162.556   5
   9   5   1 6298.35 549.872   3
   9  -5   1 6528.87 680.878   7
  -9   5  -1 5707.72 696.593   3
   9  -5   1 6484.46 786.431   5
  -9  -5  -1 5768.83 768.030   2
  -9  -5  -2 27.3674 83.0085   2
   9   5   2 65.5608 55.4053   3
   9  -5   2 77.7862 112.809   7
  -9   5  -2-81.9871 143.556   3
  -9  -5  -2 11.1080 23.4509   3
   9  -5   2 147.512 128.865   5
   9   5   3 21867.9 974.198   3
  -9   5  -3 22336.9 1389.96   3
   9  -5   3 21672.5 1295.05   7
  -9  -5  -3 21951.8 980.866   3
   9  -5   3 22298.2 1465.53   5
  -9  -5  -3 22127.7 1502.92   2
   9   5   4-18.9866 46.0260   3
   9  -5   4-22.0781 88.5075   7
  -9   5  -4-141.291 149.788   3
  -9  -5  -4 32.8559 29.3914   3
   9  -5   4 40.7043 135.983   5
   9   5   4-1.27493 7.12749   1
  -9  -5  -4 255.023 184.355   2
   9   5   5 483.087 128.703   3
   9  -5   5 497.394 214.646   7
  -9   5  -5 385.842 180.934   3
   9   5   5 391.287 83.0766   1
   9  -5   5 393.942 159.903   5
  -9  -5  -5 395.717 186.116   2
   9   5   6 84.1881 74.1067   3
   9   5   6 33.7387 23.6317   1
   9  -5   6 52.1847 105.825   7
  -9   5  -6 91.5352 115.434   3
   9  -5   6 180.525 174.500   5
  -9  -5  -6 77.6406 99.7916   2
   9   5   7 10168.8 559.658   3
  -9   5  -7 9739.22 959.834   3
   9  -5   7 9565.61 927.556   7
  -9  -5  -7 10137.3 981.109   2
   9   5   7 9526.31 530.598   1
   9  -5   7 9320.51 942.504   5
   9   5   8 392.766 104.448   3
   9  -5   8 392.673 222.380   7
  -9   5  -8 515.914 195.205   3
   9   5   8 491.387 134.530   1
   9  -5   8 298.500 168.571   5
  -9  -5  -8 478.874 213.627   2
   9   5   9 3296.36 282.236   3
  -9   5  -9 3370.11 577.451   3
   9  -5   9 3120.80 542.769   7
   9  -5   9 3892.07 602.405   5
  -9  -5  -9 2819.17 513.527   2
   9   5   9 3024.75 348.781   1
   9   5  10 19.2518 28.3849   3
   9   5  10-38.0813 33.8142   1
  -9   5 -10 40.2688 84.4400   3
   9  -5  10 172.376 167.444   7
  -9  -5 -10-91.9860 99.2703   2
   9  -5  10-9.66703 69.0542   5
   9   5  11 42407.3 1436.86   1
  -9   5 -11 40208.7 2029.39   3
   9  -5  11 39448.6 2042.74   7
   9  -5  11 39852.4 1951.73   5
  -9  -5 -11 40662.1 1941.55   2
   9   5  12 152.062 87.4308   1
  -9   5 -12 245.751 183.089   3
   9  -5  12 325.206 204.770   7
   9   5  12 24.3688 67.6211   7
  -9  -5 -12 321.878 173.215   2
   9  -5  12 147.925 137.884   5
  -9   5 -13-37.9364 100.170   3
   9  -5  13-17.3173 71.1511   7
   9   5  13 105.533 86.2464   1
   9   5  13 89.9840 98.1221   7
  -9  -5 -13 261.980 164.919   2
   9  -5  13 56.4892 53.5193   5
  -9   5 -14 589.666 266.312   3
   9  -5  14 203.068 154.547   7
   9  -5  14 471.884 201.136   5
   9   5  14 266.418 135.762   1
   9   5  14 361.571 163.806   7
  -9   5 -15 8043.32 959.137   3
   9  -5  15 7433.64 951.136   7
   9   5  15 8214.58 740.900   1
   9  -5  15 8098.90 874.907   5
   9   5  15 8316.63 814.774   7
   9   5  16-43.1499 81.7030   1
  -9   5 -16-106.915 142.787   3
   9   5  16-44.2806 112.057   7
   9  -5  16 92.0551 92.0003   5
   9  -5  16-95.4822 165.914   7
   9   5  17-112.046 103.343   1
  -9   5 -17-280.972 196.628   3
   9  -5  17-82.2083 140.759   7
   9   5  17 108.911 121.051   7
   9  -5  17 180.641 134.649   5
  -9   5 -18-45.5601 92.1195   3
   9  -5  18 304.386 255.674   7
   9  -5  18 202.856 144.982   5
   9   5  18 113.408 76.6741   7
  -9   5 -19 10788.5 1165.32   3
   9  -5  19 11373.0 1274.17   7
   9   5  19 9864.70 948.837   7
   9   5  19 10020.0 919.546   1
  -9   5 -20 21.6054 85.1526   3
   9   5  20-10.9160 66.6918   1
   9   5  20 91.0575 114.055   7
  -9   5 -21 216.874 163.376   3
   9   5  21 27.0099 88.6956   1
   9   5  21 95.2633 65.3496   7
  -9   5 -22-32.4491 54.9168   3
   9   5  22 106.718 115.265   1
   9   5  22-54.0547 39.2291   7
  -9   5 -23 8059.66 1067.28   3
   9  -5  23 9813.19 1271.97   7
   9   5  23 9608.11 994.950   7
   9   5  23 7440.42 881.155   1
   9   5  24 104.962 130.392   1
   9  -5  24-70.0848 89.3842   7
  -9   5 -24 100.927 52.5189   3
   9   5  24 134.204 124.182   7
  -9   5 -25 1482.22 462.907   3
   9  -5  25 1341.06 472.722   7
   9   5  25 896.470 324.138   1
  -9   5 -26 286.828 210.361   3
   9  -5  26-61.0853 159.204   7
  -9   7  31 5978.07 931.593   1
  -9   7  30-125.947 136.374   1
  -9   7  29 9.10781 111.079   1
  -9   7  28 23.3885 119.494   1
  -9  -7  28 63.3927 74.8747   2
  -9   7  27 8161.21 1037.55   1
  -9  -7  27 10067.3 1470.49   2
  -9   7  26 37.0879 65.7960   3
  -9   7  26-23.7996 71.0271   1
  -9   7  25 229.987 221.262   1
  -9   7  25 198.471 118.008   3
  -9  -7  25 542.615 251.048   2
   9  -7 -25 423.742 251.767   5
   9  -7 -24 270.478 197.884   5
  -9  -7  24 201.945 57.2643   2
  -9   7  24 10.0559 62.2033   1
  -9   7  24 153.679 99.1939   3
  -9   7  23 12420.6 1213.44   1
  -9  -7  23 13528.2 1636.98   2
  -9   7  23 13669.9 1265.99   3
   9  -7 -23 12967.1 1446.92   5
   9  -7 -22 121.777 152.224   5
  -9   7  22 111.222 140.703   1
  -9   7  22 145.781 155.657   3
  -9  -7  22 266.467 264.930   2
  -9   7  21 2608.18 530.514   1
  -9  -7  21 2372.60 685.840   2
  -9   7  21 2936.33 578.225   3
   9  -7 -21 3024.95 678.360   5
  -9   7  20 199.416 173.202   3
  -9   7  20 639.203 255.858   1
  -9  -7  20 824.196 397.787   2
   9  -7 -20 639.515 328.729   5
   9   7 -19 17929.1 1590.77   3
  -9   7  19 15223.8 1249.89   1
  -9   7  19 17698.4 1203.06   6
  -9   7  19 15642.3 1324.18   3
  -9  -7  19 17831.3 1792.39   2
   9  -7 -19 15388.2 1548.27   5
   9   7 -18-53.1063 81.4037   3
  -9   7  18-51.3073 74.2317   1
  -9   7  18-180.652 95.3672   3
  -9  -7  18 83.2532 60.7077   2
  -9   7  18-150.446 56.4229   6
   9  -7 -18 84.8497 188.301   5
   9   7 -17-60.1124 130.243   3
  -9   7  17 109.666 115.290   1
  -9   7  17 81.0275 95.4766   6
  -9  -7  17-140.923 259.577   2
  -9   7  17-74.7819 153.912   3
   9  -7 -17 64.6036 88.8424   5
  -9   7  16 236.804 155.859   1
   9   7 -16 131.934 129.243   3
  -9  -7  16 280.395 227.116   2
  -9   7  16 416.754 206.608   3
  -9   7  16 132.309 120.537   6
   9  -7 -16 534.631 309.715   5
   9   7 -15 10009.0 1123.96   3
  -9   7  15 8868.30 992.229   3
  -9  -7  15 9576.71 1274.03   2
  -9   7  15 10830.2 891.376   6
   9  -7 -15 10345.2 1243.76   5
   9   7 -14 74.4756 109.779   3
  -9  -7  14 14.6763 115.986   2
  -9   7  14 60.9621 118.451   3
  -9   7  14-21.0325 86.8422   6
   9  -7 -14 341.711 258.088   5
   9   7 -13 6201.85 842.080   3
  -9  -7  13 6007.78 995.990   2
   9  -7 -13 5533.46 910.086   5
  -9   7  13 6762.95 682.991   6
  -9   7  13 5332.31 758.219   3
   9   7 -12-91.7936 103.570   3
  -9   7  12-100.609 122.754   6
  -9  -7  12 97.2456 215.031   2
   9  -7 -12 100.032 109.530   5
  -9   7  12-38.3681 112.133   3
   9   7 -11 10801.0 1099.90   3
  -9  -7  11 11195.2 1341.09   2
  -9   7  11 8909.63 981.855   3
  -9   7  11 10498.5 842.344   6
   9  -7 -11 9511.22 1174.99   5
   9   7 -10 531.566 246.097   3
   9  -7 -10 694.766 198.716   2
  -9   7  10 589.813 266.834   3
   9  -7 -10 657.544 309.448   5
  -9  -7  10 322.178 239.445   2
   9  -7  -9 929.907 253.274   2
   9   7  -9 1053.05 339.935   3
  -9   7   9 704.761 248.239   3
  -9  -7   9 480.110 258.739   2
   9  -7  -9 1091.82 383.090   5
   9   7  -8 65.3519 76.4000   3
  -9   7   8 92.2412 109.798   3
  -9  -7   8-154.611 152.189   2
   9  -7  -8 100.476 109.434   2
   9  -7  -8 310.219 239.866   5
   9   7  -7 9039.00 929.410   3
  -9  -7   7 9089.91 1167.17   2
   9  -7  -7 9230.90 878.445   2
  -9   7   7 8470.42 947.860   3
   9  -7  -7 8413.07 1092.13   5
   9   7  -6-40.2993 78.0910   3
  -9  -7   6-69.7727 152.127   2
  -9   7   6-6.09678 127.297   3
   9  -7  -6 137.417 116.097   5
   9  -7  -6-5.59650 106.661   2
   9   7  -5 14334.4 1143.10   3
  -9   7   5 13494.5 1230.88   3
   9  -7  -5 14434.6 1205.36   2
  -9  -7   5 12349.8 1350.41   2
   9  -7  -5 14189.5 1411.03   5
   9   7  -4-90.5194 84.1195   3
  -9   7   4 41.9319 141.177   3
   9  -7  -4 43.0064 57.2105   2
   9  -7  -4 401.136 262.269   5
  -9  -7   4 45.6418 168.141   2
   9   7  -3 6620.86 758.577   3
  -9   7   3 6697.87 889.269   3
   9  -7  -3 6128.22 828.148   2
   9  -7  -3 5810.49 913.968   5
  -9  -7   3 5060.40 864.806   2
   9   7  -2 273.201 184.423   3
  -9  -7   2 64.6964 81.0200   2
   9  -7  -2 1.63476 147.257   2
   9  -7  -2 212.995 165.955   5
  -9   7   2-140.862 159.550   3
   9   7  -1 6286.30 711.567   3
   9  -7  -1 5953.25 909.516   5
  -9   7   1 6056.01 837.850   3
   9  -7  -1 5685.04 816.974   2
  -9  -7   1 5199.38 872.253   2
   9   7   0 3.97319 33.0709   3
  -9  -7   0 35.4936 50.3525   2
  -9   7   0-64.2337 111.627   3
   9  -7   0 67.7336 86.0442   5
   9  -7   0 194.780 180.304   2
   9   7   1 7307.82 743.814   3
  -9   7  -1 7236.45 937.237   3
   9  -7   1 7392.44 1006.50   5
   9  -7   1 6382.84 909.183   2
  -9  -7  -1 8000.75 1077.81   2
  -9  -7  -2 37.8676 104.679   2
   9   7   2 130.101 142.176   3
  -9   7  -2-135.397 171.679   3
   9  -7   2-15.3034 128.362   5
   9  -7   2 286.405 228.417   2
   9   7   3 30283.9 1443.50   3
  -9   7  -3 28020.3 1893.18   3
   9  -7   3 26501.9 1906.81   2
   9  -7   3 28720.6 1977.33   5
  -9  -7  -3 27648.7 1981.64   2
  -9  -7  -4-25.9680 68.4284   2
   9   7   4 155.402 94.9858   3
  -9   7  -4 328.307 225.505   3
   9  -7   4 12.1075 108.421   5
   9  -7   4 298.049 220.968   2
   9   7   5 2308.57 377.386   3
   9  -7   5 2699.80 581.135   7
  -9   7  -5 2139.39 510.167   3
   9  -7   5 1717.54 489.247   5
  -9  -7  -5 2002.74 529.452   2
   9   7   6 86.3895 53.1195   3
   9  -7   6 476.409 288.916   7
  -9   7  -6 253.510 240.941   3
   9  -7   6 446.469 255.358   5
  -9  -7  -6-35.5618 134.015   2
  -9   7  -7 8704.16 1074.25   3
   9  -7   7 9382.11 1117.24   7
   9  -7   7 7975.23 1052.30   5
  -9  -7  -7 8936.53 1065.39   2
  -9   7  -8 290.409 131.762   3
   9  -7   8 215.806 178.993   5
  -9  -7  -8 617.222 276.996   2
   9  -7   8 277.820 180.942   7
  -9   7  -9 254.153 124.626   3
   9  -7   9 278.061 188.032   5
  -9  -7  -9 324.904 199.901   2
   9  -7   9 421.210 247.056   7
  -9   7 -10-15.3423 143.825   3
   9  -7  10 226.186 173.094   7
   9  -7  10-43.2458 163.394   5
  -9  -7 -10 172.549 149.217   2
  -9   7 -11 13729.5 1391.97   3
   9  -7  11 13627.1 1418.13   7
  -9  -7 -11 17041.1 1428.23   2
   9  -7  11 14570.4 1435.31   5
  -9   7 -12 259.961 193.770   3
   9  -7  12 183.256 179.713   7
   9  -7  12 69.0121 129.883   5
  -9  -7 -12 6.04820 77.9239   2
   9  -7  13 254.031 227.859   7
  -9   7 -13 57.9175 54.3841   3
   9   7  13-15.8937 53.7520   7
  -9  -7 -13 135.673 131.746   2
   9  -7  14 266.370 216.492   5
  -9   7 -14 248.567 202.551   3
   9  -7  14-53.2828 80.7377   7
   9   7  14 400.398 289.094   7
  -9  -7 -14 228.735 171.976   2
  -9   7 -15 5495.73 917.773   3
   9  -7  15 5718.66 966.586   7
   9   7  15 4978.67 679.499   7
   9  -7  15 4865.11 833.352   5
  -9   7 -16 208.532 209.518   3
   9  -7  16-11.8373 94.5990   7
   9   7  16 9.54376 40.4035   7
  -9   7 -17-80.2436 185.702   3
   9  -7  17-120.105 173.706   7
  -9   7 -18 456.234 286.156   3
   9  -7  18 273.770 271.091   7
  -9   7 -19 16405.8 1660.87   3
   9  -7  19 17740.4 1806.97   7
  -9   7 -20 309.441 283.488   3
   9  -7  20 169.589 242.274   7
  -9   7 -21 278.642 217.844   3
   9  -7  21 1188.77 503.567   7
  -9   7 -22-19.2292 82.6602   3
   9  -9 -22-245.751 261.763   5
   9  -9 -21 1031.86 439.605   5
  -9   9  20-262.625 195.817   3
   9  -9 -20-249.435 246.078   5
  -9   9  19 7180.09 1019.00   3
   9  -9 -19 9278.49 1422.86   5
   9   9 -18 227.924 230.392   3
   9  -9 -18-47.9607 94.8732   5
  -9   9  18-338.422 220.196   3
   9   9 -17 51.0326 172.386   3
  -9  -9  17 413.896 348.438   2
   9  -9 -17-245.368 316.586   5
  -9   9  17-36.6336 128.508   3
   9   9 -16 274.433 171.300   3
  -9   9  16 73.9615 134.328   3
  -9  -9  16 145.912 102.395   2
   9  -9 -16 105.894 184.759   5
   9   9 -15 7520.38 1095.46   3
  -9  -9  15 8206.09 1374.07   2
  -9   9  15 6855.05 993.374   3
   9  -9 -15 7997.31 1289.76   5
  -9   9  14-19.3998 49.5668   3
   9  -9 -14 164.619 61.7566   5
  -9  -9  14 174.071 73.2320   2
   9   9 -13 5923.75 954.434   3
  -9  -9  13 5076.91 1062.95   2
  -9   9  13 4808.14 846.818   3
   9  -9 -13 5613.45 1060.78   5
   9   9 -12 107.221 153.569   3
  -9  -9  12-156.578 193.799   2
  -9   9  12-71.3387 89.7242   3
   9  -9 -12-177.768 213.768   5
   9   9 -11 8509.17 1114.15   3
  -9  -9  11 7956.97 1332.37   2
  -9   9  11 6729.03 998.173   3
   9  -9 -11 7133.50 1204.20   5
   9   9 -10 150.907 177.699   3
  -9  -9  10 335.293 290.051   2
  -9   9  10 73.5432 96.3733   3
   9  -9 -10 123.832 217.578   5
   9   9  -9 972.239 358.792   3
  -9  -9   9 703.399 372.714   2
  -9   9   9 664.358 335.783   3
   9  -9  -9 1591.98 567.567   5
  -9   9   8-81.5864 112.438   3
  -9  -9   8 56.1979 227.148   2
   9   9  -8 29.5192 73.7354   3
  -9  -9   7 6126.28 1165.36   2
   9  -9  -7 6347.02 1112.32   5
  -9   9   7 7069.85 1029.73   3
   9   9  -6 35.2504 114.270   3
  -9  -9   6 39.5719 121.189   2
  -9   9   6 708.109 335.953   3
   9  -9  -6 449.139 311.660   5
   9   9  -5 8101.97 995.609   3
  -9   9   5 7987.16 1105.17   3
   9  -9  -5 10150.0 1426.20   5
  -9  -9   5 8109.12 1303.67   2
   9   9  -4-46.0144 124.913   3
  -9   9   4 2.13974 123.318   3
  -9  -9   4 167.043 118.729   2
   9  -9  -4-156.367 138.614   5
   9   9  -3 4587.27 731.775   3
  -9  -9   3 2902.49 773.217   2
  -9   9   3 4807.47 864.886   3
   9  -9  -3 3404.67 800.554   5
   9   9  -2 268.117 79.8067   3
  -9  -9   2 15.3375 174.650   2
  -9   9   2 234.205 231.978   3
   9   9  -1 3375.02 616.475   3
  -9  -9   1 3005.99 784.178   2
   9  -9  -1 3312.25 724.284   2
   9  -9  -1 4022.89 851.290   5
  -9   9   1 3766.18 769.689   3
  -9  -9   0-87.4413 111.704   2
   9   9   0 139.379 117.719   3
  -9   9   0 174.377 118.207   3
   9  -9   0-22.8050 75.4003   2
   9  -9   0 108.706 169.114   5
  -9  -9  -1 2972.14 782.196   2
   9   9   1 2639.27 515.659   3
  -9   9  -1 5155.51 912.859   3
   9  -9   1 3481.79 827.671   5
   9  -9   1 3340.78 746.785   2
  -9  -9  -2 101.446 177.342   2
  -9   9  -2 173.194 206.956   3
   9  -9   2-304.785 240.662   2
   9  -9   2 10.7211 154.669   5
  -9   9  -3 15657.5 1595.04   3
   9  -9   3 11491.5 1487.47   2
  -9  -9  -3 15303.1 1710.20   2
   9  -9   3 16120.9 1749.54   5
  -9   9  -4 51.8719 83.6698   3
   9  -9   4-212.653 207.353   2
   9  -9   4 216.891 293.136   5
  -9  -9  -4 179.416 199.814   2
   9  -9   5 952.216 452.390   2
  -9   9  -5 2179.82 614.403   3
   9  -9   5 1106.76 461.048   5
  -9  -9  -5 1061.45 408.505   2
   9  -9   6 473.346 266.516   5
   9  -9   6 57.2321 78.0638   2
  -9   9  -6 304.662 191.498   3
  -9  -9  -6 451.400 278.660   2
  -9   9  -7 5754.65 991.173   3
  -9  -9  -7 5963.46 989.056   2
   9  -9   7 4144.30 874.162   5
   9  -9   7 5454.56 1063.84   2
  -9   9  -8 561.641 306.951   3
   9  -9   8 369.274 269.174   5
   9  -9   8 321.702 301.820   2
  -9  -9  -8 471.762 311.969   2
  -9   9  -9 83.5036 99.8231   3
   9  -9   9 692.386 395.151   5
   9  -9   9 261.569 264.677   2
  -9  -9  -9 366.204 234.608   2
  -9   9 -10 354.023 194.732   3
   9  -9  10 258.516 270.845   5
   9  -9  10-93.6237 150.580   2
   9  -9  11 15085.7 1837.62   2
   9  -9  11 13922.9 1639.41   5
   9  -9  12-32.2575 96.7035   2
   9  -9  13 226.059 232.590   2
 -10   0  38 6979.93 1039.18   1
 -10   0  37-106.664 129.970   1
 -10   0  36 16619.1 1549.12   1
 -10   0  35 255.563 232.639   1
 -10   0  34 650.676 293.614   1
 -10   0  33 216.047 195.948   1
 -10   0  32 11271.1 1177.31   1
 -10   0  32 11232.7 1003.24   2
 -10   0  31 58.4358 69.0656   2
 -10   0  31 97.6838 178.351   1
 -10   0  30 7930.74 932.385   1
 -10   0  30 8152.87 814.405   2
 -10   0  29-1.83478 61.6750   2
  10   0 -29-23.4590 72.9900   4
 -10   0  28 17970.8 1156.51   2
  10   0 -28 18411.4 1154.97   4
 -10   0  28 17782.8 1348.48   1
 -10   0  27 7.01875 106.196   2
  10   0 -27 109.133 135.229   4
 -10   0  27 332.479 235.066   1
 -10   0  26 96.1025 87.8978   2
 -10   0  26 189.407 135.011   1
  10   0 -26 222.024 124.824   4
 -10   0  25 3.33533 25.1945   2
 -10   0  25 167.209 141.860   1
 -10   0  24 35599.5 1493.24   2
 -10   0  24 33954.4 1681.17   1
 -10   0  23-33.9319 50.1095   2
 -10   0  23 347.460 194.341   1
 -10   0  22 1659.02 302.777   2
 -10   0  22 1404.18 326.327   1
 -10   0  21 147.150 141.863   1
 -10   0  21-37.1129 84.8870   2
 -10   0  20 6108.14 639.057   1
 -10   0  20 6689.66 577.786   2
 -10   0  19-2.68679 38.1168   2
  10   0 -19 23.0505 17.0377   7
  10   0 -18 1465.98 273.043   7
 -10   0  18 1411.30 293.231   1
 -10   0  18 1270.70 235.639   2
 -10   0  17 70.4266 93.0830   1
  10   0 -17-83.4315 98.0094   7
 -10   0  17-83.3408 93.2942   2
  10   0 -16 30025.2 1163.71   7
 -10   0  16 31582.7 1139.72   2
 -10   0  16 31123.0 1287.72   1
  10   0 -15-30.2295 38.9230   7
 -10   0  15-40.2235 61.7727   2
 -10   0  15 54.9739 53.4199   1
 -10   0  14 69.6345 51.7943   2
  10   0 -14 236.820 116.105   7
 -10   0  14 308.061 108.206   1
 -10   0  13-95.9239 85.4560   2
 -10   0  13-11.9435 58.2515   1
  10   0 -13-17.0072 42.3395   7
 -10   0  12 48683.0 1454.98   1
  10   0 -12 52234.8 1399.16   2
  10   0 -12 48794.9 1395.27   7
  10   0 -12 51724.8 1507.17   1
 -10   0  11-54.7463 60.7624   1
 -10   0  11-0.16191 34.7266   2
  10   0 -11-7.25243 39.3306   1
  10   0 -11-7.81581 61.9432   2
  10   0 -10 79288.6 1792.20   1
  10   0 -10 76928.9 1704.22   2
 -10   0  10 69820.3 1641.92   1
 -10   0  10 70839.4 1573.07   2
 -10   0   9-21.5503 73.7445   2
  10   0  -9-30.6306 39.6027   1
  10   0  -9 10.9330 19.1148   2
 -10   0   9-11.5870 32.0959   1
 -10   0   8 18874.2 804.640   1
  10   0  -8 18860.3 834.829   2
  10   0  -8 20203.5 859.498   1
 -10   0   8 18697.4 818.570   2
  10   0  -7 10.7276 39.1548   1
 -10   0   7 20.6031 22.5861   1
  10   0  -7-11.4514 43.9355   2
 -10   0   7 26.6995 45.4846   2
  10   0  -6 317.879 108.268   2
 -10   0   6 265.299 99.1476   1
 -10   0   6 148.725 74.1855   2
  10   0  -6 251.884 73.9936   1
 -10   0   5 12.4305 40.2204   1
  10   0  -5 53.3001 61.5568   2
  10   0  -5-15.8106 17.2070   1
 -10   0   5-17.3338 38.5582   2
  10   0  -4 3507.24 323.948   1
 -10   0   4 3552.35 345.575   6
 -10   0   4 3578.09 370.408   2
  10   0  -4 3893.22 388.088   2
  10   0  -3-37.3179 29.7635   1
 -10   0   3-61.0167 53.2542   2
 -10   0   3 16.5303 27.7598   6
  10   0  -2 14292.0 660.085   1
 -10   0   2 13413.4 678.636   6
 -10   0   2 13685.2 739.664   2
  10   0  -1-12.2432 67.3740   6
 -10   0   1 18.2430 43.4855   6
 -10   0   1-29.1459 53.7925   2
 -10   0   0 18049.5 803.874   6
  10   0   0 19406.9 826.641   6
 -10   0   0 19200.9 897.054   2
  10   0   1-45.2341 80.2557   7
  10   0   1 1.36466 43.5546   6
  10   0   2 17333.3 819.672   6
  10   0   2 16060.4 810.162   7
 -10   0  -2 16141.2 598.668   3
 -10   0  -3-26.6693 26.9591   3
  10   0   3-41.1942 82.9043   7
  10   0   3-5.49012 27.2299   6
 -10   0  -4 11504.6 502.183   3
  10   0   4 11856.0 734.372   7
  10   0   4 12351.9 711.741   6
  10   0   5-135.817 107.665   7
 -10   0  -5 13.3562 21.8680   3
  10   0   5-27.8205 58.4461   6
 -10   0  -6 35777.1 894.822   3
  10   0   6 36633.6 1365.75   7
 -10   0  -7-0.63431 14.0473   3
  10   0   7-141.483 79.7081   7
 -10   0  -8 175.690 72.6457   3
  10   0   8 131.780 82.4542   7
 -10   0  -9-4.33132 16.4892   3
  10   0   9 62.9913 109.615   7
  10   0   9-15.6194 28.5596   4
 -10   0 -10 14900.6 608.787   3
  10   0  10 14716.5 962.983   7
  10   0  10 14775.0 700.549   4
 -10   0 -11-39.4692 47.5168   3
  10   0  11-192.047 158.821   7
  10   0  11-20.1740 44.2503   4
 -10   0 -12 5464.94 386.471   3
  10   0  12 5860.65 637.282   7
  10   0  12 5915.04 400.203   4
 -10   0 -13 17.1436 34.2092   3
  10   0  13 53.3986 114.052   7
  10   0  13-69.4136 42.9111   3
  10   0  14 44589.9 1094.40   3
  10   0  14 48183.1 1912.92   7
  10   0  15-18.6757 104.609   7
  10   0  15 31.7403 36.7607   3
  10   0  16 678.160 259.383   7
  10   0  16 821.965 157.622   3
  10   0  17 183.338 163.461   7
  10   0  18 13496.0 1124.64   7
  10   0  19-70.1810 98.0568   7
  10   0  20 924.871 304.414   7
  10   0  21 99.2035 96.3796   7
  10   0  22 12160.0 1168.34   7
  10   0  23-212.582 175.825   7
  10   0  24 1027.76 384.882   7
  10   0  25 70.4213 73.8140   7
  10   0  26 6408.94 1013.18   7
  10   0  27 160.270 167.234   7
  10   0  28 2136.36 540.075   7
  10   0  29 331.451 263.081   7
  10   0  30 8423.72 1142.73   7
  10   0  31-135.824 62.8933   7
 -10  -2  38 9017.88 1167.18   1
 -10  -2  37 232.336 166.606   1
 -10   2  37 335.896 267.090   1
 -10  -2  36 6096.62 934.620   2
 -10  -2  36 7615.66 1031.44   1
 -10   2  36 7136.46 1033.91   1
 -10   2  35 83.1609 145.511   1
 -10  -2  35 11.3771 49.0144   1
 -10  -2  35 151.787 156.813   2
 -10   2  34 417.687 197.149   1
 -10  -2  34 1331.25 407.318   1
 -10  -2  34 1151.22 393.326   2
 -10   2  33 105.561 171.316   1
 -10  -2  33-171.176 139.795   2
 -10  -2  32 10712.9 1148.75   2
 -10  -2  32 10102.8 1089.11   1
 -10   2  32 11889.5 1234.18   1
 -10   2  31 42.0224 162.217   1
 -10  -2  31 2.61759 140.405   1
 -10  -2  31 78.8966 167.229   2
 -10   2  30 2894.52 585.209   1
 -10  -2  30 3558.19 618.388   1
 -10  -2  30 2956.23 587.574   2
 -10   2  29-35.9364 46.4295   1
 -10  -2  29 77.2311 126.337   1
 -10  -2  29-102.092 92.0711   2
 -10  -2  28 12990.4 1186.93   2
 -10  -2  28 12722.7 1106.65   1
 -10   2  28 13216.1 1184.76   1
 -10   2  27 67.8445 122.938   1
 -10  -2  27 38.4744 152.351   2
 -10  -2  27-68.2334 95.5790   1
 -10   2  26 9.46885 25.4354   2
 -10  -2  26 243.131 170.133   1
 -10  -2  26 105.930 102.560   2
 -10   2  26 55.8264 106.116   1
 -10   2  25 12.7098 27.9745   2
 -10  -2  25 109.153 100.260   1
 -10  -2  25 16.8981 87.2580   2
 -10   2  25 218.738 172.644   1
 -10   2  24 20899.3 715.558   2
 -10  -2  24 26414.7 1557.38   2
 -10  -2  24 24725.0 1391.15   1
 -10   2  24 26028.4 1539.85   1
 -10  -2  23 272.958 152.435   1
 -10   2  23 93.7606 44.0185   2
  10  -2 -23 63.1839 36.8869   7
 -10   2  23 128.867 49.3803   2
 -10  -2  23 39.9133 77.6021   2
  10  -2 -23 214.220 150.607   4
 -10   2  23 130.498 209.267   1
 -10   2  22 2521.52 210.542   2
  10  -2 -22 3064.91 306.737   7
 -10   2  22 2329.31 198.073   2
 -10  -2  22 3965.16 520.898   1
 -10   2  22 3142.55 513.770   1
  10  -2 -22 3270.73 495.724   4
 -10  -2  22 3240.41 526.424   2
  10  -2 -21 56.0019 41.7070   7
 -10   2  21-2.20860 21.7334   2
 -10   2  21 13.1321 19.4809   2
 -10  -2  21 228.019 116.463   1
 -10  -2  21-54.3726 77.2750   2
 -10   2  21 120.783 117.527   1
  10  -2 -21 201.269 143.038   4
 -10  -2  20 27216.6 1475.54   2
  10  -2 -20 24411.7 769.859   7
 -10  -2  20 27327.7 1302.13   1
 -10   2  20 26974.9 1436.33   1
 -10   2  20 14255.8 364.121   2
  10  -2 -20 27531.5 1479.48   4
 -10   2  20 14892.6 384.731   2
 -10   2  19 95.2636 137.037   1
 -10  -2  19-2.14064 77.8917   2
  10  -2 -19 41.9253 124.895   4
  10  -2 -19-34.0464 31.9034   7
 -10  -2  19 52.5467 97.8921   1
 -10  -2  18 9803.93 847.431   2
  10  -2 -18 7765.65 374.272   7
 -10  -2  18 9199.45 700.786   1
 -10   2  18 9986.47 836.309   1
  10  -2 -18 9962.58 871.057   4
  10  -2 -17 5.09676 8.36579   7
 -10  -2  17-42.7572 102.072   1
 -10   2  17-237.756 143.945   1
 -10  -2  17-118.776 134.640   2
  10  -2 -17 152.662 120.616   4
 -10  -2  16 33118.4 1250.41   1
 -10   2  16 34343.8 1496.60   1
 -10  -2  16 34313.3 1542.70   2
  10  -2 -16 27606.8 584.189   7
  10  -2 -16 32426.9 1544.95   4
 -10   2  15-114.549 123.476   1
  10  -2 -15-0.88731 11.0313   7
 -10  -2  15-201.362 144.446   2
  10  -2 -15 97.7521 145.278   4
 -10  -2  15-88.8326 84.8930   1
 -10   2  14 313.737 143.005   1
 -10  -2  14 172.895 91.6293   2
 -10  -2  14 310.268 108.861   1
  10  -2 -14 207.924 115.555   4
 -10  -2  13-94.8572 81.3207   2
 -10  -2  13-23.2708 29.4370   1
 -10   2  13-26.5453 103.758   1
 -10  -2  12 12693.3 898.996   2
 -10   2  12 12267.5 802.146   1
  10  -2 -12 12585.3 934.446   4
 -10  -2  12 11776.2 638.123   1
 -10   2  11-19.2376 76.7414   1
  10  -2 -11 22.5342 15.6631   7
 -10  -2  11 15.6604 36.2194   2
  10  -2 -11-1.48095 11.1495   7
 -10  -2  11 39.7170 19.8677   1
  10  -2 -11 79.0390 51.6679   4
  10  -2 -10 8727.22 350.327   2
 -10   2  10 11108.8 741.193   1
 -10  -2  10 10669.9 820.420   2
  10  -2 -10 9798.40 302.271   7
 -10  -2  10 9862.99 543.460   1
  10  -2 -10 10745.9 839.035   4
  10  -2  -9 17.1159 12.2851   2
 -10  -2   9 38.3425 26.2578   1
 -10  -2   9-70.5690 91.0936   2
  10  -2  -9 48.5440 23.7251   7
 -10   2   9 124.928 181.816   1
  10  -2  -9 227.190 193.039   4
 -10  -2   8 18591.1 966.719   3
 -10  -2   8 19085.3 1056.20   2
 -10   2   8 19600.1 956.072   1
 -10  -2   8 16124.6 617.262   1
  10  -2  -8 16891.6 493.588   7
  10  -2  -8 17560.2 589.026   2
  10  -2  -8 17272.7 1052.73   4
 -10  -2   7 295.270 115.285   3
  10  -2  -7 312.977 79.2125   7
 -10   2   7 229.421 71.1074   1
  10   2  -7 303.048 74.2398   1
 -10  -2   7 223.223 72.5920   1
 -10  -2   7 78.1852 82.3465   2
 -10   2   7 5.14142 93.5746   6
  10  -2  -7 199.292 67.5704   2
  10  -2  -7 398.775 198.718   4
  10   2  -6 7576.03 380.777   1
 -10   2   6 8083.57 594.580   1
 -10  -2   6 8770.82 619.990   3
 -10  -2   6 7879.37 390.456   1
  10  -2  -6 7489.12 382.872   7
 -10   2   6 7535.88 579.064   6
  10  -2  -6 7648.80 433.213   2
  10  -2  -6 7867.19 700.049   4
 -10  -2   6 7903.68 678.664   2
 -10  -2   5 36.6295 65.7769   3
 -10  -2   5-11.8401 53.0219   2
  10  -2  -5-30.9983 39.6015   7
 -10   2   5 11.7459 75.9522   6
  10  -2  -5 47.3347 41.1628   2
  10  -2  -5-104.863 99.8120   4
  10   2  -5 7.70682 10.0539   1
 -10  -2   4 15110.9 738.026   3
  10  -2  -4 13464.2 588.211   7
  10   2  -4 15460.2 516.406   1
 -10   2   4 15189.5 830.405   6
  10  -2  -4 15272.6 663.049   2
 -10  -2   4 15710.1 973.081   2
  10  -2  -4 15478.6 967.769   4
 -10  -2   3 31.4964 57.1511   2
 -10  -2   3 72.9493 27.9887   3
  10  -2  -3 79.0206 53.3361   7
 -10   2   3 158.882 116.369   6
 -10  -2   3 130.136 63.2948   6
  10   2  -3 158.011 53.5892   1
  10  -2  -3 130.299 170.172   4
 -10  -2   2 45518.7 1160.73   3
  10   2  -2 46889.6 872.307   1
 -10   2   2 48787.7 1191.24   7
 -10   2   2 47740.6 1453.81   3
 -10   2   2 47771.4 1485.69   6
 -10  -2   2 44670.4 1039.68   6
 -10  -2   2 46093.4 1687.52   2
  10  -2  -2 46722.6 1642.28   4
  10  -2  -2 43392.1 1166.35   7
 -10  -2   1 354.276 95.6708   3
  10  -2  -1 360.102 141.892   7
 -10   2   1 461.611 128.178   7
 -10   2   1 386.910 126.737   6
 -10  -2   1 398.930 94.0926   6
 -10   2   1 376.977 123.588   3
  10  -2  -1 272.351 136.636   4
 -10  -2   1 423.862 165.625   2
 -10  -2   0 7986.12 415.670   3
 -10   2   0 8969.58 556.265   7
  10  -2   0 8577.76 563.889   7
 -10   2   0 8449.43 631.439   6
 -10   2   0 8150.69 597.062   3
 -10  -2   0 8395.54 440.219   6
 -10  -2   0 9478.44 758.313   2
  10  -2   0 8625.32 698.344   4
 -10  -2  -1 23.7043 28.6237   3
 -10  -2  -1 51.6984 84.3629   2
  10  -2   1-18.0477 36.2106   7
 -10   2  -1 12.4732 23.7632   7
 -10   2  -1 16.9627 56.8957   3
  10  -2   1-14.9021 37.2367   4
 -10  -2  -2 2791.67 203.592   3
 -10   2  -2 3160.23 382.798   3
  10   2   2 3239.64 279.966   6
 -10  -2  -2 2847.73 415.074   2
 -10   2  -2 3370.34 368.724   7
  10  -2   2 3004.14 407.727   4
  10  -2   2 3036.04 361.669   7
 -10  -2  -3 14.5188 11.7745   3
  10  -2   3 9.23313 49.7220   7
 -10   2  -3 94.5544 60.1413   3
  10   2   3 22.7695 30.8075   6
 -10  -2  -3-114.461 67.3225   2
  10  -2   3 64.8606 61.9000   4
 -10  -2  -4 16428.1 1019.34   2
 -10   2  -4 15292.3 848.409   3
  10  -2   4 14730.8 853.004   7
  10   2   4 16554.8 682.922   6
  10  -2   4 15365.9 904.592   4
 -10   2  -5 168.415 87.5715   3
  10   2   5 336.259 90.6049   6
 -10  -2  -5 236.787 114.368   2
  10  -2   5 399.001 166.931   7
 -10   2  -6 39471.5 1403.80   3
  10  -2   6 39117.9 1322.07   3
  10   2   6 40086.7 1148.82   6
  10  -2   6 38372.9 1471.09   7
 -10  -2  -6 40365.8 1605.89   2
  10   2   7-124.317 133.648   7
 -10   2  -7 3.81219 50.5156   3
  10   2   7-12.4006 49.8763   6
 -10  -2  -7-112.418 111.052   2
  10  -2   7 197.276 146.173   7
  10   2   8 34.9421 70.9761   7
  10  -2   8 151.087 135.894   7
  10   2   8 51.1758 30.6070   6
 -10   2  -9 24.1191 49.7019   3
  10  -2   9 159.087 109.618   7
  10   2   9 36.5515 58.8484   7
 -10   2 -10 19380.8 1034.82   3
  10  -2  10 20603.9 1201.47   7
  10   2  10 20832.7 1143.36   7
  10   2  10 18189.6 862.456   5
 -10   2 -11 27.8890 80.5475   3
  10   2  11 25.3073 50.7110   7
  10  -2  11-33.6087 159.355   7
  10   2  11 59.6990 44.7559   5
 -10   2 -12 1452.29 294.336   3
  10   2  12 1452.40 304.727   7
  10  -2  12 1154.05 293.634   7
  10   2  12 1257.66 212.720   5
 -10   2 -13 42.6298 79.9811   3
  10  -2  13-63.0099 80.1558   7
  10   2  13 70.7379 75.8226   7
  10   2  13-42.3399 34.4986   5
  10  -2  13 17.8464 36.8042   5
 -10   2 -14 22588.5 1185.61   3
  10   2  14 20620.7 1240.81   7
  10   2  14 20221.5 804.398   5
  10  -2  14 19591.1 908.571   5
  10  -2  14 20007.6 1315.09   7
 -10   2 -15-50.4432 102.603   3
  10  -2  15-66.6315 61.6523   7
  10  -2  15 5.73564 19.0185   5
  10   2  15 174.131 129.597   7
  10   2  15 138.477 64.1984   5
 -10   2 -16 319.110 184.030   3
  10   2  16 98.8768 68.2584   7
  10  -2  16 226.954 155.873   7
  10  -2  16 160.941 71.2644   5
 -10   2 -17-50.3789 29.6412   3
  10  -2  17-87.1217 128.509   7
  10   2  17 130.315 181.191   7
  10  -2  17 0.77014 37.8179   5
 -10   2 -18 13992.0 996.763   3
  10  -2  18 12572.4 1152.38   7
  10   2  18 13873.1 1105.68   7
 -10   2 -19 36.4185 62.4517   3
  10  -2  19-207.445 161.581   7
  10   2  19-110.946 131.766   7
 -10   2 -20 456.667 170.038   3
  10   2  20 625.257 261.323   7
  10  -2  20 573.007 265.042   7
  10  -2  21-145.550 70.7204   7
  10   2  21-238.360 167.621   7
  10  -2  22 30020.7 1942.32   7
  10   2  22 31092.3 1811.10   7
  10  -2  23 188.242 189.528   7
  10   2  23 137.113 136.843   7
  10   2  24 3252.90 615.104   7
  10  -2  24 2797.93 616.491   7
  10  -2  25 206.203 180.555   7
  10   2  25 159.680 178.653   7
  10  -2  26 3856.81 752.023   7
  10   2  26 3465.41 656.475   7
  10   2  27-32.9036 67.0728   7
  10  -2  27 219.367 112.313   7
  10   2  28 1669.51 469.191   7
  10  -2  28 1238.33 424.146   7
  10  -2  29 200.446 168.660   7
  10   2  29 118.179 169.769   7
  10   2  30 3363.25 689.978   7
  10  -2  30 3066.62 722.440   7
  10   2  31-310.933 257.530   7
  10   2  32 894.399 386.025   7
 -10  -4  38 4761.11 950.991   2
 -10  -4  37 96.1261 226.224   2
 -10  -4  37-47.0149 88.0219   1
 -10  -4  36 8688.99 1271.42   2
 -10  -4  36 9545.95 1152.87   1
 -10  -4  35-24.9917 35.6872   1
 -10  -4  35-172.537 201.002   2
 -10   4  35 36.0360 99.3869   1
 -10   4  34 737.576 299.582   1
 -10  -4  34 656.757 275.506   1
 -10  -4  34 402.469 262.928   2
 -10   4  33 20.1088 73.3024   1
 -10  -4  33-154.203 84.1074   1
 -10  -4  33-127.562 154.005   2
 -10  -4  32 8735.39 1196.26   2
 -10   4  32 9381.12 1131.89   1
 -10  -4  32 9419.19 1052.60   1
 -10  -4  31-133.635 138.762   1
 -10   4  31 134.560 78.5224   1
 -10  -4  31 45.4251 93.2538   2
 -10   4  30 4226.91 744.890   1
 -10  -4  30 3412.07 710.519   2
 -10  -4  30 4161.56 658.375   1
 -10  -4  29-97.7390 203.140   2
 -10   4  29 97.2505 100.853   1
 -10  -4  29-251.088 159.890   1
 -10  -4  28 13686.4 1408.45   2
 -10   4  28 13053.6 1240.91   1
  10  -4 -28 13795.1 1162.17   5
 -10  -4  28 12129.4 1075.76   1
 -10   4  27 71.1162 91.6958   1
 -10  -4  27-8.91559 38.6736   1
 -10  -4  27 188.317 155.619   2
  10  -4 -27 68.4246 116.858   5
 -10   4  26 67.3235 114.801   1
 -10  -4  26 142.829 102.218   1
 -10  -4  26-57.0900 127.024   2
  10  -4 -26-45.1340 83.1913   5
 -10   4  25 189.293 166.862   1
 -10  -4  25 89.0146 47.4325   2
 -10   4  24 21910.6 1499.44   1
 -10  -4  24 23607.2 1738.51   2
 -10   4  23-45.2079 117.241   1
 -10  -4  23 215.741 249.436   2
 -10   4  22 578.067 261.398   1
 -10  -4  22 1044.43 345.540   2
 -10   4  21 224.405 185.767   1
 -10  -4  21-22.2484 86.8893   2
 -10  -4  20 17754.3 1414.06   2
 -10   4  20 17702.5 1234.20   1
 -10  -4  19-9.76810 50.1441   1
 -10  -4  19-117.784 77.1857   2
 -10   4  19-39.8072 65.9911   1
 -10  -4  18 1630.23 415.883   2
 -10  -4  18 2093.21 326.777   1
 -10   4  18 1721.09 377.525   1
 -10  -4  17-115.832 154.067   2
 -10   4  17-0.35757 62.6986   1
 -10  -4  17-32.0578 25.9541   1
 -10   4  16 23218.2 1312.62   1
 -10  -4  16 24244.6 1562.38   2
 -10  -4  16 23427.1 1012.13   1
 -10  -4  15 86.0419 54.1278   2
 -10   4  15-20.8786 48.0054   1
 -10  -4  15 38.1757 33.1852   1
 -10  -4  14 36.8271 52.3468   1
 -10   4  14 47.1887 70.3547   1
 -10  -4  14 48.6201 81.1355   2
 -10   4  13 171.742 159.082   1
 -10  -4  13 29.9239 78.7329   2
 -10  -4  13 56.6014 54.3587   1
 -10  -4  12 25099.0 831.882   1
 -10  -4  12 26714.6 1585.69   2
 -10   4  12 26627.4 1295.34   6
 -10   4  12 27941.2 1347.20   1
 -10   4  11-128.668 71.3514   1
 -10   4  11 64.0670 91.8395   6
  10  -4 -11 38.7222 26.0368   2
 -10  -4  11 78.2209 154.069   2
  10  -4 -11 15.2248 7.43620   2
 -10  -4  11 39.7774 32.5038   1
 -10   4  10 21401.1 1165.14   1
 -10  -4  10 20029.9 1359.31   2
  10  -4 -10 18676.9 639.973   2
 -10   4  10 19915.4 1078.40   6
 -10   4  10 20569.8 1194.69   3
 -10  -4  10 19335.8 625.069   1
  10   4  -9 145.233 125.374   3
 -10   4   9-61.3281 83.1710   1
 -10   4   9-12.4027 134.400   3
 -10   4   9 72.5664 78.6740   6
 -10  -4   9-11.9517 55.8604   2
  10  -4  -9 19.7143 34.4012   2
 -10  -4   9 30.0726 17.3308   1
  10   4  -8 15897.1 993.117   3
 -10  -4   8 13188.9 357.579   1
 -10  -4   8 14155.8 1132.72   2
 -10   4   8 15687.9 1032.51   3
 -10   4   8 16368.3 963.861   6
  10   4  -7 116.276 92.7771   3
  10  -4  -7 220.673 82.7157   7
 -10  -4   7 160.953 88.2276   2
 -10   4   7 117.136 42.1662   7
 -10   4   7 80.6113 55.7841   3
 -10   4   7 264.657 103.023   6
  10   4  -6 2291.29 352.808   3
  10  -4  -6 2493.16 284.021   7
 -10   4   6 2155.42 215.863   7
 -10  -4   6 2105.58 411.673   2
 -10   4   6 2433.53 402.741   3
 -10   4   6 2497.66 383.604   6
  10   4  -5-63.6080 81.4938   3
  10  -4  -5 33.2986 36.6901   7
 -10  -4   5 116.625 125.592   2
 -10   4   5 20.4838 27.1062   7
 -10   4   5-5.90284 60.2413   3
 -10   4   5 17.0248 91.4499   6
  10   4  -4 8261.53 645.545   3
 -10   4   4 7934.66 482.557   7
 -10   4   4 8088.47 744.929   3
 -10   4   4 7904.60 675.360   6
  10  -4  -4 8370.39 585.661   7
 -10  -4   4 8274.19 861.599   2
  10   4  -3 259.709 117.234   3
 -10  -4   3 143.921 123.998   2
  10  -4  -3 176.661 84.4432   7
 -10   4   3 55.8205 94.5729   6
 -10   4   3 163.119 71.9530   7
 -10   4   3 43.4275 61.0560   3
 -10  -4   3 98.3019 37.7486   6
  10   4  -2 19372.6 928.202   3
 -10  -4   2 19225.5 944.853   3
  10  -4  -2 20299.9 992.595   7
 -10   4   2 20146.2 1162.75   3
 -10   4   2 18340.7 819.802   7
 -10  -4   2 18811.5 1294.42   2
  10   4  -1 207.987 81.8232   3
 -10  -4   1 428.711 209.191   2
  10  -4  -1 242.309 95.4112   7
 -10  -4   1 184.490 74.6703   3
 -10   4   1 265.698 115.899   7
 -10   4   1 144.255 101.177   3
  10   4   0 5853.01 478.055   3
 -10  -4   0 5900.62 481.057   3
 -10   4   0 6639.43 681.979   3
  10  -4   0 6199.13 584.957   7
 -10  -4   0 6665.29 775.786   2
  10   4   1-9.26824 33.9688   3
  10  -4   1 170.674 104.834   7
 -10  -4  -1 14.7891 41.3971   3
 -10  -4  -1 138.585 122.374   2
 -10   4  -1-172.370 128.967   3
  10   4   2 9661.49 573.720   3
  10  -4   2 9643.24 761.867   7
 -10   4  -2 10482.9 859.250   3
 -10  -4  -2 10167.4 949.478   2
 -10  -4  -2 10176.1 582.623   3
  10   4   2 8971.57 304.410   1
  10   4   3 82.8378 34.4675   1
  10  -4   3-109.028 117.861   7
 -10   4  -3 36.6408 108.489   3
 -10  -4  -3 44.0145 21.8043   3
 -10  -4  -3 145.430 101.560   2
 -10   4  -4 7200.50 741.557   3
 -10  -4  -4 7347.93 443.250   3
  10   4   4 7812.17 396.117   1
  10  -4   4 7368.90 703.579   7
 -10  -4  -4 6589.10 760.337   2
 -10   4  -5 89.2772 96.8207   3
 -10  -4  -5 181.361 132.311   2
 -10   4  -6 36960.6 1714.49   3
  10  -4   6 36494.7 1650.17   7
 -10  -4  -6 36752.3 1781.41   2
  10  -4   6 37837.2 1745.52   5
  10   4   7 26.1948 9.56409   6
  10  -4   7 105.618 142.069   7
 -10   4  -7-40.8807 71.9176   3
 -10  -4  -7 50.2018 89.2023   2
  10  -4   7-10.5076 54.0526   5
 -10   4  -8 338.477 174.277   3
  10  -4   8 449.079 190.106   7
  10   4   8 543.239 106.220   6
 -10  -4  -8 668.767 235.958   2
  10  -4   8 560.913 195.794   5
 -10   4  -9-14.8233 43.8019   3
  10   4   9 63.2719 44.0035   6
  10  -4   9 231.724 142.467   7
 -10  -4  -9 104.973 112.589   2
  10  -4   9-41.8429 142.323   5
 -10   4 -10 13145.4 1057.46   3
 -10  -4 -10 13724.2 1078.26   2
  10  -4  10 12845.4 1057.67   7
  10   4  10 11893.5 568.557   6
  10  -4  10 12314.9 990.858   5
  10  -4  11-5.11076 52.5759   5
 -10   4 -11-120.215 104.396   3
  10   4  11 19.0218 74.4058   7
  10   4  11 15.5345 30.5128   6
 -10  -4 -11 1.59409 118.571   2
  10  -4  12 1736.08 404.710   7
 -10   4 -12 1610.01 380.998   3
  10   4  12 1921.06 379.710   7
  10  -4  12 1816.47 367.377   5
 -10   4 -13 2.57451 137.720   3
  10  -4  13 170.994 181.103   7
  10   4  13 183.658 127.027   7
  10  -4  13 76.4333 31.3681   5
 -10   4 -14 27591.4 1618.25   3
  10  -4  14 27513.4 1706.17   7
  10   4  14 28086.0 1480.68   7
  10  -4  14 27762.6 1449.97   5
 -10   4 -15 322.810 191.768   3
  10  -4  15 156.172 70.0337   7
  10   4  15 101.082 96.2481   7
  10  -4  15 198.760 165.812   5
 -10   4 -16 52.9515 137.196   3
  10  -4  16 93.4328 54.0903   7
  10   4  16 255.847 138.356   7
  10  -4  16 123.302 105.051   5
 -10   4 -17-39.5653 78.4288   3
  10  -4  17 252.534 151.535   7
  10  -4  17 35.0059 106.809   5
  10   4  17 16.7106 90.2255   7
 -10   4 -18 10336.7 1050.29   3
  10  -4  18 10888.8 1161.16   7
  10   4  18 11749.1 1036.33   7
  10  -4  18 9630.72 820.278   5
 -10   4 -19 71.9388 115.622   3
  10   4  19 190.096 107.516   7
  10  -4  19-112.603 156.038   7
 -10   4 -20 345.989 194.885   3
  10  -4  20 342.929 190.965   7
  10   4  20 462.480 230.444   7
 -10   4 -21-26.1624 118.921   3
  10   4  21-128.089 95.4820   7
  10  -4  21 145.014 197.059   7
 -10   4 -22 14867.7 1322.97   3
  10   4  22 16332.8 1307.94   7
  10  -4  22 15066.2 1491.06   7
 -10   4 -23-103.982 125.446   3
  10   4  23-35.2689 58.0976   7
  10  -4  23-168.062 125.125   7
 -10   4 -24 799.788 309.788   3
  10   4  24 1172.42 372.426   7
  10  -4  24 948.643 381.367   7
 -10   4 -25-21.2907 86.2663   3
  10  -4  25 250.129 252.142   7
  10   4  25 58.3854 157.513   7
  10   4  25-40.8050 83.4623   1
  10  -4  26 3509.99 787.839   7
  10   4  26 4036.27 701.325   7
  10   4  26 2987.67 590.658   1
  10  -4  27-6.63398 187.326   7
  10   4  27-97.3004 135.350   1
  10   4  27 180.824 195.815   7
  10   4  28 2220.31 532.828   1
  10   4  29 79.8682 38.2540   1
 -10   6  33 71.3198 175.270   1
 -10   6  32 6775.16 998.303   1
 -10  -6  32 6445.32 1164.37   2
 -10  -6  31 678.912 425.134   2
 -10   6  31-103.607 102.363   1
 -10  -6  30 3043.10 752.828   2
 -10   6  30 3650.14 712.974   1
 -10   6  29 16.6554 139.263   3
 -10  -6  29 78.2811 191.374   2
 -10   6  29 4.98326 107.281   1
 -10   6  28 9371.34 1097.77   1
 -10  -6  28 8085.46 1251.40   2
 -10   6  28 11093.2 1165.04   3
 -10   6  27 156.470 80.4116   3
 -10  -6  27 132.777 136.238   2
 -10   6  27-14.5855 112.649   1
  10  -6 -27-109.311 125.554   5
 -10   6  26 153.449 128.735   3
 -10  -6  26 319.916 163.206   1
 -10  -6  26 234.783 72.6259   2
 -10   6  26 280.161 218.303   1
  10  -6 -26 770.757 374.105   5
 -10   6  25 498.665 236.156   3
 -10   6  25 463.973 263.941   1
 -10  -6  25 677.643 326.559   2
  10  -6 -25 262.397 199.874   5
 -10  -6  25 116.973 87.3263   1
 -10   6  24 18285.3 1437.81   1
 -10  -6  24 19269.8 1198.79   1
 -10   6  24 17823.9 1413.11   3
 -10  -6  24 16825.1 1716.35   2
  10  -6 -24 18794.8 1638.19   5
  10  -6 -23 210.652 216.423   5
 -10   6  23 89.0149 62.1092   1
 -10   6  23 132.661 163.295   3
 -10  -6  23-78.6077 240.066   2
 -10  -6  23-21.0898 37.7164   1
 -10   6  22 258.423 144.996   1
 -10  -6  22 134.531 61.9941   1
 -10   6  22 419.073 239.440   3
  10  -6 -22 323.672 212.134   5
 -10  -6  21 341.647 149.831   1
 -10   6  21 146.242 90.7518   1
 -10   6  21 347.444 217.967   3
 -10  -6  21-29.9075 83.2385   2
 -10   6  21 404.751 189.351   6
  10  -6 -21 369.204 231.391   5
 -10   6  20 12027.0 1097.13   1
 -10  -6  20 11857.8 1357.83   2
 -10   6  20 12991.7 1167.43   3
 -10   6  20 14855.7 1144.96   6
  10  -6 -20 13729.7 1372.47   5
 -10  -6  20 13691.1 878.782   1
 -10   6  19 147.281 90.9975   1
 -10  -6  19 99.3181 131.545   2
 -10   6  19 212.791 187.973   3
 -10   6  19 268.689 176.284   6
 -10  -6  19 69.5940 47.1226   1
  10  -6 -19 112.366 149.532   5
 -10  -6  18 922.855 201.193   1
 -10  -6  18 1013.03 413.383   2
 -10   6  18 697.585 237.648   3
 -10   6  18 804.943 271.932   6
  10  -6 -18 699.634 321.099   5
 -10   6  18 717.552 255.795   1
 -10   6  17 94.5547 119.867   1
 -10  -6  17 11.6588 116.043   2
 -10   6  17-39.4921 66.0707   3
 -10   6  17 128.018 101.243   6
  10  -6 -17 149.917 201.484   5
 -10  -6  17 91.2387 71.8035   1
  10   6 -16 19221.5 1478.46   3
 -10   6  16 18466.5 1288.90   1
 -10  -6  16 18892.5 1657.89   2
 -10   6  16 17481.9 1312.28   3
 -10  -6  16 19121.7 846.794   1
 -10   6  16 20095.7 1244.94   6
  10  -6 -16 16905.7 1505.89   5
  10   6 -15-21.2851 130.272   3
 -10   6  15 42.8385 93.6744   1
 -10   6  15 62.4472 153.861   3
 -10  -6  15-39.7534 196.675   2
 -10   6  15 101.205 137.762   6
  10  -6 -15 56.9956 113.077   5
 -10  -6  15-1.85745 40.9779   1
  10   6 -14-143.396 160.248   3
 -10   6  14 111.399 104.374   1
 -10  -6  14 3.53515 22.9402   1
 -10  -6  14 114.107 107.087   2
 -10   6  14 72.1902 112.569   6
  10  -6 -14-27.0210 106.290   5
 -10   6  14 22.8388 121.500   3
  10   6 -13-123.596 137.521   3
 -10  -6  13 27.5277 19.0012   1
 -10   6  13 114.466 76.7302   6
 -10  -6  13 27.6665 84.2777   2
 -10   6  13 118.923 136.054   3
  10  -6 -13-83.7838 66.7095   5
 -10   6  13 222.225 132.360   1
  10   6 -12 22552.7 1494.40   3
 -10   6  12 25801.6 1358.46   6
 -10   6  12 23644.4 1505.10   3
 -10  -6  12 22859.4 1770.99   2
  10  -6 -12 23475.3 1740.48   5
  10  -6 -12 18425.5 720.261   2
  10   6 -11-19.4989 119.877   3
  10  -6 -11 7.36716 37.2550   2
 -10   6  11 89.9745 162.501   3
 -10   6  11 181.596 129.318   6
  10  -6 -11 149.731 239.697   5
  10   6 -10 16959.4 1252.21   3
  10  -6 -10 16734.5 880.352   2
 -10  -6  10 15866.4 1453.26   2
 -10   6  10 18580.9 1327.78   3
 -10   6  10 18131.1 1129.86   6
  10  -6 -10 18117.7 1501.42   5
  10   6  -9 123.161 129.355   3
  10  -6  -9 21.2605 25.4155   2
 -10   6   9 55.6138 46.1048   6
 -10   6   9-38.5721 42.4381   3
 -10  -6   9-39.4313 114.161   2
  10  -6  -9 238.309 237.553   5
  10   6  -8 13271.4 1071.78   3
 -10  -6   8 11275.8 1214.34   2
 -10   6   8 13051.8 941.836   6
 -10   6   8 12464.5 1084.72   3
  10  -6  -8 12567.9 1252.73   5
  10  -6  -8 12304.9 885.075   2
  10   6  -7 74.8762 94.6969   3
 -10  -6   7-150.073 180.418   2
 -10   6   7-29.5565 90.5306   3
  10  -6  -7 16.2466 66.4094   2
  10  -6  -7 58.4374 172.351   5
 -10   6   7-15.1395 91.7383   6
  10   6  -6 1093.49 312.388   3
  10  -6  -6 859.460 250.225   2
 -10   6   6 1087.74 327.851   3
  10  -6  -6 1160.47 394.485   5
 -10  -6   6 846.725 309.261   2
  10   6  -5 234.496 144.205   3
 -10  -6   5 212.989 90.3941   2
 -10   6   5 39.7290 110.118   3
  10  -6  -5 226.471 122.576   2
  10  -6  -5 187.682 160.032   5
  10   6  -4 5210.23 623.681   3
  10  -6  -4 4886.75 655.887   2
  10  -6  -4 4935.50 777.217   5
 -10  -6   4 5133.89 800.092   2
 -10   6   4 4983.51 690.509   3
  10   6  -3 100.291 131.144   3
 -10  -6   3 219.959 191.255   2
 -10   6   3 29.5570 72.5412   3
  10  -6  -3 160.377 148.949   5
  10  -6  -3-80.6620 112.436   2
 -10   6   2 14100.4 1182.75   3
  10   6  -2 15373.5 1026.33   3
  10  -6  -2 14254.8 1308.19   5
 -10  -6   2 13687.5 1313.34   2
  10   6  -1 27.6965 55.4071   3
 -10  -6   1 93.0783 134.962   2
  10  -6  -1 147.684 105.141   7
 -10   6   1-24.7020 85.9526   3
  10  -6  -1-107.208 107.837   5
  10   6   0 5414.29 594.563   3
  10  -6   0 5638.36 709.717   7
 -10   6   0 5489.54 749.749   3
  10  -6   0 6444.32 876.823   5
 -10  -6   0 5370.90 826.366   2
 -10  -6  -1 229.865 199.353   2
  10   6   1-54.2642 107.754   3
  10  -6   1 25.3210 82.4909   7
 -10   6  -1-70.6844 102.533   3
  10  -6   1 121.534 203.702   5
  10   6   2 11619.7 819.593   3
  10  -6   2 11318.7 1040.50   7
 -10   6  -2 10403.4 1055.93   3
  10  -6   2 10678.0 1128.48   5
 -10  -6  -2 9378.78 1097.05   2
 -10  -6  -3 1069.18 357.274   2
  10   6   3 689.565 185.899   3
  10  -6   3 1017.91 327.864   7
 -10   6  -3 917.783 282.525   3
  10  -6   3 901.715 335.174   5
  10   6   4 3465.05 415.017   3
 -10   6  -4 3090.78 579.465   3
  10  -6   4 3535.54 599.084   7
  10  -6   4 3229.89 630.286   5
 -10  -6  -4 3339.38 637.602   2
  10   6   5-23.4231 57.5341   3
  10  -6   5 176.100 161.115   7
 -10   6  -5 34.0515 62.2385   3
  10  -6   5 76.3061 140.530   5
 -10  -6  -5 160.245 164.793   2
  10   6   6 31186.6 1171.41   3
 -10   6  -6 29263.0 1823.25   3
  10  -6   6 28393.2 1744.64   7
 -10  -6  -6 29919.0 1873.26   2
  10  -6   6 27685.6 1819.31   5
  10   6   7 35.9591 56.7104   3
  10  -6   7 174.635 126.784   7
 -10   6  -7-118.985 190.175   3
  10  -6   7-218.662 207.971   5
 -10  -6  -7-53.2511 134.692   2
  10  -6   8 1019.91 360.233   7
  10  -6   8 1255.14 388.454   5
 -10  -6  -8 987.255 335.489   2
 -10   6  -8 675.654 280.586   3
  10  -6   9-127.761 50.8202   7
 -10   6  -9 19.2179 69.6210   3
  10  -6   9-83.6640 118.372   5
 -10  -6  -9 52.2610 107.412   2
 -10   6 -10 7571.24 968.498   3
  10  -6  10 7671.60 955.962   7
  10  -6  10 8006.02 973.112   5
 -10  -6 -10 8365.39 963.967   2
 -10   6 -11 134.662 100.080   3
  10  -6  11 210.217 204.591   7
 -10  -6 -11-12.4083 59.3802   2
  10  -6  11 106.375 92.3714   5
 -10   6 -12 828.286 308.372   3
  10  -6  12 1248.99 400.225   7
 -10  -6 -12 1276.34 375.194   2
  10  -6  12 1038.90 337.974   5
 -10   6 -13 68.8659 111.910   3
  10  -6  13 739.330 319.968   7
  10   6  13 514.851 189.875   7
 -10  -6 -13 267.473 150.816   2
  10  -6  13 51.9454 46.5738   5
 -10   6 -14 26099.0 1854.67   3
  10  -6  14 26410.7 1912.33   7
  10   6  14 26598.2 1549.15   7
  10  -6  14 25416.6 1738.86   5
  10  -6  15 68.4506 180.586   7
  10   6  15 37.8554 52.6212   7
 -10   6 -15 80.9654 86.8495   3
  10  -6  15-97.7491 72.9098   5
 -10   6 -16-132.130 175.107   3
  10  -6  16 72.0813 191.961   7
  10  -6  16 82.6909 103.248   5
  10   6  16-48.8035 131.064   7
 -10   6 -17 122.071 209.626   3
  10  -6  17-142.558 193.719   7
  10   6  17-44.0597 65.4455   7
  10  -6  17-64.5882 125.197   5
 -10   6 -18 7793.14 1055.43   3
  10   6  18 8528.88 910.465   7
  10  -6  18 8589.70 1163.38   7
 -10   6 -19-257.907 310.942   3
  10  -6  19 37.8591 86.6642   7
  10   6  19 30.2529 123.934   7
 -10   6 -20 836.670 371.190   3
  10  -6  20 584.338 297.206   7
  10   6  20 789.252 287.858   7
 -10   6 -21-18.7792 106.055   3
  10  -6  21 230.053 245.396   7
 -10   6 -22 9715.42 1248.78   3
  10  -6  22 11100.9 1415.32   7
 -10   6 -23 216.592 145.437   3
  10  -6  23 70.2145 151.052   7
 -10   6 -24 393.549 249.834   3
 -10   6 -25 167.780 176.604   3
 -10   8  26 485.949 240.666   1
 -10   8  25 142.369 139.641   1
  10  -8 -25 269.072 227.863   5
 -10   8  24 9536.66 1103.75   1
 -10   8  24 9567.49 1146.47   3
  10  -8 -24 10493.4 1438.52   5
 -10   8  23 263.241 178.482   1
 -10   8  23-57.1549 92.1598   3
 -10  -8  23 556.790 305.674   2
  10  -8 -23 471.648 305.062   5
 -10   8  22 814.105 314.118   1
 -10   8  22 1068.90 392.775   3
 -10  -8  22 940.881 440.704   2
  10  -8 -22 704.587 356.268   5
 -10   8  21 529.349 296.142   3
 -10  -8  21 210.741 235.035   2
  10  -8 -21 373.563 272.189   5
 -10   8  21 273.989 171.679   1
 -10  -8  20 17086.7 1904.03   2
 -10   8  20 13284.6 1332.85   3
  10  -8 -20 15259.4 1710.56   5
 -10   8  19-34.1599 109.169   3
 -10  -8  19 167.369 151.228   2
  10  -8 -19 165.797 224.538   5
 -10   8  18 2757.79 598.174   3
 -10  -8  18 3458.93 838.923   2
  10  -8 -18 2282.41 650.283   5
  10   8 -17 503.999 284.909   3
 -10  -8  17 425.315 245.051   2
 -10   8  17 362.952 249.878   3
  10  -8 -17 341.219 233.359   5
  10   8 -16 17003.9 1570.36   3
 -10  -8  16 17786.8 1911.87   2
 -10   8  16 15683.9 1433.51   3
  10  -8 -16 16521.0 1748.18   5
  10   8 -15 345.206 266.648   3
 -10  -8  15 263.997 250.264   2
 -10   8  15 44.3570 48.7510   3
  10  -8 -15 633.588 403.468   5
 -10  -8  14 125.783 78.4166   2
 -10   8  14 219.703 139.641   3
  10  -8 -14 105.016 220.646   5
  10   8 -13 196.770 170.806   3
 -10  -8  13-136.230 234.496   2
 -10   8  13-128.671 117.902   3
  10  -8 -13-137.224 185.140   5
  10   8 -12 7594.54 999.622   3
 -10  -8  12 8361.61 1252.41   2
 -10   8  12 7621.51 995.472   3
  10  -8 -12 8897.35 1259.82   5
  10   8 -11 97.9365 153.826   3
 -10   8  11 174.161 195.713   3
 -10  -8  11-218.213 206.514   2
  10  -8 -11 87.3269 236.993   5
  10   8 -10 4129.84 715.464   3
 -10   8  10 4403.60 749.021   3
 -10  -8  10 3921.71 853.410   2
  10  -8 -10 4158.26 851.180   5
  10   8  -9 109.860 78.8839   3
 -10   8   9-9.63123 115.760   3
  10  -8  -9 218.350 173.892   5
  10   8  -8 9697.95 1070.14   3
 -10   8   8 9681.88 1126.36   3
  10  -8  -8 10341.3 1341.64   5
 -10  -8   8 7631.77 1178.87   2
  10   8  -7-34.3916 43.2090   3
 -10  -8   7 235.672 251.429   2
  10  -8  -7-102.069 166.940   5
 -10   8   7-99.2105 151.502   3
  10   8  -6 1901.15 464.075   3
 -10  -8   6 2186.16 628.707   2
 -10   8   6 1724.88 474.776   3
  10  -8  -6 2535.61 687.249   5
  10   8  -5 336.822 182.545   3
 -10  -8   5 497.109 292.400   2
  10  -8  -5 364.808 236.543   2
 -10   8   5 528.512 321.634   3
  10  -8  -5 348.968 235.933   5
  10  -8  -4 5480.57 969.788   5
  10   8  -4 5112.61 731.235   3
 -10  -8   4 4900.35 934.108   2
 -10   8   4 5875.99 901.515   3
  10  -8  -4 5256.27 797.540   2
 -10   8   3-112.711 173.133   3
  10   8  -3 55.0127 54.4653   3
 -10  -8   3-85.3739 81.6267   2
  10  -8  -3-15.4751 53.9158   2
  10  -8  -3-96.7132 144.496   5
  10   8  -2 20623.3 1418.04   3
 -10   8   2 19245.7 1641.96   3
  10  -8  -2 21849.4 1910.90   5
 -10  -8   2 16434.7 1718.56   2
  10  -8  -2 17353.1 1561.35   2
  10   8  -1 145.271 122.093   3
 -10  -8   1-152.013 192.646   2
 -10   8   1 259.455 226.815   3
  10  -8  -1-41.7931 165.600   2
  10  -8  -1 234.221 230.245   5
  10   8   0 4937.81 678.225   3
 -10  -8   0 4344.42 888.373   2
 -10   8   0 4375.22 780.466   3
  10  -8   0 4533.94 815.461   2
  10  -8   0 5022.96 906.513   5
 -10  -8  -1-130.483 241.833   2
  10   8   1-66.2240 32.4440   3
 -10   8  -1 86.1978 63.9236   3
  10  -8   1 2.30947 144.882   5
  10  -8   1 60.7525 55.4576   2
  10   8   2 4143.63 591.849   3
 -10  -8  -2 2939.21 705.029   2
 -10   8  -2 3068.88 669.076   3
  10  -8   2 3504.13 740.868   5
  10  -8   2 3214.78 721.102   2
 -10  -8  -3 951.286 419.435   2
  10   8   3 1241.28 322.905   3
 -10   8  -3 1209.43 401.231   3
  10  -8   3 1529.97 506.309   5
  10  -8   3 1738.75 533.218   2
 -10   8  -4 1981.16 551.547   3
  10  -8   4 2123.45 612.049   5
  10  -8   4 1403.42 485.249   2
 -10  -8  -4 1747.47 518.932   2
 -10   8  -5 40.4360 198.041   3
  10  -8   5-10.8040 172.342   5
  10  -8   5-9.66850 61.4213   2
 -10  -8  -5 176.460 124.867   2
 -10   8  -6 22303.4 1843.49   3
  10  -8   6 18295.1 1791.39   2
  10  -8   6 20324.6 1858.04   5
 -10  -8  -6 22397.0 1873.49   2
 -10   8  -7-79.0604 155.477   3
  10  -8   7 114.687 180.500   5
 -10  -8  -7 75.9826 82.6537   2
  10  -8   7 4.18522 240.782   2
 -10   8  -8 1322.31 454.548   3
  10  -8   8 1966.34 578.838   5
 -10  -8  -8 1434.21 466.783   2
  10  -8   8 1340.73 489.947   2
 -10   8  -9 322.946 241.162   3
  10  -8   9-142.924 149.701   5
 -10  -8  -9-15.7861 63.9893   2
  10  -8   9-60.1071 186.389   2
 -10   8 -10 6936.06 1055.06   3
 -10  -8 -10 7063.29 1003.30   2
  10  -8  10 6148.87 1009.84   5
  10  -8  10 5577.92 1035.64   2
  10  -8  11-0.81815 89.1840   7
 -10   8 -11 100.824 216.767   3
  10  -8  11-299.354 248.929   5
 -10  -8 -11 24.2499 65.3255   2
  10  -8  11-49.1176 182.019   2
  10  -8  12-124.047 185.952   7
 -10   8 -12 148.960 186.127   3
  10  -8  12-63.6882 180.028   5
 -10  -8 -12 215.889 202.362   2
 -10   8 -13 245.307 258.454   3
  10  -8  13 127.201 145.975   7
  10  -8  13 434.727 243.725   5
 -10  -8 -13 227.740 210.516   2
 -10   8 -14 13768.4 1553.05   3
  10  -8  14 12778.2 1563.00   7
  10  -8  14 10524.0 1356.78   5
 -10   8 -15 657.935 345.494   3
  10  -8  15 102.836 217.340   7
 -10   8 -16 189.102 174.832   3
  10  -8  16 134.216 245.015   7
  10  -8  17 246.592 281.668   7
  10  10 -11 123.241 110.143   3
  10  10 -10 7288.72 1077.83   3
  10  10  -9-222.815 80.1819   3
  10  10  -8 6467.09 983.183   3
  10  10  -7-173.448 162.273   3
 -10 -10   7-746.325 432.306   2
  10  10  -6 653.611 311.855   3
 -10 -10   6 497.178 354.848   2
  10  10  -5 484.667 261.936   3
 -10 -10   5 215.548 213.701   2
 -10 -10   4 931.320 441.244   2
 -10 -10   3 72.9047 161.241   2
 -10 -10   2 5753.96 1177.04   2
 -10 -10   1 411.845 311.911   2
 -10 -10   0 2935.01 817.562   2
 -10 -10  -1 53.4013 116.328   2
 -10 -10  -2 3846.15 919.875   2
 -10 -10  -3 176.987 260.128   2
 -10 -10  -4 570.987 382.516   2
 -11   1  38-65.9444 101.444   1
 -11  -1  38-288.000 212.307   1
 -11  -1  37 5103.75 863.542   1
 -11   1  37 5108.91 889.942   1
 -11   1  36 56.0829 99.0073   1
 -11  -1  36 13.9823 72.2502   1
 -11  -1  35 6228.44 919.398   1
 -11   1  35 7866.36 1051.48   1
 -11   1  34 114.564 200.633   1
 -11  -1  34-61.9548 89.4347   2
 -11  -1  34 41.0143 85.1520   1
 -11  -1  33 7805.03 987.007   1
 -11  -1  33 7728.45 927.038   2
 -11   1  33 9819.78 1130.77   1
 -11  -1  32-59.4220 96.4302   1
 -11   1  32 28.8823 73.0210   1
 -11  -1  32-76.4247 105.942   2
 -11  -1  31 220.244 174.958   1
 -11   1  31 492.895 273.240   1
 -11  -1  31 151.611 154.984   2
 -11  -1  30 31.7335 104.368   1
 -11  -1  30-30.3811 44.8780   2
 -11  -1  29 13744.9 1200.96   1
 -11  -1  29 14759.0 1184.85   2
 -11   1  29 13065.5 882.752   2
  11  -1 -29 15281.3 1108.11   4
 -11   1  29 14982.9 1279.84   1
 -11  -1  28 43.7740 107.058   1
 -11   1  28 125.529 173.668   1
 -11   1  28-17.7662 34.2869   2
 -11  -1  28 6.37753 81.3641   2
  11  -1 -28-15.0417 96.3866   4
 -11   1  27 10568.7 748.102   2
 -11  -1  27 10894.6 1010.84   1
 -11  -1  27 11771.3 1023.35   2
  11  -1 -27 10444.6 927.713   4
 -11   1  27 11475.4 1064.13   1
 -11  -1  26 161.202 163.288   1
 -11   1  26 130.335 168.227   1
 -11   1  26 16.1187 67.7224   2
 -11  -1  26 14.9209 117.748   2
  11  -1 -26 105.179 114.043   4
 -11   1  25 14096.2 815.597   2
 -11  -1  25 14360.7 1083.83   2
 -11  -1  25 15311.4 1149.20   1
  11  -1 -25 14738.8 1108.02   4
 -11   1  25 13595.7 1109.29   1
 -11  -1  24 100.470 153.811   1
 -11   1  24 68.0077 144.616   1
 -11   1  24 35.3934 36.3845   2
 -11  -1  24-43.7730 42.4423   2
  11  -1 -24-34.0531 39.9204   4
 -11   1  23 472.259 211.471   1
  11  -1 -23-109.230 74.9688   7
 -11   1  23 345.577 120.707   2
 -11  -1  23 372.608 143.826   2
  11  -1 -23 653.338 233.745   4
 -11  -1  23 424.627 176.835   1
 -11   1  22-87.4686 195.817   1
  11  -1 -22 85.9143 62.0205   7
 -11   1  22-5.13777 33.9096   2
 -11  -1  22-9.67911 69.6694   2
 -11  -1  22-8.18247 82.5469   1
  11  -1 -22-12.0873 70.4575   4
 -11   1  21 34776.2 1128.32   2
 -11  -1  21 38065.0 1614.27   2
 -11  -1  21 35744.8 1569.98   1
  11  -1 -21 34292.3 1257.36   7
 -11   1  21 35592.2 1643.11   1
  11  -1 -21 33722.6 1650.02   4
  11  -1 -20 80.7969 58.6523   7
 -11   1  20 4.00645 33.1008   2
 -11  -1  20-106.811 53.0753   2
 -11  -1  20-40.3721 72.8502   1
 -11   1  20-29.9784 188.740   1
  11  -1 -20 108.245 142.194   4
  11  -1 -19 1398.04 238.395   7
 -11   1  19 1384.58 202.671   2
 -11  -1  19 1108.36 255.198   1
 -11  -1  19 1419.25 301.124   2
 -11   1  19 1168.14 290.666   1
  11  -1 -19 1222.46 320.097   4
 -11   1  18 177.738 65.3919   2
  11  -1 -18 140.738 52.6473   7
 -11  -1  18 144.682 82.5235   1
 -11  -1  18 296.616 136.526   2
 -11   1  18 499.379 195.201   1
  11  -1 -18 283.859 174.382   4
 -11  -1  17 17564.5 1016.69   2
  11  -1 -17 16431.0 754.187   7
 -11   1  17 16410.9 1024.55   1
 -11  -1  17 17639.3 970.713   1
 -11   1  17 16716.0 677.923   2
 -11  -1  16-39.4992 80.5094   1
 -11   1  16-38.1256 35.3130   2
  11  -1 -16-65.7558 43.4830   7
 -11   1  16-2.81311 51.4981   1
 -11  -1  16 45.9312 71.3400   2
 -11  -1  15 5740.60 566.433   2
  11  -1 -15 5570.23 418.414   7
 -11   1  15 5385.63 552.072   1
 -11  -1  15 5388.33 510.212   1
 -11   1  15 5423.94 369.922   2
 -11   1  14-50.1026 42.7186   2
  11  -1 -14-34.3519 33.3319   7
 -11  -1  14 34.3019 55.1548   2
 -11  -1  14-73.1984 74.8869   1
 -11   1  14-106.717 90.5873   1
 -11  -1  13 36660.8 1397.06   2
  11  -1 -13 35868.4 1028.32   7
 -11  -1  13 35500.0 1231.65   1
 -11   1  13 38214.4 1409.87   1
  11   1 -13 41349.0 1506.19   2
 -11   1  13 36759.1 956.924   2
 -11  -1  12 288.984 123.724   2
 -11  -1  12 93.1629 60.0638   1
  11  -1 -12 126.967 48.6715   2
  11   1 -12 190.385 84.3249   2
 -11   1  12 281.582 130.370   1
 -11   1  12 37.9969 37.7951   2
 -11  -1  11 1752.34 256.065   1
 -11  -1  11 1750.26 295.873   2
  11   1 -11 2015.65 325.022   2
  11  -1 -11 1631.29 211.682   2
 -11   1  11 1332.34 182.930   2
 -11   1  11 1247.79 236.010   1
  11   1 -11 1549.34 241.353   1
 -11   1  10 9.69526 85.8717   1
  11   1 -10 23.0853 54.1552   1
  11   1 -10-24.0075 59.7972   2
  11  -1 -10 8.60215 35.3453   2
 -11  -1  10 79.6701 61.2454   2
 -11   1  10-22.1574 22.7343   2
 -11  -1  10-13.3451 41.3695   1
 -11   1   9 21372.4 977.862   1
 -11  -1   9 20487.5 820.607   1
  11   1  -9 22929.0 883.344   1
  11   1  -9 24526.9 1136.27   2
 -11   1   9 21544.2 772.167   2
 -11  -1   9 21770.4 1050.62   2
  11  -1  -9 22446.4 802.347   2
  11   1  -8-7.54140 35.7745   1
 -11  -1   8 103.719 62.7507   2
  11  -1  -8 16.2455 12.4011   2
 -11   1   8-44.9937 75.3348   1
 -11  -1   8 26.1165 26.3085   1
  11   1  -8 78.2551 69.5204   2
 -11   1   8 63.4852 38.8508   2
 -11   1   7 44943.8 1371.88   1
 -11  -1   7 46117.6 1179.89   1
  11   1  -7 44716.0 1538.33   2
  11   1  -7 43719.5 1158.36   1
 -11   1   7 44898.4 1148.30   2
  11  -1  -7 43224.6 1176.21   2
 -11  -1   7 42785.3 1472.01   2
 -11   1   6 96.0077 65.4395   1
 -11  -1   6 42.3507 46.9097   2
 -11  -1   6 258.021 88.6460   1
  11   1  -6 143.512 41.4054   1
 -11   1   6 333.015 127.885   6
  11  -1  -6 79.6319 51.1906   2
  11   1  -5 45841.9 1099.95   1
 -11   1   5 43565.4 1381.09   6
  11  -1  -5 45482.8 1258.90   2
 -11  -1   5 43574.2 1517.40   2
  11  -1  -4 223.064 86.1441   7
  11   1  -4 195.190 65.6323   1
 -11   1   4 184.818 90.2431   6
 -11  -1   4 268.963 104.585   6
  11  -1  -4 273.472 103.836   2
 -11  -1   4 78.8142 56.2727   2
  11   1  -3 2083.27 237.674   1
  11  -1  -3 2760.17 328.730   2
  11  -1  -3 2447.67 281.890   7
 -11   1   3 2718.24 349.227   6
 -11  -1   3 2692.25 298.751   6
 -11  -1   3 2727.09 377.399   2
  11   1  -2-13.5478 33.6760   1
 -11  -1   2-20.0143 38.4849   6
  11  -1  -2-19.2169 33.3037   7
 -11   1   2 79.8562 82.7790   6
  11  -1  -2 52.7193 50.4831   2
 -11  -1   2 66.3642 36.8258   2
  11  -1  -1 33496.6 1184.19   2
 -11  -1   1 32217.9 1333.13   2
 -11  -1   1 30687.4 1010.36   6
 -11   1   1 30543.0 1168.29   6
  11  -1  -1 30786.7 1058.21   7
 -11  -1   0 60.0361 50.7163   6
 -11   1   0-45.8394 71.0593   3
 -11   1   0-143.855 125.911   6
  11  -1   0-12.4638 64.4192   7
  11   1   0-91.6471 63.7179   6
  11  -1   0-22.3534 27.9194   2
 -11  -1   0-117.808 119.627   2
  11  -1   0 111.884 127.299   4
 -11   1  -1 23210.5 905.360   3
  11   1   1 25682.8 935.050   6
 -11  -1  -1 23747.5 1150.28   2
  11  -1   1 23971.3 993.106   7
  11  -1   1 23823.4 1145.29   4
 -11   1  -2 53.2982 64.9111   3
  11   1   2 7.08668 17.6054   6
  11  -1   2 42.7032 80.0277   7
 -11  -1  -2 10.7238 42.2609   2
  11  -1   2-19.2245 35.7315   4
 -11   1  -3 10065.8 599.568   3
  11   1   3 10429.9 622.254   6
  11  -1   3 10273.6 695.401   7
 -11  -1  -3 10372.6 771.468   2
  11  -1   3 10021.5 722.843   4
 -11  -1  -4 17.6876 11.7453   3
 -11  -1  -4-76.3100 50.1509   2
  11  -1   4 33.8676 89.4117   7
 -11   1  -4-1.67893 24.4925   3
  11   1   4-108.568 103.674   7
  11   1   4 81.3750 110.529   6
  11  -1   4-48.9603 94.6508   4
 -11  -1  -5 18717.9 435.352   3
 -11   1  -5 19207.0 842.110   3
  11  -1   5 19456.9 1020.77   7
  11   1   5 20238.7 1033.01   7
  11   1   5 20375.4 910.707   6
  11  -1   5 21109.9 1006.88   4
 -11   1  -6-36.0522 70.6304   3
  11  -1   6 48.0172 76.5168   7
  11   1   6-68.5226 83.8340   7
  11   1   6-67.6323 70.0412   6
  11  -1   6 43.4825 69.5378   4
  11   1   7 7492.43 664.274   7
 -11   1  -7 8275.59 573.100   3
  11  -1   7 7115.08 648.293   7
  11  -1   7 7504.02 595.187   4
 -11   1  -8 17.6622 44.6603   3
  11  -1   8-147.796 100.465   7
  11   1   8 63.5149 70.6746   7
  11  -1   8-12.5683 50.6254   4
 -11   1  -9 47639.7 1395.26   3
  11  -1   9 47401.0 1752.89   7
  11   1   9 49563.1 1759.31   7
  11  -1   9 46394.0 1429.57   4
  11  -1  10 108.982 44.6192   7
 -11   1 -10 40.4406 34.5740   3
  11   1  10 48.4987 56.6351   7
  11   1  11 165.050 144.629   7
 -11   1 -11 257.138 118.943   3
  11  -1  11 169.848 126.201   7
  11  -1  11 89.0818 56.0231   3
  11  -1  12 93.3649 119.129   7
 -11   1 -12-52.6957 69.8569   3
  11   1  12 216.623 135.581   7
  11  -1  12 3.71691 41.6321   3
 -11   1 -13 6922.55 561.336   3
  11   1  13 7153.36 735.128   7
  11  -1  13 6479.75 511.513   3
  11  -1  13 7398.63 766.782   7
 -11   1 -14-44.1024 61.1555   3
  11   1  14 21.4564 53.8306   7
  11  -1  14 171.308 91.6550   7
  11  -1  14 90.2966 103.257   3
  11   1  14 85.8897 51.9168   5
  11   1  14 28.0849 14.0406   4
 -11   1 -15 721.673 194.712   3
  11   1  15 833.381 253.797   7
  11  -1  15 991.182 288.294   7
  11   1  15 579.023 106.255   5
  11  -1  15 746.306 142.572   5
  11   1  15 1330.43 169.568   4
 -11   1 -16-46.5697 51.0870   3
  11  -1  16 67.5802 72.7696   7
  11   1  16-71.7231 47.3996   7
  11  -1  16-23.8640 11.6966   5
 -11   1 -17 22954.7 1107.88   3
  11   1  17 22705.0 1435.56   7
  11  -1  17 22444.4 1479.46   7
  11  -1  18 86.7665 106.438   7
  11   1  18-157.556 114.870   7
  11   1  19 542.300 217.175   7
  11  -1  19 937.257 297.205   7
  11   1  20-40.0939 114.302   7
  11  -1  20-186.411 195.133   7
  11  -1  21 12243.5 1197.87   7
  11   1  21 11758.4 1127.41   7
  11   1  22 44.7312 108.732   7
  11  -1  22 182.823 174.175   7
  11   1  23 727.763 284.551   7
  11  -1  23 880.169 347.156   7
  11   1  24 117.603 188.734   7
  11  -1  24 58.2345 92.4300   7
  11  -1  25 17260.9 1555.05   7
  11   1  25 17852.4 1510.13   7
  11  -1  26 90.1093 141.989   7
  11   1  26 3.09588 58.0522   7
  11  -1  27 1771.75 506.189   7
  11   1  27 1062.13 360.653   7
  11  -1  28 180.020 207.770   7
  11   1  28 0.66981 57.1113   7
  11  -1  29 5155.09 904.627   7
  11   1  29 4471.28 816.044   7
  11  -1  30-96.7287 194.632   7
  11   1  30-171.604 171.050   7
  11   1  31 2535.55 640.366   7
 -11  -3  38 83.9816 54.2937   1
 -11  -3  38 258.488 246.608   2
 -11   3  37 4320.36 828.369   1
 -11  -3  37 4426.38 862.235   2
 -11  -3  37 4682.70 831.587   1
 -11  -3  36 194.702 219.987   1
 -11   3  36 34.8519 165.572   1
 -11  -3  36 63.9498 63.0396   2
 -11   3  35 6573.85 994.153   1
 -11  -3  35 6499.77 932.245   1
 -11  -3  35 5590.08 946.870   2
 -11  -3  34 20.4264 76.5651   1
 -11   3  34-70.0578 143.883   1
 -11  -3  34-150.252 155.159   2
 -11   3  33 4154.46 756.647   1
 -11  -3  33 3417.67 648.037   1
 -11  -3  33 3851.92 754.577   2
 -11   3  32-102.179 137.417   1
 -11  -3  32 67.8386 164.914   2
 -11  -3  32 125.846 103.099   1
 -11   3  31 204.390 131.697   1
 -11  -3  31 194.314 209.762   2
 -11  -3  31 314.242 202.432   1
 -11  -3  30-165.254 107.356   2
 -11  -3  30-95.7970 45.4904   1
 -11  -3  29 10066.6 1137.61   2
 -11   3  29 9312.15 1060.03   1
 -11  -3  29 8821.98 941.351   1
 -11  -3  28-89.0662 104.703   1
 -11   3  28 198.064 181.038   1
 -11  -3  28-66.3077 106.256   2
 -11  -3  27 4662.12 754.519   2
 -11   3  27 5109.12 754.878   1
 -11  -3  27 4980.79 674.574   1
 -11  -3  26 277.324 149.650   1
 -11   3  26 105.967 142.955   1
 -11  -3  26 91.9939 107.817   2
 -11  -3  25 23301.6 1627.63   2
 -11   3  25 21248.0 1471.33   1
 -11  -3  25 21166.8 1315.04   1
 -11   3  24-127.067 79.6968   1
 -11  -3  24 15.8787 56.5579   2
 -11  -3  23-134.794 88.7889   1
 -11   3  23 147.216 65.4332   1
 -11  -3  23-47.6117 123.595   2
 -11  -3  22 231.584 148.431   1
 -11   3  22 15.5833 107.011   1
 -11  -3  22 70.5554 143.712   2
 -11  -3  21 37122.8 1924.70   2
 -11   3  21 36514.0 1776.57   1
 -11  -3  21 34646.2 1491.29   1
 -11   3  20 104.921 175.987   1
 -11  -3  20-39.2334 91.3341   2
 -11  -3  20 171.348 158.924   1
 -11   3  19 1765.52 384.749   1
 -11  -3  19 1462.38 281.753   1
 -11  -3  19 1751.43 402.854   2
 -11   3  18 1087.48 277.881   1
 -11  -3  18 888.325 215.875   1
 -11  -3  18 977.042 280.505   2
 -11  -3  17 14086.3 1114.36   2
 -11   3  17 12496.9 963.555   1
 -11  -3  17 14168.2 833.718   1
 -11  -3  16-96.8480 115.232   2
 -11  -3  16 56.7947 90.2292   1
 -11   3  16-53.7742 45.4773   1
 -11  -3  15 9468.08 619.297   1
 -11   3  15 9208.32 790.099   1
 -11  -3  15 10187.2 928.298   2
  11  -3 -15 10341.9 961.636   4
 -11  -3  14 45.1592 39.8755   1
 -11  -3  14-158.407 157.095   2
 -11   3  14 46.2641 55.2844   1
  11  -3 -14 24.4789 92.6831   4
 -11   3  13 23084.2 1202.53   1
 -11  -3  13 23502.7 1392.89   2
 -11  -3  13 22065.1 873.808   1
  11  -3 -13 23325.0 1406.42   4
 -11  -3  12 661.305 246.715   2
 -11   3  12 317.929 129.538   1
 -11  -3  12 406.902 106.068   1
  11  -3 -12 475.923 236.823   4
 -11  -3  11 738.226 228.551   2
 -11   3  11 654.095 197.363   1
  11  -3 -11 462.486 200.236   4
 -11  -3  11 499.937 116.933   1
 -11  -3  10 198.895 68.1742   1
 -11   3  10-30.0011 109.954   6
 -11  -3  10 285.939 160.202   2
 -11   3  10-33.0018 114.396   1
  11  -3 -10 147.222 104.098   4
  11  -3 -10 143.289 44.1237   2
 -11   3   9 18936.1 1056.19   1
 -11  -3   9 16823.2 1144.60   2
 -11  -3   9 16467.0 601.557   1
  11  -3  -9 17310.5 494.388   7
 -11   3   9 17010.9 977.593   6
  11  -3  -9 16566.5 571.774   2
  11  -3  -9 17948.8 1202.26   4
 -11  -3   8 75.0804 48.4105   1
 -11  -3   8 35.5346 48.0444   2
 -11   3   8-59.0230 45.7089   6
  11  -3  -8-8.46849 20.7043   7
  11  -3  -8 5.69770 10.4248   2
  11  -3  -7 15645.4 603.882   7
 -11   3   7 15807.0 923.592   6
  11  -3  -7 15635.1 631.917   2
  11  -3  -7 16576.1 1134.32   4
 -11  -3   7 15730.6 1095.60   2
 -11  -3   6 57.5936 62.3885   3
 -11  -3   6 170.121 93.1104   2
  11  -3  -6 264.106 96.0071   7
 -11   3   6 190.388 96.0232   6
  11  -3  -6 377.222 201.508   4
 -11  -3   5 32851.8 1237.70   3
 -11   3   5 34608.3 1368.08   6
 -11   3   5 33620.0 1427.92   3
  11  -3  -5 31926.4 981.345   7
  11  -3  -5 35302.8 1636.55   4
 -11  -3   5 33089.6 1600.61   2
 -11  -3   4 289.644 156.768   2
 -11  -3   4 162.693 76.7905   3
 -11   3   4 309.134 120.699   6
 -11   3   4 94.3109 57.9088   7
 -11   3   4 160.485 140.167   3
  11  -3  -4 331.570 116.692   7
 -11  -3   3 6924.49 521.953   3
 -11   3   3 6628.43 621.000   3
 -11   3   3 6623.27 453.686   7
 -11   3   3 6871.43 617.820   6
 -11  -3   3 6607.91 384.201   6
  11  -3  -3 6366.46 482.260   7
 -11  -3   3 6446.98 702.660   2
  11   3  -3 6172.83 241.842   1
 -11  -3   2 232.441 140.121   2
  11   3  -2 114.136 33.6651   1
 -11  -3   2 33.6671 29.3401   3
 -11   3   2 192.817 96.0745   6
  11  -3  -2 289.082 120.483   7
 -11   3   2 38.8163 37.1580   3
 -11  -3   2 223.878 69.1715   6
 -11   3   2 136.277 74.9667   7
  11   3  -1 21061.7 509.285   1
 -11  -3   1 22424.9 860.850   3
  11  -3  -1 21432.7 958.897   7
 -11   3   1 22759.0 925.399   7
 -11  -3   1 21838.5 648.059   6
 -11   3   1 22303.2 1119.13   6
 -11   3   1 22487.0 1142.05   3
 -11  -3   1 22886.8 1346.80   2
 -11  -3   0 58.8866 60.0671   3
 -11   3   0-31.5904 63.5846   7
 -11   3   0-1.89507 55.4584   3
  11   3   0 41.3142 28.0358   1
 -11  -3   0-95.8621 129.615   2
 -11  -3  -1 38645.9 1010.77   3
  11  -3   1 40298.6 1408.96   7
 -11   3  -1 41201.0 1565.61   3
 -11  -3  -1 41799.5 1813.97   2
 -11  -3  -2 20.1674 26.4427   3
  11  -3   2 154.624 96.9596   7
 -11   3  -2 84.3765 81.9725   3
 -11  -3  -2 122.529 110.917   2
  11  -3   3 10227.6 755.380   7
 -11  -3  -3 10579.6 432.269   3
 -11   3  -3 10747.9 809.055   3
 -11  -3  -3 11641.2 942.693   2
 -11   3  -4-27.2761 111.887   3
 -11  -3  -4-2.21711 9.99620   3
  11  -3   4 14.0921 83.4914   7
 -11  -3  -4 47.3121 86.7439   2
  11  -3   5 7623.66 690.725   7
  11   3   5 8294.76 461.426   6
 -11  -3  -5 7809.38 783.510   2
 -11   3  -5 7940.78 711.577   3
 -11   3  -6 87.7247 78.6968   3
  11  -3   6 248.925 143.503   7
  11   3   6 194.152 73.7237   6
 -11  -3  -6-82.6375 91.2466   2
 -11   3  -7 4568.71 564.462   3
  11  -3   7 4471.02 560.373   7
  11   3   7 5716.53 417.849   6
 -11  -3  -7 4775.79 622.011   2
 -11   3  -8 12.2499 66.8930   3
  11   3   8 49.2059 19.2099   6
 -11  -3  -8-48.8122 46.3335   2
 -11   3  -9 29080.8 1443.79   3
  11   3   9 30524.2 1430.06   7
  11   3   9 28143.6 1016.82   6
 -11  -3  -9 30748.5 1564.49   2
  11  -3   9 29324.0 1504.47   7
  11  -3  10 738.680 256.074   7
  11   3  10 577.199 200.331   7
  11   3  10 562.535 147.907   6
 -11   3 -10 842.820 259.323   3
  11   3  11-124.162 142.172   7
 -11   3 -11 113.290 81.9027   3
  11  -3  11-1.98273 44.0974   7
  11   3  11 48.6992 39.6622   6
  11  -3  11 6.11838 52.8813   5
 -11   3 -12 117.875 82.3012   3
  11  -3  12 18.3083 70.2372   7
  11   3  12 166.014 95.0525   7
  11  -3  12 198.678 115.448   5
  11  -3  13 8962.51 906.179   7
 -11   3 -13 8512.16 817.430   3
  11  -3  13 9630.34 779.798   5
  11   3  13 9257.19 844.858   7
 -11   3 -14 92.3924 143.137   3
  11  -3  14 195.474 191.244   7
  11   3  14-32.6764 100.013   7
  11  -3  14 159.760 89.9892   5
 -11   3 -15 279.236 130.599   3
  11   3  15 198.051 122.921   7
  11  -3  15 563.083 232.404   7
  11  -3  15 136.040 98.9071   5
 -11   3 -16-81.5647 124.832   3
  11  -3  16-172.692 183.230   7
  11   3  16-62.3566 83.1167   7
  11  -3  16-66.9107 73.8572   5
 -11   3 -17 27655.3 1551.27   3
  11  -3  17 26194.9 1724.85   7
  11   3  17 27859.7 1593.14   7
  11  -3  17 23515.0 1120.26   5
 -11   3 -18 237.737 117.305   3
  11  -3  18 295.121 252.527   7
  11   3  18 117.021 178.202   7
 -11   3 -19 383.077 185.553   3
  11  -3  19 211.166 146.546   7
  11   3  19 121.400 128.036   7
 -11   3 -20-39.7604 94.2493   3
  11  -3  20-69.3576 121.924   7
  11   3  20-170.763 188.460   7
 -11   3 -21 10843.4 1021.23   3
  11  -3  21 9747.69 1137.44   7
  11   3  21 10436.6 1042.85   7
 -11   3 -22 8.31371 69.2675   3
  11  -3  22-19.9630 172.284   7
  11   3  22 166.241 155.107   7
 -11   3 -23 1313.65 364.548   3
  11  -3  23 994.926 331.998   7
  11   3  23 1182.05 360.663   7
  11   3  24 77.6518 93.0932   7
  11  -3  24 104.692 181.655   7
  11  -3  25 17926.1 1678.54   7
  11   3  25 18150.9 1497.81   7
  11  -3  26 266.933 212.072   7
  11   3  26 126.314 113.647   7
  11  -3  27 1266.05 470.410   7
  11   3  27 1769.72 480.100   7
  11  -3  28 107.016 168.247   7
  11   3  28-81.8555 179.761   7
  11   3  29 3611.01 704.409   7
  11   3  30-63.0458 167.185   7
 -11  -5  36-187.444 71.3115   1
 -11  -5  35 4407.68 778.589   1
 -11  -5  35 3341.40 836.861   2
 -11   5  34 42.5216 120.162   1
 -11  -5  34-77.7516 130.519   2
 -11  -5  34 137.634 178.695   1
 -11  -5  33 9325.61 1344.94   2
 -11   5  33 9679.36 1187.44   1
 -11  -5  33 9318.24 1067.79   1
 -11  -5  32 65.6084 74.9847   1
 -11   5  32 36.9962 78.8031   1
 -11  -5  31 265.420 187.470   1
 -11  -5  31 128.869 199.429   2
 -11   5  31 139.311 137.602   1
 -11  -5  30-58.8520 114.658   1
 -11  -5  30-443.709 282.138   2
 -11   5  30-55.0029 133.353   1
 -11  -5  29 7303.46 1119.03   2
 -11   5  29 8411.02 1033.14   1
 -11  -5  29 8400.61 911.466   1
 -11  -5  28-68.6170 125.020   1
 -11  -5  28-168.199 205.067   2
  11  -5 -28-52.1980 115.506   5
 -11   5  28 256.098 177.723   1
 -11   5  27 4691.34 745.527   1
 -11  -5  27 4509.64 850.872   2
 -11  -5  27 5078.26 674.117   1
  11  -5 -27 4817.85 794.649   5
 -11  -5  26-107.913 123.040   1
  11  -5 -26-22.3900 137.067   5
 -11   5  26-213.134 162.433   1
 -11  -5  25 11115.0 1300.64   2
 -11   5  25 10811.2 1105.43   1
 -11  -5  25 12139.5 981.601   1
  11  -5 -25 12879.5 1287.28   5
 -11  -5  24 151.677 130.357   1
 -11  -5  24-237.665 197.433   2
 -11   5  24 112.912 171.277   1
  11  -5 -24-56.4340 119.044   5
 -11  -5  23-1.31272 39.6175   1
 -11  -5  23-245.903 175.550   2
 -11   5  23 98.4344 113.168   1
  11  -5 -23-103.153 200.512   5
 -11  -5  22 423.238 167.377   1
 -11  -5  22 282.840 208.568   2
 -11   5  22 392.958 240.233   1
  11  -5 -22 523.763 273.252   5
 -11   5  21 16050.9 1251.47   1
 -11  -5  21 16630.7 1519.01   2
 -11  -5  21 16804.8 1009.94   1
 -11  -5  20 366.095 229.932   2
 -11   5  20 14.0226 113.298   1
 -11  -5  20 85.1328 95.8006   1
 -11   5  19 13.1671 45.9288   1
 -11  -5  19 37.7921 26.8070   1
 -11  -5  18 768.493 196.612   1
 -11  -5  18 638.208 300.347   2
 -11   5  18 753.849 258.605   1
 -11   5  17 16104.0 1177.19   1
 -11  -5  17 16770.6 1452.71   2
 -11  -5  17 18389.5 891.252   1
 -11   5  16 694.692 276.029   1
 -11  -5  16 584.348 280.365   2
 -11   5  16 400.153 168.665   3
 -11   5  16 511.222 218.332   6
 -11  -5  16 538.966 147.688   1
 -11  -5  15 5750.45 442.200   1
 -11   5  15 5005.00 649.916   1
 -11  -5  15 5693.18 818.933   2
 -11   5  15 5212.79 687.041   3
 -11   5  15 5225.49 652.792   6
 -11  -5  14-45.5645 55.2260   1
 -11   5  14 79.3098 102.308   1
 -11  -5  14-174.714 170.403   2
 -11   5  14-69.0457 125.207   6
 -11   5  14 112.240 112.626   3
 -11   5  13 25914.1 1411.76   1
 -11  -5  13 24746.2 1712.34   2
 -11   5  13 27026.6 1535.45   3
 -11   5  13 25903.7 1378.21   6
 -11  -5  13 24564.8 796.837   1
 -11  -5  12 438.491 98.2728   1
 -11   5  12 359.833 174.152   1
  11  -5 -12 201.786 51.0510   2
 -11   5  12 315.372 140.188   6
  11  -5 -12 222.759 50.0823   2
 -11   5  12 311.667 206.469   3
 -11  -5  12 411.926 206.855   2
  11  -5 -11 80.1367 47.6078   2
 -11   5  11 78.9393 40.3350   3
 -11   5  11 132.083 95.1042   6
 -11  -5  11 59.2804 27.2795   1
 -11   5  11 59.2731 90.4378   1
  11   5 -10 97.0254 102.188   3
 -11  -5  10 141.093 103.676   2
  11  -5 -10 88.8382 63.6619   2
 -11   5  10 78.2741 64.1130   3
 -11   5  10 42.0284 97.9305   6
  11   5  -9 19611.3 1231.63   3
 -11  -5   9 18901.8 1459.51   2
 -11   5   9 18808.5 1121.00   6
 -11   5   9 19023.6 1268.16   3
  11  -5  -9 19082.8 915.686   2
  11   5  -8 55.9105 212.281   3
 -11   5   8-41.0899 34.0170   7
 -11   5   8-27.0314 72.2859   3
 -11   5   8 134.931 137.983   6
  11  -5  -8 26.2125 53.1754   2
 -11  -5   8 73.4023 91.1207   2
 -11  -5   7 18653.7 1433.26   2
  11   5  -7 19733.4 1183.65   3
 -11   5   7 19755.9 1282.58   3
  11  -5  -7 20008.0 1058.05   2
 -11   5   7 18638.2 1116.67   6
 -11   5   7 17814.9 659.351   7
  11   5  -6 88.1227 118.660   3
 -11  -5   6-57.8285 87.2355   2
 -11   5   6 75.3894 50.0073   7
 -11   5   6-180.668 115.424   6
 -11   5   6 175.006 126.924   3
  11   5  -5 17175.8 1051.35   3
  11  -5  -5 15499.3 904.226   7
 -11   5   5 14542.2 1115.05   3
 -11   5   5 15236.0 714.434   7
 -11   5   5 15864.4 1033.32   6
 -11  -5   5 14691.0 484.711   6
 -11  -5   5 15326.7 1295.91   2
 -11   5   4 70.6056 102.173   3
  11   5  -4 212.543 127.193   3
 -11  -5   4-130.826 65.0849   2
  11  -5  -4-34.4510 103.564   7
 -11   5   4 80.5457 60.1647   7
  11   5  -3 1696.46 314.663   3
 -11  -5   3 1624.68 425.259   2
  11  -5  -3 1754.22 323.221   7
 -11   5   3 1721.95 268.304   7
 -11   5   3 1463.10 347.799   3
  11   5  -2 231.211 132.377   3
 -11  -5   2 218.450 158.664   2
  11  -5  -2 113.750 110.120   7
 -11   5   2 216.009 148.464   3
  11   5  -1 9973.12 734.663   3
  11  -5  -1 10774.0 857.855   7
 -11   5   1 9590.39 930.824   3
 -11  -5   1 10098.3 1059.95   2
  11   5   0 37.2120 40.2034   3
 -11  -5   0 207.017 138.625   2
 -11   5   0 76.4625 102.702   3
  11  -5   0 57.6006 115.032   7
  11   5   1 14178.0 813.893   3
 -11   5  -1 13734.7 1104.31   3
  11  -5   1 14154.2 1027.20   7
 -11  -5  -1 13595.2 1232.63   2
  11   5   2-27.7886 57.7091   3
  11  -5   2 29.8667 89.1529   7
 -11   5  -2-21.7670 103.268   3
 -11  -5  -2-67.6387 54.8399   3
  11  -5   2 156.285 151.783   5
 -11  -5  -2 65.4161 67.1289   2
  11   5   3 5692.48 481.935   3
  11  -5   3 5449.83 665.503   7
 -11   5  -3 5428.95 711.700   3
 -11  -5  -3 5346.79 464.349   3
 -11  -5  -3 5705.11 798.124   2
  11  -5   3 5596.78 762.511   5
  11  -5   4 107.391 116.673   7
 -11  -5  -4 28.7486 51.1570   3
  11   5   4 23.1650 20.4041   1
  11  -5   4-13.7771 101.240   5
 -11  -5  -4-3.47867 108.392   2
 -11   5  -4-72.1654 118.715   3
 -11   5  -5 10711.3 1017.62   3
  11  -5   5 11865.8 1016.80   7
  11   5   5 10779.5 441.647   1
 -11  -5  -5 11063.1 1080.11   2
  11  -5   5 12472.4 1124.96   5
 -11   5  -6 460.213 206.671   3
  11  -5   6 429.222 203.668   7
  11   5   6 448.340 104.662   1
  11  -5   6 395.994 225.311   5
 -11  -5  -6 435.862 230.483   2
 -11   5  -7 2243.95 463.475   3
  11  -5   7 2194.38 464.843   5
  11   5   7 2448.54 270.816   1
 -11  -5  -7 2592.00 510.509   2
  11  -5   7 2116.37 458.895   7
 -11   5  -8-147.812 169.744   3
  11  -5   8 25.1188 82.0197   7
  11   5   8 11.1376 23.8133   1
 -11  -5  -8 39.2223 75.0007   2
  11  -5   8 183.338 99.3399   5
  11   5   9 41386.1 1294.41   1
 -11   5  -9 41723.1 2071.34   3
  11  -5   9 41793.9 2070.27   7
 -11  -5  -9 40139.1 2035.73   2
  11  -5   9 40884.6 2034.63   5
 -11   5 -10 335.563 186.843   3
 -11  -5 -10-25.3494 108.710   2
  11  -5  10-95.3613 165.593   5
  11   5  10 191.819 78.8825   1
  11  -5  10 337.720 165.200   7
  11   5  11 738.396 189.621   1
  11  -5  11 588.718 260.222   7
 -11   5 -11 128.740 137.341   3
  11   5  11 876.281 281.053   7
 -11  -5 -11 432.437 204.906   2
  11  -5  11 336.040 175.309   5
  11  -5  12 197.144 137.733   7
 -11   5 -12 132.585 146.443   3
  11   5  12 111.498 92.9516   7
  11   5  12 393.177 141.517   1
 -11  -5 -12 334.383 185.998   2
  11  -5  12 276.134 145.567   5
 -11   5 -13 6781.68 858.609   3
  11  -5  13 6810.90 895.856   7
  11   5  13 6943.84 632.486   1
  11   5  13 7783.22 825.692   7
  11  -5  13 6889.16 825.747   5
 -11   5 -14-13.3742 114.878   3
  11  -5  14 57.2301 85.1322   7
  11   5  14-1.23463 57.6977   7
  11   5  14 136.147 82.2819   1
  11  -5  14 20.4960 64.3142   5
 -11   5 -15 680.153 295.603   3
  11  -5  15 368.180 174.473   7
  11   5  15 218.568 96.8600   7
  11   5  15 554.202 189.550   1
  11  -5  15 338.651 225.131   5
 -11   5 -16 227.859 191.811   3
  11  -5  16 66.8479 155.568   7
  11   5  16-44.9208 69.6868   7
  11  -5  16-23.6859 56.8475   5
  11   5  16-37.7964 55.7595   1
 -11   5 -17 16434.9 1414.25   3
  11  -5  17 17033.8 1529.33   7
  11   5  17 16964.4 1273.30   7
  11   5  17 16932.5 1133.87   1
  11  -5  17 16111.3 1229.34   5
 -11   5 -18-53.4993 107.925   3
  11  -5  18 297.236 258.032   7
  11   5  18 87.1683 97.2624   7
  11   5  18 115.502 117.469   1
 -11   5 -19 356.060 194.290   3
  11  -5  19 693.707 322.528   7
  11   5  19 475.841 237.098   7
  11   5  19 341.012 168.252   1
 -11   5 -20-211.063 169.598   3
  11  -5  20 44.5973 100.022   7
  11   5  20-148.930 135.499   7
  11   5  20 34.2556 70.6537   1
 -11   5 -21 6591.62 942.040   3
  11  -5  21 7419.32 1086.27   7
  11   5  21 6546.27 851.260   7
 -11   5 -22 247.015 254.928   3
  11   5  22-69.5000 114.643   7
 -11   5 -23 755.164 315.874   3
  11   5  23 926.690 312.119   7
  11  -5  23 1444.96 501.602   7
  11  -5  24 56.5104 178.354   7
  11   5  24-215.171 160.770   7
 -11   5 -25 12395.9 1354.94   3
 -11   7  30-87.3914 73.0081   1
 -11   7  29 4594.56 810.041   1
 -11   7  28-175.529 158.033   1
 -11  -7  28 16.3693 99.8104   2
 -11   7  27 1399.17 409.795   1
 -11   7  27 1438.21 425.718   3
 -11  -7  27 2082.02 678.057   2
 -11   7  26-20.7210 154.171   1
 -11   7  26-18.3203 57.3926   3
 -11  -7  26 20.5209 204.834   2
  11  -7 -26-108.763 49.8546   5
 -11   7  25 14835.0 1376.79   1
 -11  -7  25 13992.0 1700.82   2
 -11   7  25 14934.2 1393.51   3
  11  -7 -25 14753.4 1609.11   5
 -11   7  24-53.0650 104.542   1
 -11   7  24 34.9724 78.5665   3
 -11  -7  24 256.228 266.241   2
  11  -7 -24 85.4853 217.117   5
 -11   7  23 105.016 40.5869   1
 -11  -7  23-31.1253 181.660   2
 -11   7  23-49.1374 45.5843   3
 -11  -7  22 517.399 333.391   2
 -11   7  22 249.679 160.892   3
 -11   7  22 251.167 167.830   1
  11  -7 -22 246.121 217.587   5
 -11   7  21 14914.0 1301.33   1
 -11  -7  21 14655.9 1673.92   2
 -11   7  21 14815.1 1348.99   3
 -11   7  21 15611.1 1231.47   6
  11  -7 -21 15772.1 1639.99   5
 -11  -7  20-243.821 291.855   2
 -11   7  20-47.9253 62.5365   1
 -11   7  20 153.088 89.7852   3
 -11   7  20 9.29336 109.792   6
  11  -7 -20-93.1622 200.193   5
 -11   7  19 156.363 142.666   1
 -11   7  19 139.361 142.229   3
 -11   7  19 170.341 143.726   6
 -11  -7  19-108.291 224.701   2
  11  -7 -19 146.979 125.408   5
 -11   7  18 272.991 166.804   1
 -11  -7  18-320.220 272.926   2
 -11   7  18 321.646 198.704   3
 -11   7  18 148.395 92.3282   6
  11  -7 -18 418.581 313.654   5
 -11  -7  17 12519.6 1485.03   2
 -11   7  17 14493.8 1119.77   6
 -11   7  17 12034.4 1190.37   3
  11  -7 -17 13795.0 1510.23   5
 -11   7  17 12370.6 1142.23   1
 -11  -7  16 913.892 419.949   2
 -11   7  16 1030.19 354.466   3
 -11   7  16 1069.66 305.847   6
  11  -7 -16 1091.82 421.329   5
  11   7 -15 4449.11 738.182   3
 -11   7  15 4940.71 762.809   3
 -11  -7  15 4279.04 841.471   2
 -11   7  15 5218.76 659.210   6
  11  -7 -15 4998.07 884.180   5
  11   7 -14 138.493 142.581   3
 -11  -7  14-82.5087 69.5649   2
 -11   7  14 225.107 178.910   3
 -11   7  14-85.3294 117.297   6
  11  -7 -14-48.0292 112.430   5
  11   7 -13 11264.0 1143.01   3
 -11  -7  13 10455.1 1321.03   2
 -11   7  13 11297.7 1135.54   3
 -11   7  13 12273.3 993.730   6
  11  -7 -13 10878.5 1296.27   5
  11   7 -12-25.9766 46.6804   3
 -11   7  12-365.582 206.068   3
 -11   7  12-83.0327 113.515   6
  11  -7 -12 93.9384 165.198   5
 -11  -7  12 186.964 228.050   2
  11   7 -11 46.8444 70.2675   3
 -11   7  11 30.2723 50.4621   3
 -11   7  11 84.8870 85.6120   6
  11  -7 -11 91.0788 139.211   5
 -11  -7  11-6.80629 59.0353   2
 -11   7  10 34.0383 79.0533   3
  11   7 -10-139.284 107.296   3
  11  -7 -10-59.6384 111.990   5
  11   7  -9 11914.3 1119.37   3
 -11  -7   9 12245.9 1382.99   2
  11  -7  -9 9774.87 813.213   2
 -11   7   9 12625.9 1199.09   3
  11  -7  -9 12457.5 1372.43   5
  11   7  -8 144.246 120.489   3
 -11  -7   8-138.465 194.990   2
 -11   7   8-60.3891 117.429   3
  11  -7  -8 29.2248 67.7089   2
  11  -7  -8 304.055 260.998   5
  11   7  -7 6102.31 770.778   3
  11  -7  -7 6849.26 762.132   2
 -11   7   7 6454.97 864.849   3
  11  -7  -7 6962.72 1016.04   5
 -11  -7   7 6493.15 1003.67   2
  11   7  -6 141.252 136.703   3
 -11  -7   6 250.819 241.691   2
 -11   7   6-246.436 231.222   3
  11  -7  -6 5.71052 70.8257   2
  11  -7  -6-85.7653 179.217   5
  11   7  -5 12523.5 1075.15   3
 -11   7   5 11797.9 1177.74   3
  11  -7  -5 10771.6 1251.65   5
 -11  -7   5 10550.1 1291.13   2
  11  -7  -5 11177.3 1058.03   2
  11   7  -4 89.8749 155.618   3
 -11  -7   4-49.9814 185.910   2
 -11   7   4-156.818 168.771   3
  11  -7  -4 110.438 169.973   2
  11  -7  -4 36.6030 115.690   5
  11   7  -3 4789.72 640.329   3
 -11  -7   3 3028.73 688.491   2
 -11   7   3 4888.80 756.474   3
  11  -7  -3 4337.65 698.417   2
  11  -7  -3 4185.31 781.358   5
  11   7  -2 94.8360 101.675   3
 -11  -7   2-49.9875 110.267   2
 -11   7   2-150.006 177.803   3
  11  -7  -2 265.045 226.609   5
  11  -7  -2 239.023 138.861   2
  11   7  -1 9094.90 855.048   3
 -11   7   1 8415.41 1017.71   3
  11  -7  -1 8041.58 1003.95   2
  11  -7  -1 8539.17 1119.98   5
 -11  -7   1 7282.00 1061.47   2
 -11  -7   0 20.2956 109.906   2
 -11   7   0 6.37178 84.3158   3
  11  -7   0-23.4393 63.4311   5
  11  -7   0-32.0329 80.8439   2
  11   7   1 17535.2 1134.42   3
 -11   7  -1 16565.0 1449.25   3
  11  -7   1 17872.6 1608.02   5
 -11  -7  -1 17494.9 1646.10   2
  11  -7   1 20264.1 1626.37   2
 -11  -7  -2 200.332 159.592   2
  11   7   2 13.6282 60.2334   3
  11  -7   2-74.8527 51.2770   7
 -11   7  -2 50.2513 113.831   3
  11  -7   2 66.1848 157.041   5
  11   7   3 4705.68 556.842   3
  11  -7   3 4880.59 777.396   7
 -11   7  -3 3878.81 717.170   3
  11  -7   3 3638.55 712.516   5
 -11  -7  -3 3557.43 736.043   2
  11   7   4 53.4098 56.0144   3
  11  -7   4 90.5574 210.567   7
 -11   7  -4 120.731 270.127   3
  11  -7   4 113.453 164.878   5
 -11  -7  -4-107.660 125.450   2
 -11   7  -5 5331.75 855.673   3
  11  -7   5 5530.45 849.917   7
  11  -7   5 5250.11 882.350   5
 -11  -7  -5 5677.11 907.409   2
  11  -7   6 92.7526 137.147   7
 -11   7  -6-90.4561 112.389   3
  11  -7   6 122.505 134.926   5
 -11  -7  -6-38.0210 110.305   2
  11  -7   7 2225.22 545.113   7
 -11   7  -7 2515.52 607.063   3
  11  -7   7 1608.48 489.527   5
 -11  -7  -7 2266.79 568.212   2
  11  -7   8 285.550 209.530   7
 -11   7  -8 92.2495 77.0070   3
  11  -7   8 319.251 225.122   5
 -11  -7  -8 5.10601 131.261   2
 -11   7  -9 17486.6 1563.26   3
  11  -7   9 17517.1 1593.79   7
 -11  -7  -9 18585.2 1579.94   2
  11  -7   9 17860.8 1611.77   5
 -11   7 -10-36.8021 108.895   3
  11  -7  10-149.511 195.373   5
 -11  -7 -10 6.81445 52.5331   2
  11  -7  10 56.8797 118.092   7
  11  -7  11-4.23061 126.964   7
 -11   7 -11 415.483 266.439   3
  11  -7  11-6.04016 105.605   5
 -11  -7 -11 290.822 208.178   2
 -11   7 -12 88.1815 142.471   3
  11  -7  12 215.513 162.284   7
 -11  -7 -12 287.048 181.050   2
  11  -7  12 328.840 174.391   5
 -11   7 -13 6706.58 1017.63   3
  11  -7  13 6735.44 1032.99   7
 -11  -7 -13 7386.22 962.813   2
  11  -7  13 7486.23 1037.94   5
  11   7  13 7573.70 876.069   7
 -11   7 -14 314.791 219.212   3
  11  -7  14-166.603 195.730   7
  11   7  14 185.870 148.323   7
 -11  -7 -14-249.244 178.844   2
  11  -7  14-12.7949 147.202   5
 -11   7 -15 347.807 239.603   3
  11  -7  15-99.0711 196.419   7
  11   7  15 215.405 129.517   7
  11  -7  15 84.5072 83.5867   5
  11   7  16 175.731 147.839   7
 -11   7 -16 230.989 176.019   3
  11  -7  16 122.991 129.338   7
  11  -7  16 73.8924 67.7379   5
 -11   7 -17 15862.8 1617.79   3
  11  -7  17 17537.1 1777.29   7
 -11   7 -18 78.3951 73.3126   3
  11  -7  18 11.1460 114.032   7
 -11   7 -19-203.506 131.969   3
  11  -7  19-90.0190 145.979   7
 -11   7 -20 74.2769 80.4417   3
 -11   9  22 143.774 122.165   3
 -11   9  21 9031.18 1179.54   3
  11  -9 -21 8615.33 1400.30   5
 -11   9  20-50.8103 112.962   3
  11  -9 -20 325.827 274.730   5
 -11   9  19 288.387 217.453   3
  11  -9 -19 542.785 366.191   5
 -11   9  18 383.298 262.550   3
  11  -9 -18 554.466 377.191   5
 -11  -9  17 9442.46 1521.21   2
 -11   9  17 11317.0 1323.72   3
  11  -9 -17 10220.3 1506.60   5
 -11  -9  16 345.602 391.311   2
 -11   9  16 521.373 268.296   3
  11  -9 -16 550.204 384.984   5
  11   9 -15 1870.23 545.207   3
 -11  -9  15 1919.67 684.319   2
  11  -9 -15 2881.34 792.658   5
 -11   9  15 1689.74 508.708   3
  11   9 -14 336.332 203.204   3
 -11  -9  14 256.618 302.887   2
 -11   9  14 9.19588 135.195   3
  11  -9 -14 94.0918 167.781   5
  11   9 -13 7709.04 1091.87   3
 -11  -9  13 7927.15 1338.62   2
 -11   9  13 7654.46 1084.46   3
  11  -9 -13 9346.61 1406.57   5
  11   9 -12-152.883 151.015   3
 -11   9  12-10.6784 150.649   3
 -11  -9  12-92.2984 188.962   2
  11  -9 -12-52.0224 208.521   5
  11   9 -11 230.917 128.140   3
 -11  -9  11-22.9308 154.066   2
 -11   9  11 245.332 194.743   3
  11  -9 -11-110.895 194.282   5
  11   9 -10-63.8073 138.869   3
 -11  -9  10-140.009 214.440   2
  11  -9 -10 307.609 295.439   5
 -11   9  10-45.9005 139.693   3
  11   9  -9 8167.83 1062.50   3
  11  -9  -9 9315.91 1384.27   5
 -11   9   9 8669.87 1157.84   3
 -11  -9   9 8834.02 1397.99   2
  11   9  -8-194.862 139.034   3
 -11  -9   8-52.2568 138.048   2
 -11   9   8 390.783 265.937   3
  11  -9  -8 519.102 382.725   5
  11   9  -7 5341.97 826.504   3
 -11   9   7 6377.73 995.154   3
 -11  -9   7 5889.97 1128.03   2
  11  -9  -7 5996.73 1095.24   5
  11   9  -6 241.438 174.677   3
 -11  -9   6 160.486 148.527   2
  11  -9  -6 74.0223 262.694   5
 -11   9   6 226.825 237.838   3
  11   9  -5 6522.17 897.972   3
 -11   9   5 8684.83 1177.56   3
  11  -9  -5 7705.34 1248.77   5
 -11  -9   5 7508.81 1273.62   2
  11   9  -4 198.103 154.447   3
 -11  -9   4-141.965 209.173   2
 -11   9   4 20.2890 144.612   3
  11  -9  -4-160.573 186.890   5
  11   9  -3 2450.19 530.194   3
 -11   9   3 2396.51 630.712   3
 -11  -9   3 1252.50 487.328   2
  11  -9  -3 2106.47 661.829   5
  11   9  -2 190.472 168.057   3
 -11  -9   2 311.198 295.755   2
 -11   9   2 126.668 147.113   3
  11  -9  -2 355.680 311.725   5
 -11  -9   1 5023.20 1046.53   2
 -11   9   1 6472.49 1031.89   3
  11  -9  -1 6036.32 1083.12   5
 -11  -9   0 94.1438 97.7338   2
 -11   9   0 296.985 286.907   3
  11  -9   0 178.951 69.7954   5
 -11   9  -1 8934.46 1221.41   3
  11  -9   1 8411.34 1244.35   2
  11  -9   1 9593.72 1374.74   5
 -11  -9  -1 9733.24 1426.80   2
 -11   9  -2 436.336 336.402   3
  11  -9   2 356.264 260.855   2
  11  -9   2 426.189 321.425   5
 -11  -9  -2-4.70446 53.2434   2
 -11   9  -3 2253.57 613.710   3
  11  -9   3 1598.12 566.161   2
  11  -9   3 2712.87 715.615   5
 -11  -9  -3 2502.16 703.462   2
 -11   9  -4-99.5647 69.4167   3
  11  -9   4 181.914 253.473   5
  11  -9   4-93.9469 140.806   2
 -11  -9  -4 146.189 158.169   2
 -11   9  -5 5667.39 990.384   3
 -11  -9  -5 5938.64 1043.43   2
  11  -9   5 5494.54 1054.75   5
  11  -9   5 4719.20 981.205   2
  11  -9   6-38.7673 81.5287   5
  11  -9   6-203.201 207.781   2
 -11   9  -6 176.278 226.916   3
 -11  -9  -6-198.525 189.867   2
 -11   9  -7 2239.85 641.604   3
  11  -9   7 2039.72 612.554   5
  11  -9   7 1535.31 563.962   2
 -11  -9  -7 2118.25 624.233   2
 -11  -9  -8 1222.39 498.298   2
  11  -9   8 61.2132 199.818   5
  11  -9   8 976.782 537.926   2
  11  -9   9 11048.5 1570.30   2
 -11  -9  -9 13428.2 1500.47   2
  11  -9   9 12690.2 1576.48   5
  11  -9  10-193.191 201.859   5
  11  -9  10-330.625 272.985   2
  11  -9  11-63.0282 113.508   5
  11  -9  11 163.643 81.7912   2
  11  -9  12 268.524 327.739   5
 -12   0  38 12528.0 1396.32   1
 -12   0  37 246.221 237.506   1
 -12   0  36 3065.79 666.099   1
 -12   0  35-22.5710 70.6173   1
 -12   0  34 7293.39 984.599   1
 -12   0  33 104.254 157.751   1
 -12   0  32 8061.62 997.395   1
 -12   0  31 151.001 166.385   1
 -12   0  31-66.3988 48.8759   2
 -12   0  30 11696.5 1147.73   1
 -12   0  30 11461.0 959.323   2
  12   0 -30 12332.1 1030.24   4
 -12   0  29-84.4480 115.038   1
 -12   0  29 14.1339 64.2967   2
  12   0 -29-0.80495 48.7943   4
 -12   0  28-31.3232 59.7679   1
 -12   0  28 219.175 137.415   2
  12   0 -28 167.958 170.040   4
 -12   0  27 20.8440 122.704   1
 -12   0  27 1.99466 114.333   2
  12   0 -27 36.9178 89.1180   4
 -12   0  26 14640.2 996.887   2
 -12   0  26 13856.8 1131.41   1
 -12   0  25 84.6115 169.267   1
 -12   0  25-45.2135 31.6618   2
 -12   0  24 2264.19 431.359   1
 -12   0  24 2714.57 411.674   2
 -12   0  23 192.398 183.167   1
 -12   0  23-44.2634 72.9200   2
 -12   0  22 10581.2 778.328   2
 -12   0  22 10063.9 869.573   1
 -12   0  21 35.8638 110.655   1
 -12   0  21-33.4024 83.6699   2
 -12   0  20 479.313 157.266   2
 -12   0  20 769.102 246.137   1
 -12   0  19-25.8411 56.2297   2
 -12   0  19-55.1597 40.2293   1
 -12   0  18 18035.4 940.989   2
  12   0 -18 15540.0 907.137   7
 -12   0  18 17210.9 1039.71   1
  12   0 -17-21.2499 70.0901   7
 -12   0  17 11.9066 23.6211   2
 -12   0  17 37.0744 47.3603   1
 -12   0  16 1731.34 283.628   2
 -12   0  16 2099.56 343.490   1
  12   0 -16 1959.06 308.577   7
  12   0 -15-20.9472 77.0218   7
 -12   0  15 7.38800 37.7414   2
 -12   0  15-63.8805 62.1623   1
  12   0 -14 56120.0 1632.87   7
 -12   0  14 52018.8 1644.38   1
  12   0 -14 58940.1 1617.15   2
 -12   0  14 53302.1 1498.78   2
 -12   0  13-39.2690 77.8023   1
 -12   0  13 6.02712 28.8255   2
  12   0 -13-0.83107 45.6323   2
  12   0 -12 11948.7 732.785   2
 -12   0  12 11420.8 721.158   1
 -12   0  12 11308.1 687.366   2
 -12   0  11-2.92348 95.4117   2
  12   0 -11 0.85178 31.8658   1
  12   0 -11 33.9428 49.6756   2
 -12   0  11 45.6105 57.2173   1
 -12   0  10 60044.4 1593.71   1
  12   0 -10 66354.1 1703.04   2
 -12   0  10 61163.7 1613.93   2
  12   0 -10 66450.6 1706.14   1
  12   0  -9 24.0147 18.7090   2
 -12   0   9 53.4153 65.9479   1
 -12   0   9-33.7318 49.6904   2
  12   0  -8 355.223 117.142   1
  12   0  -8 237.054 87.8708   2
 -12   0   8 129.585 76.3475   1
 -12   0   8 286.627 112.676   2
  12   0  -7 3.54795 31.5149   1
 -12   0   7 30.2732 40.3473   1
  12   0  -7 14.8347 39.6973   2
 -12   0   7-36.8962 72.3698   2
  12   0  -6 17158.1 790.120   1
 -12   0   6 16655.9 865.571   2
  12   0  -6 16338.6 867.449   2
  12   0  -5 17.6529 21.3962   2
  12   0  -5-37.2564 58.3355   1
 -12   0   5-77.3902 105.974   6
 -12   0   5-37.5175 68.3487   2
 -12   0   4 13454.4 794.443   2
  12   0  -4 14967.9 727.190   1
 -12   0   4 13046.4 741.266   6
  12   0  -4 14100.1 835.488   2
  12   0  -3-5.17966 60.2363   2
  12   0  -3-14.3418 42.7513   1
 -12   0   3-13.3306 42.8444   6
 -12   0   3-6.44945 51.2346   2
 -12   0   2 20169.0 922.613   6
 -12   0   2 19910.2 984.061   2
  12   0  -2 21894.9 900.375   1
 -12   0   1-140.578 110.376   6
  12   0  -1-17.7037 29.1165   6
 -12   0   1-20.1302 68.9443   2
 -12   0   0 15754.5 830.542   6
  12   0   0 17946.5 877.190   6
  12   0   0 16364.3 857.603   7
  12   0   1-68.7904 79.0648   7
  12   0   1-43.7163 29.5263   6
  12   0   2 18136.2 939.814   7
  12   0   2 19333.1 947.191   6
 -12   0  -2 18557.7 707.970   3
  12   0   3 66.9913 81.8101   7
 -12   0  -3-0.74369 25.3280   3
  12   0   4 41447.6 1486.93   7
 -12   0  -4 39852.4 1022.46   3
 -12   0  -5-65.1489 62.7174   3
  12   0   5-79.5695 80.2038   7
 -12   0  -6 6243.85 404.134   3
  12   0   6 5986.02 587.977   7
 -12   0  -7-34.6845 46.4801   3
  12   0   7-96.0392 116.197   7
 -12   0  -8 3476.76 300.425   3
  12   0   8 3224.91 459.482   7
  12   0   9 72.9517 119.674   7
 -12   0  -9-34.3649 37.2622   3
  12   0   9-17.5825 71.6840   4
 -12   0 -10 7580.71 444.042   3
  12   0  10 7968.52 758.092   7
  12   0  10 7712.17 578.871   4
 -12   0 -11 0.49701 15.2106   3
  12   0  11 26.0569 43.3377   4
 -12   0 -12 37631.4 1021.15   3
  12   0  12 38499.4 1731.35   7
  12   0  12 39680.7 1213.72   4
 -12   0 -13 17.2431 32.7953   3
  12   0  13-5.05721 31.3321   4
  12   0  14 1571.14 360.891   7
  12   0  15 39.1552 57.5421   7
  12   0  16 14997.6 1180.40   7
  12   0  17 49.7606 164.155   7
  12   0  18 646.373 279.545   7
  12   0  19-14.4892 88.1012   7
  12   0  20 14884.0 1294.89   7
  12   0  21-8.16749 80.4370   7
  12   0  22 374.728 209.433   7
  12   0  23-98.8620 196.412   7
  12   0  24 5160.26 820.881   7
  12   0  25-169.115 189.450   7
  12   0  26 1554.56 464.941   7
  12   0  27-395.250 279.828   7
  12   0  28 29547.6 2143.61   7
  12   0  29 226.670 258.441   7
 -12  -2  38 4780.81 854.362   1
 -12  -2  37 126.845 93.4756   1
 -12   2  37-114.997 180.332   1
 -12  -2  36 1480.04 457.582   2
 -12   2  36 1183.37 421.479   1
 -12  -2  36 2209.72 568.872   1
 -12  -2  35 19.9235 63.9983   2
 -12   2  35 166.063 146.137   1
 -12  -2  35 8.22052 148.692   1
 -12  -2  34 4666.36 801.168   2
 -12   2  34 5783.58 894.625   1
 -12  -2  34 5503.96 843.392   1
 -12  -2  33 169.648 212.246   2
 -12   2  33-6.88780 64.1899   1
 -12  -2  33 136.977 187.937   1
 -12  -2  32 7667.52 983.140   2
 -12  -2  32 7305.80 930.238   1
 -12   2  32 7614.94 1000.29   1
 -12  -2  31-55.7344 123.625   1
 -12  -2  31-228.419 160.763   2
 -12   2  31 155.426 177.797   1
 -12  -2  30 12588.0 1174.35   1
 -12   2  30 13629.0 1282.50   1
 -12  -2  30 13849.9 1278.84   2
 -12  -2  29-9.66850 115.596   1
 -12  -2  29 66.9124 138.079   2
 -12   2  29 38.8966 68.5382   1
 -12  -2  28 87.0091 155.971   1
 -12  -2  28 126.592 196.136   2
 -12   2  28-14.8561 127.056   1
 -12  -2  27 105.039 82.5160   1
 -12  -2  27 57.3688 149.852   2
 -12   2  27-35.9179 85.2229   1
 -12  -2  26 9859.91 934.633   1
 -12  -2  26 10122.6 1020.30   2
 -12   2  26 10307.0 1016.84   1
  12  -2 -26 10998.9 1041.62   4
 -12  -2  25 46.0894 78.3144   1
 -12   2  25 262.755 168.917   1
 -12  -2  25 26.0169 135.133   2
  12  -2 -25 204.576 164.951   4
 -12  -2  24 3558.32 571.662   2
 -12  -2  24 3172.82 501.040   1
 -12   2  24 3393.12 560.865   1
 -12   2  24 1513.97 129.882   2
  12  -2 -24 3390.91 568.401   4
 -12   2  23 62.3947 126.474   1
  12  -2 -23 109.664 61.5206   7
 -12  -2  23 199.760 142.492   2
  12  -2 -23 179.001 102.373   4
 -12  -2  23 245.785 156.073   1
 -12  -2  22 14553.5 1017.48   1
 -12  -2  22 16495.4 1209.44   2
  12  -2 -22 14278.2 622.601   7
 -12   2  22 15686.2 1156.10   1
  12  -2 -22 14966.8 1180.93   4
  12  -2 -21 29.4131 17.8679   7
 -12   2  21-70.5666 47.1421   1
 -12  -2  21-23.7857 88.0966   2
 -12  -2  21 281.911 183.614   1
  12  -2 -21 163.625 122.329   4
 -12   2  20 1152.60 274.388   1
  12  -2 -20 1060.57 151.102   7
 -12  -2  20 1147.25 304.821   2
 -12  -2  20 1124.73 257.316   1
  12  -2 -20 1160.70 323.303   4
 -12   2  19-41.3939 91.8894   1
 -12  -2  19 61.5982 100.095   1
 -12  -2  19 29.7792 84.0667   2
  12  -2 -19 80.0302 48.3846   7
 -12  -2  18 35614.8 1667.18   2
 -12   2  18 36158.0 1608.94   1
  12  -2 -18 32038.7 740.647   7
  12  -2 -18 34441.4 1740.09   4
 -12  -2  18 33982.2 1370.50   1
 -12   2  17 202.642 98.8415   1
 -12  -2  17 329.509 102.487   1
  12  -2 -17 222.704 57.7669   7
 -12  -2  17 233.962 113.000   2
  12  -2 -17 327.936 225.982   4
 -12  -2  16 1274.57 249.389   1
  12  -2 -16 1223.39 132.992   7
 -12  -2  16 1625.04 355.515   2
  12  -2 -16 645.258 245.941   4
 -12   2  16 1199.91 294.028   1
  12  -2 -15 127.828 38.5889   7
 -12  -2  15 246.845 138.269   2
 -12   2  15 117.912 102.082   1
 -12  -2  15 170.262 112.545   1
  12  -2 -15-0.38792 103.117   4
 -12  -2  14 15482.4 1059.69   2
 -12   2  14 15313.5 961.038   1
  12  -2 -14 14375.5 457.686   7
 -12  -2  14 14247.8 783.380   1
  12  -2 -14 15534.4 1122.90   4
  12  -2 -13 57.8292 34.5569   7
 -12  -2  13-73.4755 83.2088   1
 -12   2  13-9.52987 75.0726   1
 -12  -2  13-82.1848 111.249   2
  12  -2 -13 66.3854 104.493   4
 -12  -2  12 4583.47 568.880   2
 -12   2  12 4186.49 491.001   1
  12  -2 -12 3762.86 267.973   2
 -12  -2  12 3852.51 374.414   1
  12  -2 -12 4398.92 601.083   4
  12  -2 -12 3922.38 240.312   7
 -12  -2  11 177.137 96.0062   2
  12  -2 -11 154.548 58.7367   2
 -12   2  11 240.231 131.402   1
  12  -2 -11 212.763 56.6129   7
  12  -2 -11 324.845 190.305   4
 -12  -2  11 201.746 81.6727   1
 -12   2  10 23570.9 1135.08   1
 -12  -2  10 22411.2 845.901   1
  12  -2 -10 23543.0 652.685   7
  12  -2 -10 25695.2 1400.09   4
  12  -2 -10 23806.8 755.553   2
 -12  -2  10 25456.9 1300.28   2
  12  -2  -9 57.9626 49.9038   2
 -12  -2   9-43.9049 40.4012   2
 -12   2   9 17.5903 46.9867   1
  12   2  -9 6.67183 19.8476   1
  12  -2  -9-9.64956 14.1010   7
 -12  -2   9-42.4420 28.7194   1
  12  -2  -9 75.4367 55.9833   4
 -12   2   8 111.508 110.954   1
 -12  -2   8 5.26634 110.493   2
  12   2  -8 41.4747 23.3707   1
  12  -2  -8 128.892 54.2988   7
 -12  -2   8 98.0687 56.9825   1
 -12   2   8-2.77837 110.934   6
  12  -2  -8 86.8699 31.3561   2
  12  -2  -8 10.3485 92.1530   4
 -12  -2   7 264.028 119.089   3
 -12  -2   7 243.779 178.846   2
  12   2  -7 102.134 37.7348   1
  12  -2  -7 74.4283 24.6928   7
 -12   2   7 231.401 115.311   6
  12  -2  -7 131.713 64.5761   2
  12  -2  -7 194.278 205.708   4
 -12  -2   7 141.464 72.0225   1
 -12  -2   6 51199.7 1569.67   3
 -12   2   6 49657.9 1620.04   6
  12  -2  -6 47022.2 1276.24   2
  12   2  -6 48533.6 1097.16   1
 -12  -2   6 47995.0 1800.10   2
  12  -2  -6 49980.2 1895.00   4
  12  -2  -6 49095.6 1166.00   7
 -12  -2   5 17.1552 31.1942   3
 -12  -2   5 53.6557 88.1481   2
  12  -2  -5-23.1050 19.6698   7
  12   2  -5-32.3289 48.1471   1
 -12   2   5 124.391 75.3008   6
  12  -2  -5-37.7249 50.1061   2
  12  -2  -5 187.393 239.489   4
 -12  -2   4 39919.5 1278.25   3
  12   2  -4 40278.2 945.609   1
  12  -2  -4 38031.4 1128.45   7
 -12   2   4 41124.5 1476.10   6
 -12  -2   4 38328.5 1131.25   6
  12  -2  -4 40893.3 1246.98   2
 -12  -2   4 39684.1 1660.36   2
  12  -2  -4 40458.9 1674.15   4
 -12  -2   3 157.426 82.9326   3
  12  -2  -3 120.304 63.4358   7
  12   2  -3 257.235 69.2748   1
 -12   2   3 353.862 156.870   6
 -12  -2   3 157.615 72.6159   6
  12  -2  -3 186.897 74.7182   2
  12  -2  -3 382.834 216.853   4
 -12  -2   3 128.747 89.0714   2
 -12  -2   2 32746.0 1037.17   3
  12   2  -2 34837.5 884.835   1
  12  -2  -2 30651.3 1094.72   7
 -12   2   2 32581.4 1331.31   6
 -12   2   2 33635.9 1285.86   3
 -12  -2   2 30923.3 979.705   6
  12  -2  -2 32857.1 1183.07   2
 -12  -2   2 32294.8 1499.56   2
  12  -2  -2 33167.5 1500.96   4
 -12  -2   1 48.7883 41.4355   3
  12  -2  -1 6.55108 39.5174   7
 -12   2   1 28.1114 73.1552   6
 -12  -2   1-5.02620 30.1897   6
 -12   2   1 79.8542 38.9129   3
 -12  -2   1 49.9693 86.7927   2
  12  -2  -1 72.2368 83.6045   4
  12   2  -1 58.5662 47.1745   1
 -12  -2   0 11646.1 540.201   3
 -12   2   0 12539.5 782.706   3
  12  -2   0 11862.5 721.673   7
 -12  -2   0 12566.5 929.035   2
  12  -2   0 11857.3 868.918   4
 -12  -2  -1-4.95099 17.3023   3
 -12   2  -1-44.5941 61.6252   3
  12  -2   1 1.76165 76.4047   7
 -12  -2  -1 115.591 156.744   2
  12  -2   1 15.5430 85.5590   4
 -12  -2  -2 4422.36 273.888   3
  12  -2   2 4472.31 471.636   7
 -12   2  -2 4258.73 460.887   3
  12   2   2 4643.35 383.105   6
 -12  -2  -2 5255.25 602.662   2
  12  -2   2 4615.27 550.367   4
 -12  -2  -3 588.818 85.9158   3
 -12   2  -3 772.102 196.269   3
  12   2   3 647.850 138.889   6
 -12  -2  -3 858.717 236.310   2
  12  -2   3 704.719 207.908   7
  12  -2   3 642.293 210.664   4
 -12   2  -4 19838.7 1016.32   3
  12  -2   4 20347.8 1069.48   7
  12   2   4 20256.0 864.699   6
 -12  -2  -4 20390.9 1200.48   2
  12  -2   4 20861.0 1140.81   4
  12  -2   5 81.6416 144.568   7
  12   2   5 52.6130 33.7191   6
 -12  -2  -5 19.3465 62.5938   2
 -12   2  -5 29.6471 96.3755   3
  12  -2   5 27.2323 57.4753   4
 -12   2  -6 7039.13 621.391   3
  12  -2   6 7348.89 688.635   7
  12   2   6 7476.45 679.046   7
  12   2   6 7453.93 541.360   6
 -12  -2  -6 8106.78 764.267   2
 -12   2  -7 245.218 114.459   3
  12  -2   7 506.151 181.174   7
  12   2   7 492.222 179.803   7
  12   2   7 213.778 83.7643   6
 -12   2  -8 4408.97 515.436   3
  12  -2   8 4045.75 528.170   7
  12   2   8 4002.10 515.358   7
 -12   2  -9 332.994 156.673   3
  12   2   9 335.717 161.998   7
  12  -2   9-36.3117 105.354   7
 -12   2 -10 8318.76 703.554   3
  12  -2  10 7531.72 763.716   7
  12   2  10 8084.47 755.538   7
 -12   2 -11 71.9060 70.9640   3
  12  -2  11 286.306 185.536   7
  12   2  11 313.574 130.497   7
 -12   2 -12 29257.8 1341.26   3
  12  -2  12 27334.9 1531.22   7
  12   2  12 27817.6 1466.46   7
  12   2  12 26772.0 1088.61   5
 -12   2 -13 139.292 64.5179   3
  12  -2  13 88.8549 147.612   7
  12   2  13 178.243 126.821   7
  12   2  13 33.6769 52.4271   5
 -12   2 -14 127.816 88.1268   3
  12  -2  14 289.863 191.527   7
  12   2  14 123.206 88.7738   7
 -12   2 -15-67.5338 109.621   3
  12  -2  15 47.8028 125.841   7
  12   2  15 198.961 150.052   7
  12  -2  15 38.1742 54.6533   5
 -12   2 -16 11948.4 900.464   3
  12  -2  16 11327.3 1076.10   7
  12   2  16 12628.0 1080.77   7
  12  -2  16 11018.0 675.703   5
 -12   2 -17-145.902 118.325   3
  12   2  17 48.4848 77.9793   7
  12  -2  17 169.650 108.528   7
 -12   2 -18 570.786 209.883   3
  12  -2  18 221.120 97.7787   7
  12   2  18 553.115 232.570   7
 -12   2 -19-120.755 97.5408   3
  12  -2  19 278.713 196.733   7
  12   2  19 89.3035 139.195   7
 -12   2 -20 28082.7 1469.24   3
  12   2  20 27523.6 1714.42   7
  12  -2  20 29435.4 1927.80   7
  12  -2  21-231.867 222.074   7
  12   2  21-1.03724 117.871   7
  12  -2  22 90.2327 197.176   7
  12   2  22 154.570 168.574   7
  12  -2  23 201.082 132.806   7
  12   2  23-135.475 134.186   7
  12  -2  24 5447.91 894.978   7
  12   2  24 7646.28 985.363   7
  12   2  25 69.3686 45.1067   7
  12  -2  25-116.710 120.622   7
  12  -2  26 1762.23 506.631   7
  12   2  26 1612.13 451.194   7
  12  -2  27-23.7122 91.4783   7
  12   2  27-52.2885 76.0931   7
  12  -2  28 12954.3 1487.31   7
  12   2  28 11402.0 1297.59   7
  12   2  29-154.207 153.970   7
  12   2  30 1684.64 525.372   7
 -12  -4  38 4106.05 891.924   2
 -12  -4  37-15.0419 193.193   2
 -12  -4  37-140.985 143.850   1
 -12  -4  36 1120.35 384.253   1
 -12  -4  36 766.697 365.786   2
 -12  -4  35 36.1676 62.9868   1
 -12   4  35-107.445 163.880   1
 -12  -4  35-5.87913 116.403   2
 -12  -4  34 6175.18 1053.57   2
 -12   4  34 5650.68 919.042   1
 -12  -4  34 6413.59 916.696   1
 -12   4  33 185.969 142.090   1
 -12  -4  33 85.7373 137.034   1
 -12  -4  32 5870.84 982.998   2
 -12   4  32 6691.37 960.960   1
 -12  -4  32 6293.28 858.278   1
 -12   4  31 68.6132 95.1936   1
 -12  -4  31-40.5421 59.7798   1
 -12  -4  31-35.9202 144.557   2
 -12  -4  30 9922.43 1245.57   2
 -12   4  30 10920.7 1189.22   1
 -12  -4  30 10071.9 1022.78   1
 -12   4  29 7.52408 104.219   1
 -12  -4  29-15.9360 68.5883   1
 -12  -4  29 64.7430 195.083   2
 -12   4  28-31.8621 49.9797   1
 -12  -4  28 322.696 190.404   1
 -12  -4  28-45.7168 189.031   2
 -12   4  27 163.232 82.7089   1
 -12  -4  27 210.515 127.588   1
 -12   4  26 9865.22 1048.39   1
 -12  -4  26 9696.80 909.262   1
 -12  -4  26 9377.25 1124.18   2
 -12   4  25 133.979 156.136   1
 -12  -4  25 146.114 122.896   1
 -12  -4  25-82.0960 158.223   2
 -12   4  24 3530.91 616.436   1
 -12  -4  24 3962.92 550.480   1
 -12  -4  24 3556.34 669.955   2
 -12  -4  23 162.166 125.529   1
 -12  -4  23 13.4642 126.186   2
 -12   4  23 119.884 123.773   1
 -12  -4  22 6666.12 911.557   2
 -12  -4  22 8232.71 747.687   1
 -12   4  22 6878.89 822.419   1
 -12  -4  21 93.2898 114.299   1
 -12  -4  21-166.461 201.746   2
 -12   4  21 245.493 171.832   1
 -12  -4  20 2146.58 353.280   1
 -12  -4  20 1219.08 372.986   2
 -12   4  20 1179.72 310.913   1
 -12  -4  19-110.492 177.536   2
 -12   4  19-37.5789 56.3675   1
 -12  -4  19-61.6476 26.2175   1
 -12   4  18 20713.9 1304.15   1
 -12  -4  18 20771.3 1017.93   1
 -12  -4  18 20354.0 1493.45   2
 -12  -4  17 178.985 108.305   1
 -12  -4  17 87.0613 170.307   2
 -12   4  17-113.116 133.137   1
 -12  -4  16 686.925 167.505   1
 -12   4  16 830.241 265.733   1
 -12  -4  16 789.482 290.350   2
 -12   4  15-15.4969 42.3963   1
 -12  -4  15 49.4507 40.0348   1
 -12   4  14 20232.0 1218.66   1
 -12  -4  14 20770.0 1465.63   2
 -12  -4  14 19188.4 814.828   1
 -12  -4  13 149.588 66.5412   1
 -12   4  13-56.1165 108.861   6
 -12  -4  13 0.47146 57.9524   2
 -12   4  13 10.4105 55.7735   1
 -12   4  12 7172.07 737.521   1
 -12  -4  12 6904.64 828.018   2
 -12  -4  12 6960.95 429.004   1
 -12   4  12 6615.80 682.234   6
 -12   4  11 146.922 57.3713   1
 -12  -4  11 7.84542 108.202   2
 -12   4  11 58.8378 61.3776   6
  12  -4 -11 34.5514 27.5806   2
 -12  -4  11 54.9551 32.6706   1
  12  -4 -11 31.5001 29.4668   2
 -12   4  10 27377.4 1357.23   1
 -12  -4  10 26948.3 1624.44   2
 -12  -4  10 24613.8 684.710   1
 -12   4  10 25500.2 1298.60   6
 -12   4  10 24759.4 1390.04   3
  12  -4 -10 22899.1 703.595   2
  12  -4  -9-7.09137 25.9731   7
 -12   4   9 3.48186 62.4954   3
 -12   4   9-56.7860 76.2738   6
 -12   4   8 364.936 163.044   6
  12  -4  -8 273.807 83.9165   7
 -12  -4   8 758.310 281.529   2
 -12   4   8 360.267 168.508   3
 -12  -4   7 192.817 167.029   2
  12  -4  -7 166.382 88.2964   7
 -12   4   7 34.5064 68.7768   3
 -12   4   7 106.778 89.9915   6
  12  -4  -6 19825.3 872.498   7
 -12   4   6 20666.2 1158.01   6
 -12   4   6 19248.0 714.474   7
 -12   4   6 19569.3 1199.55   3
 -12  -4   6 18990.1 1352.83   2
 -12  -4   5 23.7279 81.8711   2
  12  -4  -5-26.1734 71.7646   7
 -12   4   5 57.7796 40.9873   7
 -12   4   5 11.4263 45.1251   6
 -12   4   4 20869.5 851.848   7
  12  -4  -4 22549.5 1006.80   7
 -12   4   4 21664.0 1274.78   3
 -12   4   4 23018.5 1212.14   6
 -12  -4   4 22603.1 685.055   6
 -12  -4   4 20185.1 1405.05   2
 -12  -4   3 12.6694 96.8262   2
  12  -4  -3 255.255 113.463   7
 -12   4   3 136.820 62.6360   7
 -12   4   3 121.935 83.9936   3
 -12   4   3 230.862 60.7663   6
 -12  -4   3 152.252 52.0080   6
 -12  -4   2 21852.2 1004.71   3
  12  -4  -2 21488.5 1061.27   7
 -12   4   2 22096.2 1279.21   3
 -12   4   2 20720.9 920.429   7
 -12  -4   2 20984.5 1430.17   2
 -12  -4   1 142.942 129.774   2
 -12  -4   1 317.112 112.807   3
 -12   4   1 318.577 138.350   3
  12  -4  -1 425.333 142.174   7
 -12  -4   0 4735.85 431.969   3
  12  -4   0 4652.00 525.690   7
 -12   4   0 4145.14 555.052   3
 -12  -4   0 4629.25 681.136   2
  12  -4   1 239.584 131.012   7
  12   4   1 258.525 48.9114   1
 -12   4  -1 439.710 186.023   3
 -12  -4  -1 217.777 91.1037   3
  12   4   1 255.098 49.9525   1
 -12  -4  -1 458.119 206.714   2
  12  -4   2 6720.86 663.506   7
 -12   4  -2 6988.71 726.085   3
 -12  -4  -2 7095.63 470.326   3
 -12  -4  -2 6375.92 778.991   2
 -12   4  -3 161.003 66.3846   3
 -12  -4  -3 280.651 84.3294   3
  12  -4   3 331.202 178.348   7
 -12  -4  -3 208.991 144.016   2
  12  -4   4 19216.1 1182.41   7
 -12   4  -4 19949.5 1259.13   3
 -12  -4  -4 20801.2 678.410   3
 -12  -4  -4 21308.5 1424.54   2
 -12   4  -5 144.491 141.169   3
 -12  -4  -5-22.1787 80.7880   2
  12  -4   6 3672.61 544.771   7
 -12   4  -6 3551.22 540.178   3
 -12  -4  -6 3512.23 588.334   2
  12  -4   7 793.831 268.834   7
 -12   4  -7 538.422 192.255   3
 -12  -4  -7 644.047 223.642   2
 -12   4  -8 4362.91 619.641   3
  12  -4   8 5029.37 672.046   7
  12   4   8 4658.25 342.755   6
 -12  -4  -8 5264.68 705.083   2
  12  -4   8 5320.63 677.903   5
 -12   4  -9 124.500 150.264   3
  12  -4   9 220.265 94.7255   7
 -12  -4  -9 101.058 65.8154   2
  12  -4   9 232.412 120.431   5
 -12   4 -10 4935.40 667.653   3
  12  -4  10 3777.33 594.042   7
  12   4  10 4278.70 583.438   7
 -12  -4 -10 5430.08 712.449   2
  12  -4  10 3819.94 562.713   5
  12  -4  11 239.961 175.106   7
  12   4  11 146.322 61.7510   7
  12  -4  11 241.145 131.474   5
 -12   4 -11 219.427 128.230   3
 -12   4 -12 24638.0 1526.80   3
  12  -4  12 25788.1 1632.47   7
  12   4  12 26989.6 1506.96   7
  12  -4  12 26458.4 1497.06   5
 -12   4 -13 171.139 114.195   3
  12  -4  13 379.098 222.538   7
  12   4  13 137.217 59.7167   7
  12  -4  13 288.113 129.979   5
 -12   4 -14 173.678 169.904   3
  12   4  14 152.566 42.8023   7
  12  -4  14 227.246 142.225   5
  12  -4  14 461.598 276.047   7
  12  -4  15 192.002 185.853   7
  12   4  15 166.008 157.440   7
  12  -4  15 200.178 123.724   5
 -12   4 -15 145.787 132.761   3
 -12   4 -16 10442.0 1043.41   3
  12   4  16 10836.8 1010.30   7
  12  -4  16 11140.4 1166.04   7
  12  -4  16 10280.5 896.847   5
 -12   4 -17-36.4396 103.298   3
  12  -4  17 74.9697 152.112   7
  12   4  17 52.7631 73.0500   7
  12  -4  17 32.1273 58.4712   5
 -12   4 -18-4.54125 88.9241   3
  12   4  18 59.9246 52.9888   7
 -12   4 -19 177.384 158.513   3
  12  -4  19 213.505 143.441   7
  12   4  19 31.8947 51.0066   7
 -12   4 -20 16746.7 1381.26   3
  12  -4  20 16038.6 1521.70   7
  12   4  20 17801.5 1391.97   7
 -12   4 -21 137.660 126.636   3
  12  -4  21 397.895 270.539   7
  12   4  21 248.886 179.710   7
 -12   4 -22 544.775 252.280   3
  12  -4  22 334.174 249.224   7
  12   4  22 506.091 232.284   7
 -12   4 -23-129.531 126.842   3
  12   4  23-13.3548 110.131   7
  12  -4  24 5694.82 979.731   7
  12   4  24 5573.65 832.922   7
  12   4  25 1.78762 116.611   7
  12  -4  25 64.3337 305.288   7
  12   4  26 1228.97 400.567   7
  12   4  27-5.71285 45.9324   7
  12   4  27 38.3371 28.5235   1
 -12  -6  32 3809.05 887.292   2
 -12   6  32 4230.13 792.146   1
 -12  -6  31 49.2929 132.215   2
 -12   6  31-221.095 176.634   3
 -12   6  31 18.1013 59.6885   1
 -12   6  30 8614.13 1094.55   1
 -12  -6  30 8576.44 1308.76   2
 -12   6  30 8620.07 1093.20   3
 -12  -6  29-111.146 242.667   2
 -12   6  29 290.958 237.486   3
 -12   6  29 752.292 351.183   1
 -12  -6  28 257.852 186.918   2
 -12   6  28 107.891 157.246   1
 -12   6  28 380.115 213.589   3
 -12  -6  27 143.258 215.792   2
 -12   6  27 222.715 145.162   3
  12  -6 -27 293.886 228.922   5
 -12   6  27 289.957 119.472   1
 -12   6  26 7451.33 968.265   1
 -12  -6  26 8301.21 1247.50   2
 -12   6  26 8555.73 1041.11   3
  12  -6 -26 8980.14 1186.93   5
 -12   6  25-135.735 63.6890   1
 -12  -6  25-196.020 262.462   2
 -12   6  25 81.7167 49.9787   3
 -12   6  24 2262.14 516.277   1
 -12  -6  24 1710.28 520.838   2
 -12   6  24 2399.15 546.268   3
  12  -6 -24 1778.51 532.536   5
 -12   6  23-91.0228 97.1282   1
 -12   6  23-28.9836 106.895   3
  12  -6 -23 105.746 85.0442   5
 -12   6  22 5629.05 793.135   1
 -12  -6  22 5388.41 958.483   2
 -12   6  22 4843.33 750.695   3
 -12   6  22 5210.51 712.067   6
  12  -6 -22 6726.20 1015.53   5
 -12   6  21-86.9295 142.341   1
 -12  -6  21 124.789 177.179   2
 -12   6  21 51.0556 116.568   3
 -12   6  21 127.735 150.646   6
  12  -6 -21 124.118 154.069   5
 -12   6  20 1208.92 354.561   1
 -12  -6  20 1066.69 428.351   2
 -12   6  20 1639.42 439.411   3
 -12   6  20 1463.50 364.661   6
  12  -6 -20 1266.32 424.571   5
 -12   6  19 264.886 168.225   1
 -12  -6  19-38.4557 193.299   2
 -12   6  19-170.745 154.777   3
 -12   6  19 49.9480 67.2233   6
  12  -6 -19 34.3898 152.588   5
 -12   6  18 12941.8 1135.52   1
 -12  -6  18 12821.5 1401.43   2
 -12   6  18 11920.9 1155.10   3
 -12   6  18 13270.9 1101.53   6
  12  -6 -18 11744.3 1320.04   5
 -12  -6  17 100.147 122.085   2
 -12   6  17-120.802 128.115   6
  12  -6 -17 350.380 197.124   5
 -12   6  17 143.328 64.0055   1
 -12   6  17-51.9417 146.331   3
 -12   6  16 22.3854 83.3506   1
 -12  -6  16-11.0421 57.0786   2
 -12   6  16 245.429 79.2086   3
 -12   6  16 140.417 90.7016   6
  12  -6 -16 308.371 214.170   5
 -12   6  15 162.884 115.031   1
 -12  -6  15-27.8777 137.580   2
 -12   6  15 112.715 88.1682   3
 -12   6  15-36.4164 120.711   6
  12  -6 -15 142.103 198.871   5
 -12  -6  14 14981.3 1468.06   2
 -12   6  14 18336.3 1238.59   6
 -12   6  14 17325.9 1339.55   3
  12  -6 -14 16052.9 1498.27   5
 -12  -6  13-5.96329 128.050   2
 -12   6  13 41.7127 92.8330   3
 -12   6  13-66.9720 93.0274   6
 -12  -6  12 5364.68 866.272   2
 -12   6  12 5077.28 715.439   3
 -12   6  12 5255.15 645.044   6
  12  -6 -12 5384.10 857.388   5
 -12  -6  11-212.724 158.584   2
 -12   6  11 37.3432 142.002   3
 -12   6  11-52.2331 52.3476   6
  12  -6 -11 77.5096 80.5207   5
  12  -6 -11 16.5060 45.8974   2
  12   6 -10 17492.4 1280.66   3
 -12  -6  10 16873.1 1514.96   2
  12  -6 -10 17266.7 914.167   2
 -12   6  10 19807.2 1250.71   6
  12  -6 -10 17780.0 1551.62   5
 -12   6  10 18659.8 1379.64   3
  12   6  -9 103.620 141.119   3
 -12  -6   9-134.000 190.452   2
 -12   6   9-149.595 123.551   3
 -12   6   9 10.8489 151.633   6
  12  -6  -9 68.6254 84.3067   2
  12  -6  -9 88.8390 150.682   5
  12   6  -8 538.584 208.537   3
 -12  -6   8 715.071 306.155   2
 -12   6   8 211.748 146.330   3
 -12   6   8 200.652 97.8117   6
  12  -6  -8 475.466 172.886   2
  12  -6  -8 247.374 170.501   5
  12   6  -7 191.690 145.363   3
 -12  -6   7 389.175 212.119   2
 -12   6   7 272.728 98.6892   6
 -12   6   7 361.843 194.619   3
  12  -6  -7 225.433 120.552   2
  12  -6  -7 103.108 83.7992   5
  12   6  -6 12182.0 1004.20   3
 -12   6   6 11284.3 1091.27   3
  12  -6  -6 12345.2 988.461   2
  12  -6  -6 12448.8 1269.48   5
 -12  -6   6 11583.4 1243.58   2
  12   6  -5 92.9323 93.1718   3
 -12  -6   5 137.561 147.954   2
 -12   6   5 345.234 219.028   3
  12  -6  -5 151.928 165.152   5
  12  -6  -5 439.717 176.063   2
  12   6  -4 14658.3 1057.81   3
 -12   6   4 13154.0 1169.77   3
  12  -6  -4 11750.8 1235.21   5
 -12  -6   4 13292.3 1333.90   2
  12   6  -3 241.877 149.720   3
 -12  -6   3 106.437 175.318   2
 -12   6   3-29.0840 128.790   3
  12  -6  -3 203.001 132.621   7
  12  -6  -3 454.481 275.093   5
  12   6  -2 14931.2 1014.66   3
  12  -6  -2 16097.7 1159.83   7
 -12   6   2 14509.6 1232.19   3
  12  -6  -2 14942.8 1379.39   5
 -12  -6   2 15389.7 1443.11   2
  12   6  -1 277.087 111.518   3
 -12  -6   1 279.203 173.870   2
 -12   6   1 91.4591 205.624   3
  12  -6  -1 215.645 126.386   5
  12   6   0 2954.67 433.550   3
 -12  -6   0 3321.41 658.434   2
  12  -6   0 2950.88 515.435   7
 -12   6   0 2539.02 535.312   3
  12  -6   0 2360.56 542.301   5
  12   6   1 357.565 151.860   3
 -12  -6  -1 685.763 290.025   2
  12  -6   1 510.235 213.034   7
 -12   6  -1 475.791 184.976   3
  12  -6   1 570.706 275.930   5
  12   6   2 5370.80 542.615   3
  12  -6   2 5493.03 729.024   7
 -12   6  -2 5503.02 779.536   3
  12  -6   2 4894.36 787.392   5
 -12  -6  -2 5650.37 879.146   2
  12  -6   3 295.364 179.620   7
 -12   6  -3 116.113 68.9452   3
  12  -6   3-29.6441 140.113   5
 -12  -6  -3-149.869 192.016   2
 -12   6  -4 12830.6 1218.50   3
  12  -6   4 14898.3 1242.74   7
  12  -6   4 14695.8 1362.24   5
 -12  -6  -4 14057.2 1364.53   2
  12  -6   5 132.226 97.4877   7
 -12   6  -5 149.065 132.102   3
  12  -6   5 370.332 230.646   5
 -12  -6  -5 194.673 150.502   2
 -12   6  -6 2749.08 581.751   3
  12  -6   6 2692.17 566.555   7
  12  -6   6 2268.11 521.420   5
 -12  -6  -6 2990.29 608.264   2
  12  -6   7 528.686 254.790   7
 -12   6  -7 942.694 346.162   3
  12  -6   7 493.922 234.671   5
 -12  -6  -7 439.934 221.285   2
  12  -6   8 3953.17 686.983   7
 -12   6  -8 3741.67 683.962   3
  12  -6   8 3936.30 697.957   5
 -12  -6  -8 3926.69 701.687   2
  12  -6   9 265.317 232.670   7
 -12   6  -9 397.377 244.432   3
 -12  -6  -9 425.380 220.797   2
  12  -6   9 353.262 168.272   5
  12  -6  10 2137.56 521.456   7
 -12   6 -10 2502.51 563.013   3
 -12  -6 -10 2302.02 523.413   2
  12  -6  10 2208.63 535.484   5
 -12   6 -11-55.2261 169.225   3
  12  -6  11 394.712 218.216   7
 -12  -6 -11 137.282 101.463   2
  12  -6  11 299.374 210.815   5
 -12   6 -12 21313.9 1671.88   3
  12  -6  12 22932.9 1760.36   7
 -12  -6 -12 22781.2 1662.06   2
  12   6  12 23621.2 1516.85   7
  12  -6  12 21799.4 1652.81   5
 -12   6 -13 331.477 206.915   3
  12  -6  13 567.344 301.318   7
  12   6  13 511.320 232.287   7
 -12  -6 -13 585.327 241.527   2
  12  -6  13 430.079 213.779   5
 -12   6 -14 386.068 211.457   3
  12  -6  14 573.731 237.805   7
  12   6  14 76.4366 52.0621   7
  12  -6  14-21.0496 41.8626   5
 -12   6 -15 164.274 144.745   3
  12  -6  15 224.281 212.278   7
  12   6  15 113.465 118.138   7
  12  -6  15 65.1109 87.1333   5
 -12   6 -16 8319.95 1086.10   3
  12  -6  16 7517.85 1079.20   7
  12   6  16 8538.98 931.875   7
  12  -6  16 6819.33 905.537   5
 -12   6 -17-152.037 173.366   3
  12  -6  17-32.7206 77.3305   7
  12   6  17-92.2536 139.641   7
 -12   6 -18 329.899 237.960   3
  12  -6  18 134.482 213.876   7
  12   6  18 138.390 164.655   7
 -12   6 -19-19.8544 150.150   3
  12  -6  19 197.722 224.366   7
  12   6  19 155.525 117.761   7
 -12   6 -20 10815.7 1295.43   3
  12   6  20 11582.4 1155.48   7
  12  -6  20 10874.1 1379.53   7
 -12   6 -21-6.63936 160.114   3
  12  -6  21 347.222 179.618   7
 -12   6 -22 304.191 206.544   3
 -12   6 -23 52.5450 94.0867   3
 -12   6 -24 4117.82 841.626   3
 -12   8  27 380.750 195.312   1
 -12   8  26 3788.16 733.109   1
 -12   8  25 48.0787 104.976   1
 -12   8  25-56.4063 96.7542   3
 -12   8  24 1414.39 447.276   1
 -12   8  24 1081.61 406.581   3
  12  -8 -24 1124.76 487.047   5
 -12  -8  23-41.4276 242.672   2
 -12   8  23 225.652 207.538   3
  12  -8 -23-70.5698 203.759   5
 -12   8  23 84.1468 108.708   1
 -12  -8  22 8636.99 1363.51   2
 -12   8  22 8764.64 1134.05   3
  12  -8 -22 8287.92 1314.17   5
 -12  -8  21 288.558 300.175   2
 -12   8  21-88.7757 178.963   3
  12  -8 -21 212.232 217.112   5
 -12  -8  20 611.977 345.847   2
 -12   8  20 297.990 218.225   3
  12  -8 -20 344.576 220.185   5
 -12  -8  19 697.338 349.721   2
 -12   8  19-52.2511 99.1732   3
  12  -8 -19 553.681 386.295   5
 -12  -8  18 14127.0 1725.58   2
 -12   8  18 12755.0 1343.60   3
  12  -8 -18 13357.3 1627.98   5
 -12   8  17-71.6200 137.598   3
 -12  -8  17 179.193 154.443   2
  12  -8 -17-194.717 175.792   5
 -12   8  16 138.617 182.367   3
  12  -8 -16 504.043 259.216   5
 -12   8  15-14.7192 48.4386   3
 -12  -8  15-63.8466 253.808   2
  12  -8 -15 16.1014 110.285   5
 -12   8  14 6433.56 938.110   3
 -12  -8  14 5726.91 1070.68   2
  12  -8 -14 5720.06 1038.97   5
  12   8 -13-42.6483 147.500   3
 -12  -8  13 335.288 301.163   2
 -12   8  13 232.258 185.946   3
  12  -8 -13 171.424 204.575   5
  12   8 -12 2637.91 565.457   3
 -12  -8  12 1569.02 539.249   2
 -12   8  12 1737.24 504.870   3
  12  -8 -12 1818.64 587.173   5
  12   8 -11 177.084 144.798   3
 -12  -8  11 107.990 175.570   2
 -12   8  11-247.582 230.713   3
  12  -8 -11-137.086 241.764   5
  12   8 -10 7231.77 947.783   3
 -12  -8  10 5906.27 1053.37   2
  12  -8 -10 7374.95 1146.49   5
 -12   8  10 6062.59 915.983   3
  12   8  -9 44.2071 109.657   3
 -12   8   9 125.845 170.206   3
  12  -8  -9 147.192 59.4541   5
 -12  -8   9-152.977 174.128   2
  12   8  -8 325.952 217.335   3
 -12  -8   8 592.665 354.917   2
 -12   8   8 130.157 65.5057   3
  12  -8  -8 327.066 281.454   5
  12   8  -7 32.6816 44.1422   3
 -12  -8   7 124.928 218.332   2
 -12   8   7 300.943 215.115   3
  12  -8  -7 106.029 70.8078   5
  12   8  -6 16229.1 1341.48   3
 -12   8   6 17885.7 1580.91   3
  12  -8  -6 15855.9 1684.01   5
 -12  -8   6 14871.4 1656.07   2
  12   8  -5 143.769 137.821   3
 -12  -8   5 188.911 143.396   2
 -12   8   5 520.770 286.487   3
  12  -8  -5 206.731 215.690   5
  12   8  -4 14619.7 1223.85   3
 -12   8   4 14996.3 1465.73   3
  12  -8  -4 12204.9 1235.63   2
  12  -8  -4 13990.3 1572.15   5
 -12  -8   4 12739.8 1543.37   2
  12   8  -3-12.5104 72.3052   3
 -12  -8   3-15.7538 115.426   2
 -12   8   3-86.5348 162.843   3
  12  -8  -3 82.4213 119.595   2
  12  -8  -3-272.411 190.190   5
  12   8  -2 11946.8 1064.56   3
 -12   8   2 12354.6 1345.56   3
  12  -8  -2 11214.1 1248.22   2
  12  -8  -2 12784.4 1488.60   5
 -12  -8   2 11833.6 1501.74   2
  12   8  -1 71.4263 144.398   3
 -12  -8   1 182.462 222.796   2
 -12   8   1 100.689 55.0029   3
  12  -8  -1 126.204 162.295   2
 -12  -8   0 1260.68 477.534   2
  12   8   0 1712.51 372.271   3
 -12   8   0 2028.84 548.789   3
  12  -8   0 2268.97 630.436   5
  12  -8   0 1669.03 508.242   2
 -12  -8  -1 876.841 413.968   2
 -12   8  -1 472.730 228.144   3
  12  -8   1 388.737 232.429   5
  12  -8   1 552.433 328.847   2
 -12   8  -2 2835.53 658.022   3
  12  -8   2 3233.07 741.218   5
  12  -8   2 2380.62 617.320   2
 -12  -8  -2 2258.03 640.796   2
 -12   8  -3-29.4883 59.7563   3
  12  -8   3 282.088 195.204   5
  12  -8   3-3.88702 94.7211   2
 -12  -8  -3-60.3759 128.467   2
 -12   8  -4 8621.93 1173.33   3
  12  -8   4 8271.10 1186.23   2
  12  -8   4 7768.10 1172.87   5
 -12  -8  -4 8922.37 1241.65   2
 -12   8  -5 201.208 231.450   3
  12  -8   5-47.2430 199.912   5
 -12  -8  -5 284.594 245.086   2
  12  -8   5 242.158 174.042   2
 -12   8  -6 4633.22 860.583   3
  12  -8   6 2868.75 707.146   5
 -12  -8  -6 2849.12 675.549   2
  12  -8   6 3657.61 807.942   2
  12  -8   7-158.645 202.444   7
 -12   8  -7 99.1203 145.875   3
  12  -8   7 358.603 229.311   5
 -12  -8  -7 160.717 185.014   2
  12  -8   7 41.0419 46.3714   2
  12  -8   8 2976.99 719.244   7
 -12   8  -8 3832.15 799.515   3
  12  -8   8 3148.58 768.805   5
 -12  -8  -8 3264.12 720.805   2
  12  -8   9-22.2635 129.272   7
 -12   8  -9 185.246 243.716   3
  12  -8   9-188.286 249.868   5
 -12  -8  -9-147.556 106.696   2
  12  -8  10 1464.06 528.203   7
 -12   8 -10 2266.90 644.833   3
  12  -8  10 1177.26 452.049   5
 -12  -8 -10 1675.17 491.654   2
  12  -8  11 329.750 247.559   7
 -12   8 -11 702.132 350.222   3
  12  -8  11 269.636 143.534   5
 -12  -8 -11 369.192 253.146   2
 -12   8 -12 12969.8 1500.31   3
  12  -8  12 13808.8 1597.10   7
  12   8  12 13311.6 1236.95   7
 -12  -8 -12 15523.3 1519.11   2
  12  -8  12 11525.0 1444.72   5
  12  -8  13-82.1893 155.888   7
 -12   8 -13 419.071 295.615   3
 -12  -8 -13 386.152 235.574   2
  12  -8  13 332.880 259.167   5
 -12   8 -14 26.9756 113.082   3
  12  -8  14 15.4064 95.4055   7
  12  -8  14 39.4762 253.285   5
  12  -8  15-77.1344 68.6735   7
  12  -8  15 13.5985 92.0560   5
  12  10  -9 81.5582 119.105   3
  12  10  -8 305.644 223.586   3
 -12 -10   2 4226.57 1028.92   2
 -12 -10   1 1.15199 55.2024   2
 -12 -10   0 1158.71 534.556   2
 -12 -10  -1 56.0317 114.607   2
 -12 -10  -2 2771.64 790.458   2
 -12 -10  -3 449.347 312.643   2
 -13  -1  38-20.0921 130.379   1
 -13   1  38 134.826 175.292   1
 -13   1  37 15133.9 1518.11   1
 -13  -1  37 13789.2 1421.38   1
 -13  -1  36 152.373 154.355   1
 -13   1  36 302.267 242.747   1
 -13  -1  35 6391.07 936.408   1
 -13   1  35 8684.58 1109.51   1
 -13  -1  34 117.751 109.979   1
 -13   1  34 122.062 88.8019   1
 -13  -1  33 2520.02 559.793   1
 -13  -1  33 2591.42 528.207   2
 -13   1  33 2776.95 613.145   1
 -13  -1  32 155.441 132.625   1
 -13  -1  32 123.640 160.976   2
 -13   1  32 172.264 257.845   1
 -13  -1  31 7188.92 908.913   1
 -13  -1  31 7954.69 903.347   2
 -13   1  31 9418.72 1061.79   1
 -13  -1  30 16.4300 45.8221   1
 -13  -1  30-45.6702 116.637   2
 -13   1  30 17.2560 71.3961   1
 -13  -1  29 8402.17 941.009   1
 -13   1  29 9289.69 1017.24   1
  13  -1 -29 8107.13 891.290   4
 -13  -1  29 8575.92 903.712   2
 -13   1  28 35.8804 40.0699   2
 -13  -1  28-19.2885 64.9844   2
 -13   1  28-77.9330 62.0944   1
  13  -1 -28-33.7831 144.262   4
 -13  -1  27 16107.4 1236.55   1
 -13   1  27 13816.7 818.450   2
 -13  -1  27 16471.6 1214.54   2
 -13   1  27 14900.2 1236.69   1
  13  -1 -27 15084.8 1211.87   4
 -13  -1  26 123.635 121.027   1
 -13   1  26 76.9501 105.284   2
 -13  -1  26-52.4708 52.8736   2
 -13   1  26 45.1931 189.171   1
  13  -1 -26 227.201 128.192   4
 -13  -1  25 162.627 98.1169   1
 -13   1  25 204.523 97.5846   2
 -13  -1  25 26.0364 46.4871   2
 -13   1  25 354.732 197.345   1
  13  -1 -25 125.170 69.2636   4
 -13  -1  24-44.3806 131.942   1
 -13  -1  24 170.429 127.157   2
 -13   1  24 60.3775 163.290   1
 -13   1  24 23.9014 33.6533   2
  13  -1 -24 122.511 109.264   4
 -13   1  23 17801.8 831.030   2
 -13  -1  23 20059.1 1247.42   2
 -13   1  23 19817.3 1299.82   1
  13  -1 -23 17560.0 1286.57   4
 -13  -1  23 18622.9 1203.13   1
 -13  -1  22-25.1437 38.1080   1
 -13   1  22 35.9340 39.2857   2
 -13  -1  22 124.304 124.505   2
 -13   1  22-107.401 55.3614   1
  13  -1 -22 32.0808 40.1446   7
  13  -1 -22 182.979 146.735   4
 -13  -1  21 1373.38 300.878   1
  13  -1 -21 1339.02 247.688   7
 -13   1  21 1199.80 291.055   1
 -13  -1  21 1681.10 351.657   2
 -13   1  21 1391.69 220.216   2
  13  -1 -21 1532.16 373.286   4
 -13   1  20 270.927 102.189   2
 -13   1  20 229.376 164.831   1
  13  -1 -20 283.373 104.076   7
 -13  -1  20 99.5948 81.8546   2
 -13  -1  20 195.748 133.306   1
  13  -1 -20 83.0447 122.070   4
 -13  -1  19 33320.1 1500.02   2
  13  -1 -19 29437.3 1117.82   7
 -13   1  19 34199.9 1573.32   1
 -13  -1  19 31179.5 1394.44   1
 -13   1  19 32247.5 1021.52   2
 -13   1  18 181.319 75.9604   2
 -13   1  18 60.7504 69.8137   1
  13  -1 -18 158.194 62.8019   7
 -13  -1  18 221.507 75.8634   2
 -13  -1  18 359.896 178.701   1
 -13  -1  17 4902.23 558.834   2
  13  -1 -17 4468.81 413.517   7
 -13   1  17 4835.60 557.925   1
 -13  -1  17 4444.14 501.599   1
 -13   1  17 5092.39 396.652   2
 -13   1  16 160.579 69.2478   2
 -13   1  16-2.32485 94.6296   1
  13  -1 -16 136.116 77.1376   7
 -13  -1  16 7.25460 89.7872   1
 -13  -1  16-90.9112 114.646   2
 -13  -1  15 34317.9 1430.38   2
  13  -1 -15 35405.0 1135.69   7
 -13   1  15 34020.6 1417.52   1
 -13  -1  15 31430.8 1268.39   1
 -13   1  15 33688.9 1016.92   2
 -13  -1  14-0.66943 81.2880   1
  13  -1 -14-10.1083 24.9618   7
 -13  -1  14-73.3230 65.3978   2
 -13   1  14 44.0675 77.9798   1
  13  -1 -14 8.28339 38.6843   2
 -13   1  14 3.00280 43.5527   2
 -13  -1  13-16.9770 33.1826   1
 -13  -1  13-23.2185 73.3948   2
  13   1 -13-32.2168 67.5108   1
  13  -1 -13 102.239 56.8833   2
 -13   1  13 12.2618 91.3574   1
 -13   1  13 76.8866 68.1896   2
  13   1 -12 29.5983 42.3337   1
 -13  -1  12 76.2126 58.9454   2
  13  -1 -12 63.6157 46.8269   2
 -13   1  12 58.7838 80.7180   1
  13   1 -12-62.3339 61.6551   2
 -13   1  12-16.6222 19.7037   2
 -13  -1  12 43.5203 50.8247   1
 -13   1  11 27637.6 1203.64   1
 -13  -1  11 27093.7 1051.68   1
  13  -1 -11 29059.7 1030.63   2
  13   1 -11 30981.7 1150.15   1
 -13   1  11 28661.2 982.842   2
 -13  -1  11 28751.6 1284.58   2
 -13  -1  10 28.6898 61.6460   2
  13  -1 -10 93.1240 55.7312   2
 -13   1  10 125.474 93.2177   1
  13   1 -10 205.093 96.6105   1
 -13  -1  10 97.9542 54.6425   1
  13   1 -10-47.0849 53.7758   2
 -13   1  10 86.9798 46.7497   2
 -13   1   9 13400.2 823.610   1
 -13  -1   9 13420.5 714.077   1
 -13   1   9 13909.3 707.359   2
  13   1  -9 13933.9 725.678   1
 -13  -1   9 12468.9 854.000   2
  13  -1  -9 12950.1 702.451   2
 -13  -1   8 44.8295 51.6406   2
  13  -1  -8 69.4084 54.9423   2
 -13   1   8 124.147 38.4769   1
 -13  -1   8 107.734 67.8794   1
  13   1  -8 42.5165 59.3249   2
  13   1  -8 54.0639 55.1144   1
 -13   1   8 115.004 67.5797   2
  13   1  -7 23034.2 898.193   1
 -13   1   7 21693.1 1070.03   6
 -13  -1   7 21630.7 1140.22   2
  13  -1  -7 22855.7 979.210   2
 -13   1   6 54.1473 70.5577   6
  13   1  -6-19.5853 45.5878   1
 -13  -1   6 20.2892 67.9408   2
  13  -1  -6 46.9281 42.7536   2
  13  -1  -5 186.409 78.2559   7
 -13   1   5 151.922 89.3603   6
 -13  -1   5 13.9834 64.1462   6
  13   1  -5 287.418 97.3271   1
 -13  -1   5 78.8064 88.0952   2
  13  -1  -5 138.118 80.3697   2
  13   1  -4 41.1951 22.0423   1
  13  -1  -4 93.3785 65.6515   7
 -13   1   4 131.636 113.705   6
 -13  -1   4-29.9142 81.3457   6
 -13  -1   4 75.7532 91.5451   2
  13  -1  -4 130.435 83.8859   2
  13   1  -3 4887.99 397.403   1
  13  -1  -3 4698.27 432.820   7
 -13   1   3 5295.18 525.719   6
 -13  -1   3 4804.50 444.512   6
 -13  -1   3 4768.64 542.383   2
  13  -1  -3 4601.41 469.169   2
  13   1  -2 102.124 54.8760   1
  13  -1  -2 221.595 95.3471   7
 -13   1   2 264.623 107.517   6
 -13  -1   2 196.098 96.5122   6
 -13  -1   2 155.618 92.7324   2
  13  -1  -2 29.0031 52.2557   2
  13  -1  -1 22762.2 1006.58   7
 -13   1   1 22530.7 1095.85   6
 -13  -1   1 20792.7 927.872   6
 -13  -1   1 21491.1 1171.38   2
  13  -1   0-24.7932 94.6564   4
  13  -1   0 30.4697 47.6228   7
 -13   1   0-186.736 142.626   6
 -13  -1   0-26.9604 74.5173   6
 -13   1   0-75.7291 74.6974   3
 -13  -1   0-128.489 68.9322   2
  13  -1   1 20078.5 995.761   7
 -13   1  -1 19721.4 901.009   3
  13   1   1 21179.4 942.807   6
 -13  -1  -1 20160.9 1144.83   2
  13  -1   1 20196.5 1161.17   4
  13  -1   2 40.8743 38.6985   7
 -13   1  -2 24.3217 27.2846   3
  13   1   2-85.6290 76.5809   6
 -13  -1  -2-7.89635 39.4052   2
  13  -1   2 37.9137 72.9332   4
  13  -1   3 10107.6 747.000   7
 -13  -1  -3 10805.5 450.907   3
  13   1   3 10368.4 765.867   7
  13   1   3 11232.9 700.576   6
 -13  -1  -3 11070.7 861.568   2
  13  -1   3 11141.5 838.907   4
 -13   1  -3 10234.5 645.564   3
  13  -1   4 62.7109 59.7817   7
 -13   1  -4-44.4683 64.0305   3
  13   1   4 42.4553 94.6923   7
 -13  -1  -4-19.6932 29.0701   3
  13  -1   4-6.22603 100.187   4
 -13  -1  -5 12541.1 424.238   3
 -13   1  -5 12179.7 710.699   3
  13  -1   5 11892.2 859.948   7
  13   1   5 12296.4 874.362   7
  13  -1   5 12853.2 865.533   4
 -13  -1  -6-16.0917 22.9956   3
 -13   1  -6-70.0777 80.7105   3
  13  -1   6 42.8730 92.2954   7
  13   1   6 48.4243 43.7072   7
  13  -1   6-2.39072 70.3510   4
 -13   1  -7 43431.9 1377.92   3
  13   1   7 41309.8 1657.65   7
  13  -1   7 41459.8 1528.97   4
  13  -1   7 41588.2 1679.93   7
 -13   1  -8 183.986 103.711   3
  13  -1   8-32.5766 65.4815   7
  13   1   8 85.4231 68.1898   7
  13  -1   8 140.339 101.226   4
 -13   1  -9 9563.86 650.798   3
  13  -1   9 8742.93 814.529   7
  13   1   9 8976.32 801.201   7
  13  -1   9 8517.08 679.624   4
 -13   1 -10 106.843 81.9995   3
  13  -1  10 44.5719 59.9679   7
  13  -1  10 42.9978 46.5767   4
 -13   1 -11 8774.58 627.581   3
  13   1  11 8482.33 810.384   7
  13  -1  11 8575.01 848.198   7
 -13   1 -12-24.4338 27.7669   3
  13  -1  12-21.1078 67.2277   7
  13   1  12-107.215 109.040   7
 -13   1 -13 3511.00 405.147   3
  13  -1  13 2950.05 516.941   7
  13   1  13 2737.02 473.823   7
 -13   1 -14-12.0642 60.8805   3
  13   1  14 1.65751 127.134   7
  13  -1  14 0.43761 90.3462   7
  13   1  14 15.6618 62.3982   4
 -13   1 -15 35998.1 1333.91   3
  13  -1  15 34331.6 1847.89   7
  13   1  15 35631.3 1825.81   7
  13   1  15 38192.1 1075.43   4
 -13   1 -16-27.2226 68.1630   3
  13  -1  16-17.4284 29.8459   5
  13  -1  16-47.3090 69.8665   7
 -13   1 -17 530.561 173.797   3
  13   1  17 61.3438 135.188   7
  13  -1  17 333.212 205.589   7
  13  -1  18 190.151 111.480   7
  13   1  18-127.385 143.089   7
  13  -1  19 6110.16 840.447   7
  13   1  19 6096.16 819.170   7
  13   1  20-8.50457 192.207   7
  13  -1  20-117.553 134.212   7
  13  -1  21 208.391 136.019   7
  13   1  21 3.88376 57.9599   7
  13  -1  22-101.311 106.969   7
  13   1  22 95.7848 164.716   7
  13  -1  23 15298.8 1463.42   7
  13   1  23 17011.1 1489.31   7
  13  -1  24 14.7656 117.850   7
  13   1  24 21.8294 74.8759   7
  13  -1  25 93.6199 109.716   7
  13   1  25-233.137 182.866   7
  13   1  26-10.7670 43.0956   7
  13  -1  26-12.3350 106.574   7
  13  -1  27 5740.46 963.748   7
  13   1  27 5074.90 867.687   7
  13   1  28-26.0999 73.4386   7
  13  -1  28 228.727 218.820   7
  13   1  29 1467.90 485.458   7
 -13  -3  38 111.081 153.031   1
 -13  -3  37 8321.55 1103.33   1
 -13  -3  37 7060.34 1073.19   2
 -13   3  36 16.7705 64.1498   1
 -13  -3  36 187.842 140.161   2
 -13  -3  36 22.8186 54.7658   1
 -13   3  35 1783.91 497.572   1
 -13  -3  35 2155.82 580.667   2
 -13  -3  35 1994.82 530.495   1
 -13   3  34 20.3514 61.7330   1
 -13  -3  34-18.6260 128.847   2
 -13  -3  34-18.6062 97.4721   1
 -13  -3  33 2338.22 597.453   2
 -13   3  33 3137.01 671.525   1
 -13  -3  33 2338.75 528.554   1
 -13   3  32 109.109 119.815   1
 -13  -3  32 41.8579 74.7618   2
 -13  -3  32 371.458 202.299   1
 -13  -3  31 6617.53 862.408   1
 -13  -3  31 5536.53 862.490   2
 -13   3  31 7009.03 969.218   1
 -13  -3  30 88.8547 74.4475   2
 -13  -3  30 32.5163 49.2084   1
 -13  -3  29 8968.70 953.045   1
 -13   3  29 8662.95 1027.17   1
 -13  -3  29 9397.34 1120.54   2
 -13   3  28 147.876 151.230   1
 -13  -3  28 241.740 218.379   2
 -13  -3  28 303.768 204.521   1
 -13  -3  27 25605.8 1531.42   1
 -13   3  27 27353.9 1752.43   1
 -13  -3  27 27647.3 1848.06   2
 -13   3  26 647.065 316.328   1
 -13  -3  26 453.027 242.175   2
 -13  -3  26 331.627 209.255   1
 -13   3  25 108.521 152.745   1
 -13  -3  25-150.665 191.916   2
 -13  -3  25-35.0036 68.7551   1
 -13   3  24 294.451 209.622   1
 -13  -3  24 237.125 159.203   2
 -13  -3  24 471.435 207.494   1
 -13  -3  23 14299.4 1023.49   1
 -13  -3  23 16372.9 1334.80   2
 -13   3  23 15676.4 1232.18   1
 -13   3  22 57.1741 135.458   1
 -13  -3  22-211.633 64.0081   2
 -13  -3  22 122.072 121.075   1
 -13  -3  21 3100.80 437.506   1
 -13  -3  21 3695.69 612.798   2
 -13   3  21 3543.43 562.253   1
 -13  -3  20 1060.34 265.411   1
 -13  -3  20 1104.56 338.588   2
  13  -3 -20 1199.11 363.055   4
 -13   3  20 1141.67 312.351   1
 -13  -3  19 19710.2 1393.63   2
 -13   3  19 19295.2 1261.40   1
  13  -3 -19 18116.4 1391.70   4
 -13  -3  19 18692.2 1025.12   1
 -13  -3  18 431.284 160.040   1
 -13  -3  18 427.448 179.581   2
 -13   3  18 156.529 98.8998   1
  13  -3 -18 579.349 292.835   4
 -13  -3  17 1418.73 366.177   2
 -13   3  17 925.735 258.698   1
  13  -3 -17 1571.74 403.456   4
 -13  -3  17 1321.78 254.758   1
 -13  -3  16 96.2152 175.542   2
 -13   3  16 178.786 94.9884   1
 -13  -3  16 207.871 101.105   1
  13  -3 -16 261.644 230.134   4
 -13   3  15 28738.2 1430.00   1
 -13  -3  15 29832.1 1636.51   2
 -13  -3  15 26188.0 1065.20   1
  13  -3 -15 28180.2 1667.74   4
 -13  -3  14 48.5663 70.2412   1
 -13  -3  14 66.2134 71.3474   2
 -13   3  14 13.5122 50.4676   1
  13  -3 -14 214.524 143.943   4
 -13  -3  13 1605.36 240.316   1
 -13  -3  13 1646.74 379.154   2
 -13   3  13 1887.84 357.369   1
  13  -3 -13 1920.89 413.643   4
  13  -3 -12 155.493 46.3735   2
 -13   3  12-83.6322 150.591   1
 -13  -3  12 260.005 167.065   2
 -13  -3  12 87.7176 29.9791   1
 -13  -3  11 17629.5 1211.43   2
 -13   3  11 16398.6 1039.87   1
 -13  -3  11 15576.7 681.081   1
  13  -3 -11 15844.7 449.478   7
 -13   3  11 16235.8 1043.99   6
  13  -3 -11 14368.8 544.007   2
  13  -3 -11 16534.2 1226.55   4
 -13   3  10 858.445 204.880   1
  13  -3 -10 1061.15 139.296   7
 -13  -3  10 878.900 273.241   2
 -13   3  10 1174.65 276.617   6
 -13  -3  10 1038.83 172.209   1
  13  -3 -10 1859.43 439.310   4
  13  -3 -10 880.798 149.897   2
 -13  -3   9 7571.61 436.822   1
  13  -3  -9 7947.43 419.798   7
 -13   3   9 7116.17 678.495   6
  13  -3  -9 7178.95 453.890   2
  13  -3  -9 7831.45 838.755   4
 -13  -3   9 8925.72 862.854   2
 -13   3   9 7306.33 691.371   1
  13  -3  -8 281.430 84.1580   7
 -13  -3   8 290.665 108.339   2
 -13   3   8 471.607 175.813   6
  13  -3  -8 291.392 96.7922   2
  13  -3  -8 290.693 170.234   4
  13  -3  -7 13651.7 635.740   7
 -13   3   7 13640.1 926.358   6
  13  -3  -7 12597.6 660.412   2
  13  -3  -7 13284.6 1074.24   4
 -13  -3   7 13230.9 1056.75   2
 -13  -3   6-59.9475 94.3949   2
  13  -3  -6 27.1817 54.1875   7
 -13   3   6 123.678 125.010   6
  13  -3  -6 90.3235 65.3853   2
  13  -3  -6 117.062 167.206   4
 -13  -3   5 77.9120 57.5532   2
 -13  -3   5 72.5700 54.2344   3
  13  -3  -5 81.1948 59.1319   7
 -13   3   5 135.885 84.8947   6
 -13   3   5 304.664 149.874   3
  13  -3  -5 132.774 45.1068   2
 -13  -3   5 145.960 58.1851   6
  13   3  -5 159.882 45.5914   1
  13  -3  -5-60.5023 94.9693   4
 -13  -3   4 171.089 138.173   2
 -13  -3   4 145.942 83.7004   3
 -13   3   4 219.823 127.712   6
 -13   3   4 11.5551 51.4609   3
 -13  -3   4 139.949 57.2240   6
  13  -3  -4 184.744 87.9181   7
  13   3  -4 121.913 48.4159   1
  13  -3  -4 63.6978 129.549   4
 -13  -3   3 20351.3 920.274   3
  13  -3  -3 20417.0 940.047   7
  13   3  -3 20368.0 585.003   1
 -13   3   3 20893.3 1151.35   3
 -13   3   3 21485.7 1154.36   6
 -13  -3   3 20145.9 764.078   6
 -13  -3   3 21506.2 1360.10   2
  13  -3  -3 21300.9 1322.90   4
 -13  -3   2 110.384 61.8651   3
 -13   3   2 136.605 42.0860   3
  13  -3  -2 290.715 148.808   7
 -13   3   2 156.486 81.9890   7
 -13   3   2 57.5873 71.5194   6
 -13  -3   2 98.8517 62.3525   6
  13   3  -2 67.1323 20.2399   1
  13  -3  -2 332.443 203.965   4
 -13  -3   2-31.7649 74.3351   2
  13   3  -1 36840.2 827.994   1
 -13  -3   1 35314.0 1101.46   3
 -13   3   1 35890.1 1523.26   3
  13  -3  -1 35159.6 1324.48   7
 -13  -3   1 37594.5 1810.03   2
  13  -3  -1 36020.4 1714.47   4
 -13  -3   0 4.04685 32.3675   3
  13  -3   0 231.571 164.880   7
 -13   3   0 50.0651 94.1192   3
 -13  -3   0 122.115 146.453   2
  13   3   0-12.4123 18.4337   1
 -13  -3  -1 14957.6 625.091   3
  13  -3   1 17097.6 980.709   7
 -13   3  -1 17203.5 1056.08   3
 -13  -3  -1 16792.2 1203.72   2
  13  -3   2 168.644 142.488   7
 -13   3  -2-28.8964 66.3489   3
 -13  -3  -2 44.1022 21.3883   3
 -13  -3  -2 64.4590 103.271   2
 -13  -3  -3 7510.33 346.873   3
  13  -3   3 7528.82 687.230   7
 -13   3  -3 7273.61 704.637   3
 -13  -3  -3 7356.27 795.314   2
  13  -3   4 43.3026 66.5874   7
 -13   3  -4-123.440 119.541   3
 -13  -3  -4 8.89231 9.25152   3
 -13  -3  -4 34.5546 56.1544   2
 -13   3  -5 4877.65 583.794   3
  13  -3   5 4981.94 591.636   7
  13   3   5 5005.36 405.162   6
 -13  -3  -5 5491.48 683.917   2
 -13   3  -6-116.533 142.305   3
  13  -3   6 235.757 169.056   7
  13   3   6 85.0153 61.2535   6
 -13  -3  -6 104.043 121.166   2
 -13   3  -7 13292.4 985.630   3
  13  -3   7 12150.6 967.691   7
  13   3   7 13206.6 699.782   6
 -13  -3  -7 12602.6 1050.58   2
 -13   3  -8 588.186 224.772   3
  13  -3   8 642.253 231.577   7
  13   3   8 398.463 143.723   7
  13   3   8 710.940 184.827   6
 -13  -3  -8 724.833 266.635   2
 -13   3  -9 8071.74 797.907   3
  13  -3   9 8073.06 828.253   7
  13   3   9 6573.17 710.833   7
  13   3   9 7665.11 574.198   6
 -13   3 -10 534.370 230.571   3
  13  -3  10 219.183 110.615   7
  13   3  10 113.620 82.4352   7
 -13   3 -11 11813.8 962.636   3
  13  -3  11 12478.9 1077.86   7
  13   3  11 11109.2 953.713   7
 -13   3 -12 47.0802 89.0646   3
  13  -3  12-82.3520 121.992   7
  13   3  12 2.33883 63.2934   7
  13  -3  12-66.8679 88.1954   5
 -13   3 -13 2748.25 470.981   3
  13  -3  13 2423.36 491.113   7
  13   3  13 2242.73 434.860   7
  13  -3  13 2432.53 406.586   5
 -13   3 -14-137.647 136.591   3
  13  -3  14 251.773 202.240   7
  13   3  14-75.1095 141.914   7
  13  -3  14 23.8558 103.811   5
 -13   3 -15 41100.6 1869.63   3
  13  -3  15 37617.1 2045.93   7
  13   3  15 39721.4 1927.64   7
  13  -3  15 37036.0 1550.50   5
 -13   3 -16 93.8566 67.6345   3
  13  -3  16-2.70847 46.7036   7
  13   3  16-8.15685 56.3369   7
  13  -3  16-33.9065 52.8146   5
 -13   3 -17 35.4497 46.0694   3
  13   3  17 114.529 55.7271   7
 -13   3 -18 101.370 148.594   3
  13  -3  18 236.527 139.683   7
  13   3  18-9.77264 150.692   7
 -13   3 -19 4109.31 623.359   3
  13  -3  19 5369.42 833.993   7
  13   3  19 4385.83 689.688   7
 -13   3 -20-93.4059 120.699   3
  13   3  20-37.5738 77.6219   7
 -13   3 -21 303.003 177.713   3
  13  -3  21 11.3478 114.024   7
  13   3  21 378.074 202.904   7
  13   3  22 103.428 151.864   7
  13  -3  22-175.922 238.251   7
  13  -3  23 14791.4 1513.87   7
  13   3  23 14472.1 1350.77   7
  13  -3  24 135.371 94.6761   7
  13   3  24-144.617 146.983   7
  13   3  25 243.539 206.742   7
  13  -3  25 32.5772 88.1913   7
  13  -3  26 6.44343 96.3242   7
  13   3  26 229.754 202.775   7
  13   3  27 4932.50 850.616   7
  13   3  28 230.915 243.576   7
 -13  -5  35 7877.14 1274.80   2
 -13  -5  34 135.627 116.099   2
 -13  -5  34 51.6565 61.6284   1
 -13   5  34 120.810 169.439   1
 -13  -5  33 996.209 385.479   2
 -13  -5  33 1243.14 375.382   1
 -13   5  33 1167.65 400.503   1
 -13  -5  32 138.356 156.798   2
 -13   5  32 155.318 184.871   1
 -13  -5  32 349.465 225.099   1
 -13   5  31 7796.26 1028.55   1
 -13  -5  31 7487.01 898.697   1
 -13  -5  31 7429.86 1173.38   2
 -13  -5  30 217.332 268.476   2
 -13   5  30 231.128 215.737   1
 -13  -5  30 276.300 162.401   1
 -13   5  29 8123.28 1019.89   1
 -13  -5  29 8332.11 1215.97   2
 -13  -5  29 7988.06 885.275   1
  13  -5 -29 8784.63 1132.16   5
 -13  -5  28-138.171 220.493   2
 -13   5  28 289.980 205.311   1
  13  -5 -28-248.597 192.403   5
 -13  -5  28-46.2444 66.6340   1
 -13   5  27 5685.98 836.002   1
 -13  -5  27 5583.64 957.626   2
 -13  -5  27 6469.70 755.625   1
  13  -5 -27 6553.18 985.503   5
 -13  -5  26 120.510 96.9039   2
 -13   5  26 290.850 172.843   1
  13  -5 -26 537.848 284.979   5
 -13  -5  26 381.062 166.751   1
 -13  -5  25 532.184 286.440   2
 -13   5  25 510.375 268.753   1
 -13  -5  25 534.142 211.596   1
 -13  -5  24 237.435 204.154   2
 -13   5  24-84.9523 93.6040   1
 -13  -5  24 155.045 97.9136   1
 -13   5  23 13365.5 1199.53   1
 -13  -5  23 13242.5 945.037   1
 -13  -5  23 12682.2 1371.52   2
 -13  -5  22-18.7682 150.300   2
 -13  -5  22 143.273 105.652   1
 -13   5  22-90.6100 55.8708   1
 -13  -5  21 347.663 175.025   2
 -13   5  21 985.916 326.615   1
 -13  -5  21 1006.04 242.735   1
 -13  -5  20 813.098 211.912   1
 -13   5  20 648.779 250.019   1
 -13  -5  20 859.586 359.353   2
 -13   5  19 20422.6 1394.91   1
 -13  -5  19 20908.7 1671.63   2
 -13  -5  19 21133.2 1012.16   1
 -13   5  18 66.0603 83.6850   1
 -13  -5  18 87.8614 206.172   2
 -13   5  18-84.6691 101.515   6
 -13  -5  18-5.41030 66.7458   1
 -13   5  17 1436.81 365.637   1
 -13  -5  17 1627.15 473.552   2
 -13   5  17 1575.13 367.209   6
 -13  -5  17 1429.26 242.600   1
 -13   5  16 63.6766 102.395   1
 -13  -5  16 164.841 217.807   2
 -13  -5  16 104.632 52.7138   1
 -13   5  16 106.097 114.566   3
 -13   5  16-111.962 192.425   6
 -13   5  15 13677.8 1088.74   1
 -13  -5  15 14548.1 1344.39   2
 -13  -5  15 13731.7 661.634   1
 -13   5  15 15543.5 1233.55   3
 -13   5  15 14062.3 1098.17   6
 -13   5  14 12.9744 40.3643   1
 -13  -5  14 75.8308 148.974   2
 -13   5  14-121.749 103.493   3
 -13   5  14 78.5701 50.1438   6
 -13  -5  14 105.162 54.2846   1
 -13   5  13 214.977 107.023   1
 -13  -5  13 109.799 159.875   2
 -13   5  13 2.63133 82.7651   3
 -13  -5  13 119.695 55.6539   1
 -13   5  13 50.4294 88.1614   6
 -13  -5  12 33.9761 20.7655   1
 -13  -5  12 68.9415 117.302   2
 -13   5  12 79.5948 151.315   3
 -13   5  12-4.78321 152.281   6
  13  -5 -12 56.4182 34.3864   2
  13  -5 -12 43.3809 27.4905   2
 -13  -5  11 19906.2 1530.53   2
 -13   5  11 20593.9 1376.43   3
  13  -5 -11 18292.4 759.742   2
 -13   5  11 18769.0 1206.93   6
  13  -5 -11 16127.8 612.712   2
 -13  -5  10 1126.34 399.140   2
 -13   5  10 1730.89 420.874   3
 -13   5  10 1053.23 290.996   6
  13  -5 -10 1125.30 205.502   2
 -13   5   9 12481.6 1058.75   3
  13  -5  -9 12599.3 781.669   2
 -13   5   9 12284.4 968.500   6
 -13  -5   9 12987.8 1236.80   2
 -13  -5   8 56.8527 237.210   2
 -13   5   8 178.221 155.716   3
 -13   5   8 282.022 169.812   6
  13  -5  -7 19141.6 926.642   7
 -13   5   7 17700.5 1270.05   3
 -13   5   7 16041.6 672.467   7
 -13   5   7 18887.8 1186.87   6
 -13  -5   7 18210.7 1456.01   2
 -13  -5   6-113.553 112.289   2
  13  -5  -6 20.4830 68.8486   7
 -13   5   6-5.05224 40.3434   7
 -13   5   6 17.0773 120.570   3
 -13   5   6-110.290 149.077   6
 -13  -5   6 30.8154 24.6132   6
 -13  -5   5 743.739 315.230   2
  13  -5  -5 552.013 166.980   7
 -13   5   5 422.448 119.417   7
 -13   5   5 507.692 233.672   3
 -13   5   5 463.879 186.630   6
 -13  -5   5 439.188 84.2861   6
 -13  -5   4-73.4014 137.566   2
  13  -5  -4 332.422 145.102   7
 -13   5   4 60.3500 111.574   3
 -13  -5   3 4364.51 721.357   2
  13  -5  -3 4184.47 519.386   7
 -13   5   3 4749.02 662.572   3
 -13  -5   2 329.453 196.844   2
  13  -5  -2 158.217 116.473   7
 -13   5   2 305.360 183.932   3
  13  -5  -1 6108.21 653.969   7
 -13  -5   1 4882.34 765.549   2
 -13   5   1 5667.20 730.023   3
 -13  -5   0 117.283 164.845   2
  13  -5   0-13.2170 94.2304   7
 -13   5   0-77.3145 138.646   3
  13  -5   1 10105.3 892.830   7
 -13   5  -1 9751.41 963.548   3
 -13  -5  -1 9545.38 1064.96   2
  13  -5   2-62.8992 58.3980   7
 -13   5  -2-143.845 170.779   3
 -13  -5  -2 6.21275 19.6967   3
 -13  -5  -2 163.547 147.936   2
  13  -5   3 8131.00 835.852   7
 -13   5  -3 7561.19 851.829   3
 -13  -5  -3 8391.51 981.327   2
  13  -5   4 83.9719 165.944   7
  13   5   4-23.4769 17.1439   1
 -13   5  -4-168.918 144.679   3
  13  -5   4 34.6120 119.060   5
 -13  -5  -4 52.3631 71.0088   2
 -13   5  -5 13732.1 1204.84   3
  13  -5   5 13406.9 1110.88   7
 -13  -5  -5 13559.2 1244.28   2
  13  -5   5 13466.3 1218.32   5
  13   5   5 13019.6 512.422   1
  13  -5   6 39.5733 50.3697   7
  13   5   6 155.123 65.8098   1
 -13   5  -6 48.4672 70.0736   3
 -13  -5  -6 267.334 198.412   2
  13  -5   6 72.5554 105.038   5
  13   5   7 28277.4 951.793   1
 -13   5  -7 27965.3 1719.79   3
  13  -5   7 29000.2 1702.82   7
 -13  -5  -7 29961.3 1854.10   2
  13  -5   7 28707.2 1762.61   5
  13   5   8 293.934 103.099   1
  13  -5   8 302.075 192.720   7
 -13   5  -8 63.4940 69.5368   3
 -13  -5  -8 184.550 156.733   2
  13  -5   8 244.353 126.197   5
  13  -5   9 3275.49 590.270   7
 -13   5  -9 3736.68 652.284   3
  13   5   9 3886.75 401.632   1
 -13  -5  -9 4241.71 694.710   2
  13  -5   9 3570.41 619.509   5
 -13   5 -10 276.001 163.582   3
  13  -5  10 121.531 139.800   7
 -13  -5 -10 180.298 164.241   2
  13   5  10 24.0066 29.1750   1
  13  -5  10 164.649 110.064   5
 -13   5 -11 3902.18 670.862   3
  13  -5  11 3261.57 613.820   7
  13   5  11 4687.89 653.801   7
  13   5  11 4575.10 496.897   1
 -13  -5 -11 4367.13 699.023   2
  13  -5  11 3744.80 626.193   5
  13   5  12 83.5270 64.9423   1
 -13   5 -12 186.729 48.4224   3
  13  -5  12 238.006 196.658   7
  13   5  12-122.487 142.876   7
  13  -5  12 79.1452 106.750   5
  13   5  13 804.987 218.241   1
 -13   5 -13 754.529 306.989   3
  13  -5  13 1102.83 362.027   7
  13   5  13 795.175 290.507   7
  13  -5  13 723.973 261.240   5
 -13   5 -14 32.3520 107.530   3
  13  -5  14-76.3072 124.784   7
  13   5  14 108.328 110.523   7
  13   5  14-62.9125 124.084   1
  13  -5  14 62.9860 102.551   5
 -13   5 -15 17104.0 1440.69   3
  13  -5  15 17954.6 1557.87   7
  13   5  15 16806.4 1292.03   7
  13  -5  15 16347.9 1290.88   5
 -13   5 -16 59.9662 132.175   3
  13  -5  16 96.8919 142.706   7
  13   5  16-108.987 162.497   7
  13  -5  16-234.978 154.967   5
 -13   5 -17-196.965 149.522   3
  13  -5  17-66.8679 165.595   7
  13   5  17-152.165 147.840   7
 -13   5 -18-108.501 156.414   3
  13  -5  18-16.9676 127.384   7
  13   5  18 15.3481 54.6032   7
 -13   5 -19 6911.32 956.628   3
  13  -5  19 8508.47 1157.83   7
  13   5  19 8199.71 969.462   7
 -13   5 -20 122.936 53.4044   3
  13  -5  20 134.884 223.282   7
  13   5  20-102.072 107.495   7
 -13   5 -21 222.628 179.607   3
  13   5  21-62.5890 72.2810   7
 -13   5 -22 27.0397 85.7945   3
  13  -5  22 421.801 240.519   7
  13   5  22 155.154 163.780   7
 -13   5 -23 8478.56 1097.38   3
  13  -5  23 8842.21 1264.01   7
  13   5  23 8589.72 1049.33   7
  13   5  24 20.5927 152.573   7
 -13   7  30 41.0615 94.1910   1
 -13   7  29 6878.71 1000.17   1
 -13   7  29 5801.48 919.614   3
 -13   7  28 154.132 197.779   1
 -13  -7  28 348.913 252.803   2
 -13   7  28-42.9351 96.2519   3
 -13   7  27 8876.14 1118.31   1
 -13  -7  27 12327.5 1627.91   2
 -13   7  27 12472.7 1355.17   3
  13  -7 -27 12491.5 1555.24   5
 -13   7  26 206.667 190.953   1
 -13  -7  26 602.688 327.231   2
 -13   7  26 561.267 308.715   3
  13  -7 -26 94.3853 311.976   5
 -13   7  25 204.828 177.747   1
 -13  -7  25 21.1074 150.482   2
 -13   7  25-105.434 155.151   3
  13  -7 -25-148.837 106.628   5
 -13   7  24-75.7611 65.0046   1
 -13   7  24 25.0257 114.956   3
  13  -7 -24-247.162 217.873   5
 -13   7  23 10788.7 1163.54   1
 -13  -7  23 9470.29 1371.69   2
 -13   7  23 9555.69 1151.39   3
 -13   7  23 10498.4 1084.77   6
  13  -7 -23 10513.5 1396.26   5
 -13   7  22-28.9706 133.481   1
 -13  -7  22-93.0823 154.626   2
 -13   7  22-151.540 173.097   3
 -13   7  22-115.266 118.373   6
  13  -7 -22 44.9016 95.3623   5
 -13   7  21 1637.17 427.948   1
 -13  -7  21 1882.61 613.954   2
 -13   7  21 2324.02 580.971   3
 -13   7  21 2018.82 471.014   6
  13  -7 -21 1759.00 542.985   5
 -13   7  20 328.075 200.649   1
 -13  -7  20 17.4376 157.400   2
 -13   7  20 516.499 271.766   3
 -13   7  20 522.331 273.023   6
  13  -7 -20 79.3644 59.5888   5
 -13   7  19 8292.61 963.416   1
 -13  -7  19 7779.30 1188.47   2
 -13   7  19 9468.19 1107.57   3
 -13   7  19 10058.4 1019.03   6
  13  -7 -19 7768.93 1171.79   5
 -13   7  18-33.7890 76.6194   3
 -13   7  18 67.1191 115.877   6
  13  -7 -18-125.383 159.289   5
 -13  -7  17 625.226 328.298   2
 -13   7  17 801.843 311.777   3
 -13   7  17 917.020 291.822   6
  13  -7 -17 1076.09 410.698   5
 -13  -7  16-228.342 277.951   2
 -13   7  16-111.262 132.694   3
 -13   7  16 156.733 173.027   6
  13  -7 -16 44.2984 162.197   5
 -13  -7  15 10884.8 1384.76   2
 -13   7  15 12528.5 1251.62   3
 -13   7  15 15030.0 1185.90   6
  13  -7 -15 12260.5 1451.73   5
 -13  -7  14 499.083 273.708   2
 -13   7  14 158.042 108.617   3
 -13   7  14 176.494 142.712   6
  13  -7 -14 93.4166 121.753   5
 -13  -7  13 192.948 169.023   2
 -13   7  13-105.549 161.879   3
 -13   7  13-73.8579 116.638   6
  13  -7 -13-42.6669 161.879   5
 -13  -7  12 212.687 251.793   2
 -13   7  12 30.6969 89.4348   3
 -13   7  12-132.438 132.457   6
  13  -7 -12 160.986 100.497   5
 -13   7  11 8203.38 1003.23   3
 -13   7  11 10239.8 952.925   6
  13  -7 -11 8480.15 1181.30   5
 -13  -7  11 8351.53 1167.10   2
 -13  -7  10 781.884 347.202   2
 -13   7  10 535.384 258.265   3
  13  -7 -10 1018.83 423.463   5
 -13   7   9 6932.86 918.482   3
  13  -7  -9 5644.77 943.396   5
 -13  -7   9 6750.49 1050.36   2
 -13  -7   8 164.082 189.112   2
 -13   7   8-74.6022 62.2226   3
  13  -7  -8 397.834 206.603   5
 -13   7   7 11493.2 1196.85   3
  13  -7  -7 10321.1 950.130   2
  13  -7  -7 10157.6 1274.32   5
 -13  -7   7 10431.2 1298.33   2
  13   7  -6 202.364 147.117   3
 -13  -7   6-72.9955 76.9910   2
 -13   7   6 171.333 190.669   3
  13  -7  -6-8.07281 98.6870   2
  13  -7  -6 48.6502 98.0782   5
  13   7  -5 170.869 125.721   3
 -13  -7   5-28.8957 135.615   2
 -13   7   5 168.196 145.021   3
  13  -7  -5 182.205 152.175   2
  13  -7  -5 318.216 253.178   5
  13   7  -4 346.965 189.888   3
 -13  -7   4 33.5375 156.042   2
 -13   7   4 46.5480 132.310   3
  13  -7  -4 24.3581 165.074   5
  13  -7  -4-4.63932 86.4343   2
  13   7  -3 11269.2 979.566   3
 -13   7   3 10083.8 1135.96   3
  13  -7  -3 10529.6 1111.63   2
  13  -7  -3 10414.5 1266.28   5
 -13  -7   3 9668.90 1257.78   2
 -13  -7   2-172.772 241.570   2
 -13   7   2-196.967 170.956   3
  13  -7  -2-169.432 148.050   5
  13  -7  -2-56.3941 36.5899   2
 -13   7   1 14732.1 1392.22   3
  13  -7  -1 15047.0 1515.31   5
 -13  -7   1 12472.3 1433.73   2
 -13  -7   0 194.325 220.420   2
  13  -7   0 26.9844 67.3413   7
 -13   7   0 171.536 183.064   3
  13  -7   0-96.5536 197.732   5
  13  -7   1 10321.4 1088.31   7
 -13   7  -1 9921.53 1161.11   3
  13  -7   1 9359.77 1182.62   5
 -13  -7  -1 9938.38 1273.47   2
  13  -7   2 52.3051 58.7568   7
  13  -7   2 13.3438 67.6138   5
  13  -7   3 3340.04 633.937   7
 -13   7  -3 3445.75 699.857   3
  13  -7   3 3530.31 705.776   5
 -13  -7  -3 4033.39 819.668   2
  13  -7   4 50.6200 129.352   7
 -13   7  -4 7.74006 193.572   3
  13  -7   4-2.10283 166.015   5
 -13  -7  -4 221.814 182.091   2
  13  -7   5 3648.03 691.533   7
 -13   7  -5 4405.47 791.740   3
  13  -7   5 3083.31 665.133   5
 -13  -7  -5 3523.04 728.364   2
  13  -7   6 122.736 137.236   7
 -13   7  -6 241.644 252.982   3
  13  -7   6 120.400 107.415   5
 -13  -7  -6 253.248 183.792   2
 -13   7  -7 9590.17 1182.89   3
  13  -7   7 8055.22 1050.33   7
 -13  -7  -7 8067.76 1089.44   2
  13  -7   7 8552.82 1133.45   5
  13  -7   8-9.99199 137.249   7
 -13   7  -8 168.259 162.718   3
  13  -7   8 233.798 212.187   5
 -13  -7  -8-9.66596 100.236   2
  13  -7   9 2604.22 611.403   7
 -13   7  -9 2240.65 575.491   3
  13  -7   9 2653.01 634.610   5
 -13  -7  -9 2284.03 580.432   2
  13  -7  10 58.3794 125.581   7
 -13   7 -10 67.1372 150.309   3
 -13  -7 -10-79.2251 134.948   2
  13  -7  10 225.816 273.322   5
 -13   7 -11 5615.90 918.797   3
  13  -7  11 5637.70 934.158   7
 -13  -7 -11 5457.20 893.152   2
  13  -7  11 5337.46 898.103   5
 -13   7 -12-216.981 110.903   3
  13  -7  12-223.641 191.698   7
  13   7  12 260.059 184.842   7
 -13  -7 -12 124.043 152.772   2
  13  -7  12 138.118 72.6770   5
  13  -7  13 729.294 338.182   7
 -13   7 -13 774.614 345.472   3
  13   7  13 925.750 327.361   7
 -13  -7 -13 686.847 316.360   2
  13  -7  13 403.915 272.770   5
 -13   7 -14-139.660 200.462   3
  13  -7  14 52.8149 75.9588   7
  13   7  14-108.907 53.4115   7
  13  -7  14-17.3742 90.9366   5
 -13   7 -15 16831.8 1672.87   3
  13  -7  15 18751.8 1818.09   7
  13   7  15 17175.9 1405.68   7
  13  -7  15 16164.9 1549.73   5
 -13   7 -16-0.77787 170.924   3
  13  -7  16 94.4671 216.666   7
  13   7  16-93.3429 140.103   7
 -13   7 -17-269.168 215.659   3
  13  -7  17-23.2436 106.470   7
 -13   7 -18-156.504 242.620   3
  13  -7  18 285.437 255.067   7
 -13   7 -19 5288.78 966.465   3
 -13   9  21 1254.33 460.655   3
 -13   9  20-254.373 257.846   3
 -13   9  19 5075.31 907.778   3
 -13   9  18-37.8212 164.524   3
  13  -9 -18 64.1610 192.204   5
 -13   9  17 966.808 393.020   3
  13  -9 -17 605.356 350.383   5
 -13   9  16 366.115 232.171   3
  13  -9 -16-27.6395 133.194   5
  13  -9 -15 9665.36 1474.97   5
 -13   9  15 10352.7 1294.70   3
 -13  -9  15 9644.85 1492.96   2
 -13  -9  14 171.809 271.558   2
 -13   9  14-39.7922 67.8828   3
  13  -9 -14 530.389 374.077   5
 -13  -9  13-277.890 291.717   2
 -13   9  13-186.271 175.965   3
 -13  -9  12 203.797 160.085   2
 -13   9  12-116.368 153.972   3
  13  -9 -12 257.757 257.553   5
 -13   9  11 8429.96 1158.23   3
  13  -9 -11 9691.29 1451.65   5
 -13  -9  11 9017.86 1418.36   2
 -13  -9  10 1378.40 559.279   2
 -13   9  10 640.167 300.409   3
  13  -9 -10 847.681 514.082   5
 -13  -9   9 5272.18 1091.18   2
 -13   9   9 5118.01 959.214   3
  13  -9  -9 4804.51 1008.53   5
 -13  -9   8-470.374 325.630   2
  13  -9  -8 414.123 391.128   5
 -13   9   8-68.1105 171.461   3
 -13   9   7 8817.44 1203.39   3
  13  -9  -7 8995.84 1370.03   5
 -13  -9   7 9983.71 1494.56   2
 -13  -9   6 317.060 253.141   2
 -13   9   6 187.951 187.988   3
  13  -9  -6 187.359 195.249   5
 -13   9   5-111.361 77.1519   3
  13  -9  -5 209.567 156.195   5
 -13  -9   4-370.131 289.227   2
 -13   9   4 41.1681 102.628   3
 -13  -9   3 4515.68 1008.52   2
 -13   9   3 5118.29 935.349   3
  13  -9  -3 4723.52 979.998   5
 -13  -9   2 580.113 335.564   2
 -13   9   2 88.3519 143.782   3
  13  -9  -2 260.807 285.623   5
 -13   9   1 8512.30 1219.56   3
  13  -9  -1 8047.09 1284.25   5
 -13  -9   1 7614.10 1293.19   2
 -13   9   0 298.831 232.662   3
  13  -9   0 28.5229 165.575   5
 -13  -9   0-259.092 239.930   2
 -13   9  -1 7713.07 1168.76   3
  13  -9   1 7898.56 1256.25   5
 -13  -9  -1 7307.58 1242.34   2
  13  -9   2 32.2540 127.955   5
 -13   9  -2 113.037 115.569   3
 -13  -9  -2-161.018 185.853   2
 -13   9  -3 3086.72 741.240   3
  13  -9   3 2752.96 753.782   5
  13  -9   3 1909.09 605.524   2
 -13  -9  -3 2563.09 735.846   2
 -13   9  -4 103.857 193.274   3
  13  -9   4-240.730 223.145   5
  13  -9   4-20.5225 71.1550   2
 -13  -9  -4 317.815 329.925   2
  13  -9   5 3298.78 800.758   5
  13  -9   5 2482.12 727.209   2
 -13  -9  -5 3878.12 885.709   2
  13  -9   6 183.329 239.440   5
  13  -9   6-236.001 222.545   2
 -13  -9  -6 14.3110 60.0960   2
  13  -9   7 7809.08 1286.15   2
 -13  -9  -7 8754.67 1273.37   2
  13  -9   7 8433.86 1319.55   5
  13  -9   8 29.5813 134.119   5
 -13  -9  -8-22.3316 75.5704   2
  13  -9   9 1273.14 524.188   5
 -13  -9  -9 1861.20 578.734   2
  13  -9   9 1374.85 561.228   2
  13  -9  10-295.144 249.322   5
  13  -9  10 218.266 224.293   2
 -14   0  38 4471.32 831.381   1
 -14   0  37 223.234 225.317   1
 -14   0  36 5040.80 852.388   1
 -14   0  35 330.592 265.304   1
 -14   0  34 16523.7 1486.17   1
 -14   0  33 133.208 169.860   1
 -14   0  32 11322.1 1188.77   1
 -14   0  31 17.1028 62.6605   1
  14   0 -31 201.845 189.758   4
 -14   0  30 918.181 333.755   1
 -14   0  30 1047.87 294.582   2
  14   0 -30 672.578 267.363   4
 -14   0  29-46.8924 73.6636   2
 -14   0  29 69.3478 117.607   1
  14   0 -29 177.204 129.492   4
 -14   0  28 10564.1 870.867   2
 -14   0  28 10882.1 1056.76   1
 -14   0  27-4.89825 65.1150   2
 -14   0  27 215.375 138.529   1
 -14   0  26 7235.44 700.086   2
 -14   0  26 7023.45 809.929   1
 -14   0  25-85.9309 86.3543   1
 -14   0  25-65.6829 92.4681   2
 -14   0  24 17623.2 1051.77   2
 -14   0  24 15227.1 1153.83   1
 -14   0  23 143.237 105.414   2
 -14   0  23 27.0631 123.499   1
 -14   0  22 227.418 95.5086   2
 -14   0  22 110.488 51.3618   1
 -14   0  21 19.9728 45.0324   2
 -14   0  21 83.6392 118.606   1
 -14   0  20 23138.6 1116.37   2
 -14   0  20 20732.3 1225.44   1
 -14   0  19-105.474 115.803   1
 -14   0  19 0.24048 49.8188   2
 -14   0  18 2522.83 404.582   1
 -14   0  18 2723.37 369.532   2
 -14   0  17-79.4815 71.5402   1
 -14   0  17 86.6517 83.1917   2
  14   0 -17 55.4129 38.5375   7
  14   0 -16 40220.7 1496.65   7
 -14   0  16 36246.3 1461.78   1
 -14   0  16 38839.5 1387.29   2
 -14   0  15-26.3115 59.9543   2
  14   0 -15-48.0358 27.5819   7
  14   0 -15-23.2617 45.8191   2
 -14   0  15-2.08237 67.5493   1
 -14   0  14 3247.35 414.172   1
  14   0 -14 3328.42 414.053   2
 -14   0  14 3233.45 396.123   2
 -14   0  13 84.2995 81.7121   2
  14   0 -13 90.7410 71.9475   2
 -14   0  13-60.7133 95.5772   1
 -14   0  12 30302.5 1227.45   1
  14   0 -12 33468.7 1321.19   2
 -14   0  12 31940.8 1250.06   2
 -14   0  11 36.5684 86.8189   1
  14   0 -11 6.98285 45.1644   2
 -14   0  11-132.159 107.723   2
 -14   0  10 1647.13 270.535   1
  14   0 -10 1486.73 281.542   2
 -14   0  10 1390.63 261.624   2
 -14   0   9-85.2344 47.8097   1
  14   0  -9-44.9835 49.9938   2
 -14   0   9-57.8012 62.0655   2
 -14   0   8 30654.4 1182.90   1
  14   0  -8 31901.0 1201.56   1
 -14   0   8 28712.9 1215.94   2
  14   0  -8 31997.9 1288.53   2
  14   0  -7 57.5436 52.0740   2
 -14   0   7-27.8522 74.8207   6
 -14   0   7 10.7113 38.6619   2
  14   0  -7-13.8804 52.4181   1
  14   0  -6 26725.5 1063.12   1
 -14   0   6 23962.1 1099.43   6
 -14   0   6 25124.6 1167.04   2
  14   0  -6 25705.0 1199.99   2
  14   0  -5 52.0224 54.7780   2
  14   0  -5-17.3442 39.2836   1
 -14   0   5 41.7974 42.3075   6
 -14   0   5-61.2451 93.9145   2
  14   0  -4 21157.6 937.400   1
 -14   0   4 20122.9 1002.51   6
 -14   0   4 19011.7 1036.67   2
  14   0  -3-44.0717 70.0259   1
 -14   0   3 6.53000 56.2699   6
 -14   0   3-4.99245 54.7601   2
  14   0  -2 3555.94 389.515   1
 -14   0   2 3747.28 427.328   6
 -14   0   2 3939.52 470.826   2
  14   0  -1-81.1984 105.157   7
 -14   0   1 33.3626 72.0260   6
  14   0   0 5076.99 521.080   7
 -14   0   0 4239.89 469.516   6
  14   0   1 32.9808 58.6905   7
  14   0   2 22394.1 1136.00   7
 -14   0  -2 22293.4 856.726   3
  14   0   3 50.1022 72.0428   7
 -14   0  -3-16.5070 37.9768   3
 -14   0  -4 21841.2 819.396   3
  14   0   4 22421.0 1166.59   7
 -14   0  -5-47.4647 57.4530   3
  14   0   5 32.3406 53.4834   7
 -14   0  -6 14784.9 667.014   3
  14   0   6 14991.6 1013.95   7
  14   0   7-19.0505 52.1550   7
 -14   0  -7 36.0231 43.5523   3
 -14   0  -8 5127.00 387.930   3
  14   0   8 5164.40 623.458   7
 -14   0  -9-9.59921 35.1564   3
  14   0   9-37.1030 89.9408   7
  14   0   9 9.93484 43.2209   4
 -14   0 -10 54800.2 1231.86   3
  14   0  10 54649.5 2102.08   7
  14   0  10 54512.2 1709.55   4
 -14   0 -11-11.4503 42.9878   3
  14   0  11-47.6361 120.422   7
  14   0  11-84.1984 79.9171   4
 -14   0 -12 3634.16 317.168   3
  14   0  12 3778.93 567.840   7
  14   0  12 3545.37 404.195   4
 -14   0 -13 37.2297 42.4282   3
  14   0  13 167.187 167.713   7
  14   0  13 20.9819 54.9303   4
  14   0  14 2869.48 333.555   4
  14   0  14 2203.73 450.597   7
  14   0  15-267.011 196.328   7
  14   0  16 960.689 291.458   7
  14   0  17 190.439 188.027   7
  14   0  18 15707.8 1334.46   7
  14   0  19 118.818 206.235   7
  14   0  20-84.1858 127.958   7
  14   0  21-115.181 107.910   7
  14   0  22 12960.3 1306.24   7
  14   0  23 176.249 119.412   7
  14   0  24 760.939 313.899   7
  14   0  25 352.324 208.613   7
  14   0  26 21570.0 1823.82   7
  14   0  27 538.941 355.711   7
  14   0  28 715.707 322.307   7
 -14  -2  38 1922.80 539.997   1
 -14  -2  37-35.4617 59.1952   1
 -14   2  37-104.693 176.483   1
 -14  -2  36 3823.39 729.976   1
 -14   2  36 4330.95 812.408   1
 -14  -2  35-177.983 184.170   1
 -14   2  35 346.803 250.565   1
 -14  -2  35 141.313 128.631   2
 -14  -2  34 11055.8 1188.34   1
 -14   2  34 11757.3 1293.18   1
 -14  -2  34 10597.6 1190.62   2
 -14  -2  33 296.670 224.291   1
 -14   2  33 371.992 251.053   1
 -14  -2  33 143.032 137.053   2
 -14  -2  32 8464.08 994.372   1
 -14  -2  32 8532.75 1034.93   2
 -14   2  32 8572.91 1054.27   1
 -14  -2  31 223.145 201.779   1
 -14   2  31-171.200 144.666   1
 -14  -2  31 145.847 153.623   2
 -14   2  30 1743.33 434.069   1
 -14  -2  30 2670.04 544.341   1
 -14  -2  30 2285.18 517.789   2
 -14  -2  29 34.1663 119.911   1
 -14   2  29-58.9475 115.217   1
 -14  -2  29 25.4513 89.3148   2
  14  -2 -29 21.1953 76.8273   4
 -14  -2  28 9982.29 995.633   1
 -14  -2  28 11318.2 1119.29   2
 -14   2  28 10871.7 1115.40   1
  14  -2 -28 11019.4 1108.65   4
 -14   2  27-190.357 176.256   1
 -14  -2  27 4.79170 38.1815   1
 -14  -2  27-210.805 142.167   2
  14  -2 -27-71.1203 138.411   4
 -14  -2  26 7219.99 866.916   2
 -14   2  26 5954.41 793.480   1
  14  -2 -26 5735.14 799.703   4
 -14  -2  26 6958.07 780.988   1
 -14  -2  25-1.17750 95.5816   1
 -14   2  25 71.2673 172.831   1
 -14  -2  25-36.3167 119.848   2
  14  -2 -25 288.372 171.852   4
 -14  -2  24 31853.2 1758.44   2
 -14   2  24 33532.8 1782.51   1
  14  -2 -24 31511.9 1845.53   4
 -14  -2  24 29143.1 1515.97   1
 -14  -2  23 90.3782 126.363   1
 -14   2  23-21.8209 196.555   1
 -14  -2  23-151.435 39.5674   2
  14  -2 -23-88.9705 127.053   4
 -14  -2  22 96.6674 67.8861   1
 -14   2  22 169.732 70.5058   1
  14  -2 -22 59.4280 41.7528   7
 -14  -2  22 15.7123 51.8390   2
  14  -2 -22 220.328 163.209   4
 -14   2  21-20.4316 118.891   1
  14  -2 -21 4.72183 13.4985   7
 -14  -2  21-16.5230 45.9766   2
  14  -2 -21-145.046 146.712   4
 -14  -2  21-25.6854 49.5216   1
 -14  -2  20 22003.7 1380.83   2
 -14   2  20 19304.5 1252.26   1
  14  -2 -20 19329.9 656.532   7
 -14  -2  20 19377.8 1105.23   1
  14  -2 -20 19044.7 1399.29   4
  14  -2 -19 233.424 69.5487   7
 -14  -2  19 123.341 72.9231   2
 -14  -2  19 238.049 102.367   1
 -14   2  19 203.386 151.682   1
  14  -2 -19 180.019 156.998   4
 -14  -2  18 7020.49 759.557   2
 -14   2  18 6270.16 681.439   1
  14  -2 -18 6586.99 371.495   7
 -14  -2  18 6610.29 608.838   1
  14  -2 -18 6330.96 784.775   4
  14  -2 -17 129.121 49.0934   7
 -14  -2  17 393.054 157.553   1
 -14  -2  17-4.13553 59.3419   2
 -14   2  17 111.346 93.1423   1
  14  -2 -17 140.859 157.911   4
 -14  -2  16 15483.1 1103.21   2
 -14   2  16 13995.8 992.602   1
  14  -2 -16 14161.3 550.043   7
 -14  -2  16 14906.5 865.198   1
  14  -2 -16 14606.5 1185.60   4
 -14  -2  15-13.8377 49.3667   1
  14  -2 -15 87.6173 50.1626   7
 -14  -2  15 16.9080 57.7188   2
 -14   2  15 159.289 113.692   1
 -14  -2  14 310.150 87.5001   1
 -14  -2  14 337.880 156.260   2
  14  -2 -14 405.356 100.552   7
 -14   2  14 358.921 182.539   1
  14  -2 -14 279.452 79.3438   2
  14  -2 -14 136.277 108.902   4
 -14  -2  13-2.43614 111.750   2
 -14   2  13-69.3576 137.220   1
  14  -2 -13-15.5741 24.1314   7
  14  -2 -13-16.6401 16.4145   2
 -14  -2  13 39.7154 52.8301   1
  14  -2 -13 109.431 136.194   4
 -14   2  12 22948.5 1193.77   1
  14  -2 -12 22589.2 807.189   2
 -14  -2  12 21818.1 927.079   1
  14  -2 -12 23795.6 737.249   7
  14  -2 -12 22179.4 1426.67   4
 -14  -2  12 24410.0 1351.82   2
 -14  -2  11 424.803 182.807   2
  14  -2 -11 246.814 89.5496   2
 -14   2  11 140.146 131.200   1
 -14  -2  11 204.528 102.376   1
  14  -2 -11 197.531 53.4891   7
  14  -2 -11 693.740 295.721   4
  14  -2 -10 525.313 137.414   2
 -14  -2  10 522.636 175.546   2
 -14   2  10 396.770 112.228   1
 -14  -2  10 475.241 139.757   1
  14  -2 -10 664.072 133.214   7
 -14   2  10 720.357 207.893   6
  14   2 -10 568.579 143.388   1
  14  -2 -10 943.139 312.428   4
  14  -2  -9 42.7083 47.3480   2
 -14   2   9 31.5348 114.400   1
 -14  -2   9-55.3934 81.6850   2
 -14  -2   9 70.1689 27.0949   1
  14  -2  -9 43.7553 35.3245   7
 -14   2   9-104.635 129.702   6
  14   2  -9 44.6736 56.5659   1
  14  -2  -8 37496.2 1079.29   7
 -14   2   8 38651.9 1548.02   6
  14  -2  -8 38397.2 1231.37   2
 -14  -2   8 39049.1 1708.57   2
  14  -2  -8 38050.6 1826.96   4
  14   2  -8 38266.1 1124.92   1
 -14  -2   7 30.9228 71.1879   2
  14  -2  -7-12.6581 29.9342   7
 -14   2   7 22.0663 65.4831   6
  14   2  -7 40.9414 36.7816   1
  14  -2  -7-18.9436 36.1082   2
 -14  -2   6 24214.0 1127.91   3
  14   2  -6 23614.3 848.396   1
 -14   2   6 23236.7 1192.90   6
  14  -2  -6 23402.5 924.133   7
 -14  -2   6 22763.9 1008.17   6
  14  -2  -6 23114.6 1011.13   2
 -14  -2   6 23695.5 1341.29   2
  14  -2  -6 26899.6 1503.35   4
 -14  -2   5 79.3323 49.4969   3
  14  -2  -5 120.369 68.1950   7
 -14   2   5 93.2264 69.2001   6
 -14  -2   5 42.6514 58.5764   6
  14  -2  -5 97.7006 74.8374   2
  14  -2  -5 280.810 213.596   4
  14   2  -5 116.337 50.8383   1
 -14  -2   5 81.8761 75.5787   2
 -14  -2   4 27680.4 1120.39   3
  14   2  -4 27106.8 871.097   1
  14  -2  -4 25951.1 1045.74   7
 -14   2   4 27517.6 1296.51   6
 -14  -2   4 26544.0 1039.10   6
  14  -2  -4 25770.8 1119.97   2
 -14  -2   4 26362.2 1421.65   2
  14  -2  -4 26905.5 1480.88   4
 -14  -2   3 15.4026 47.1742   3
  14   2  -3-22.5601 41.8685   1
  14  -2  -3 105.903 80.2170   7
 -14   2   3 51.1194 105.138   6
 -14  -2   3 30.9421 40.1617   6
 -14  -2   3-3.54005 48.0034   2
  14  -2  -3-144.764 57.2857   4
 -14  -2   2 709.990 165.772   3
  14   2  -2 910.369 162.337   1
  14  -2  -2 1051.31 215.796   7
 -14   2   2 715.206 199.603   6
 -14  -2   2 833.316 186.608   6
 -14   2   2 945.583 235.708   3
 -14  -2   2 989.679 269.288   2
  14  -2  -2 979.630 261.080   4
  14   2  -1 88.2091 53.1343   1
 -14  -2   1 74.9992 20.4525   3
  14  -2  -1 83.0273 78.0091   7
 -14   2   1 51.4648 97.3436   6
 -14  -2   1-0.17799 55.5489   6
 -14   2   1 32.6284 31.1279   3
 -14  -2   1 166.768 71.8837   2
  14  -2  -1-37.0323 102.103   4
 -14  -2   0 6758.05 444.676   3
  14  -2   0 6827.08 598.498   7
 -14   2   0 7962.00 652.272   3
 -14  -2   0 7471.91 764.992   2
  14  -2   0 6911.39 726.598   4
 -14  -2  -1 345.001 91.6029   3
 -14   2  -1 226.378 111.643   3
 -14  -2  -1 309.170 147.495   2
  14  -2   1 199.312 85.5240   4
  14  -2   1 176.760 129.656   7
 -14  -2  -2 30240.8 780.135   3
  14  -2   2 30030.8 1331.26   7
 -14   2  -2 31208.5 1317.02   3
 -14  -2  -2 30181.5 1551.95   2
  14  -2   2 31725.4 1521.18   4
 -14  -2  -3 575.897 93.6310   3
  14  -2   3 403.520 167.561   7
 -14   2  -3 788.877 217.577   3
  14   2   3 532.186 152.261   6
 -14  -2  -3 723.529 240.940   2
  14  -2   3 635.252 197.554   4
 -14   2  -4 14073.4 891.785   3
  14  -2   4 12969.4 925.051   7
  14   2   4 13045.2 761.399   6
 -14  -2  -4 13274.5 1039.26   2
  14  -2   4 13008.2 975.098   4
  14  -2   5-43.9849 52.4515   7
  14   2   5 20.6632 76.6200   6
 -14  -2  -5 31.7587 65.7479   2
 -14   2  -5-162.824 130.836   3
  14  -2   5-51.8733 138.332   4
  14  -2   6 9002.60 805.747   7
  14   2   6 9093.29 803.836   7
  14  -2   6 9058.07 788.187   4
 -14   2  -6 8638.18 716.043   3
 -14   2  -7-3.89499 34.3389   3
  14  -2   7 141.514 105.213   7
 -14   2  -8 2841.50 419.010   3
  14  -2   8 3383.14 519.677   7
  14   2   8 2922.64 466.773   7
 -14   2  -9 75.3549 92.8139   3
  14  -2   9-23.2397 50.0127   7
  14   2   9 38.3327 73.6072   7
 -14   2 -10 28694.3 1344.93   3
  14  -2  10 27794.1 1556.25   7
  14   2  10 26642.3 1464.80   7
 -14   2 -11 80.2302 100.071   3
  14  -2  11 203.998 161.334   7
  14   2  11 55.1939 94.8708   7
 -14   2 -12 5820.78 614.255   3
  14  -2  12 4450.81 647.297   7
  14   2  12 4922.23 655.080   7
 -14   2 -13 98.3231 65.9525   3
  14   2  13-83.4723 107.404   7
 -14   2 -14 6970.73 685.418   3
  14  -2  14 6071.61 787.724   7
  14   2  14 5885.96 745.816   7
 -14   2 -15 7.89050 58.6759   3
  14   2  15 128.413 125.798   7
  14  -2  15 24.6435 41.8354   5
 -14   2 -16 891.426 252.104   3
  14  -2  16 1005.92 341.849   7
  14   2  16 744.478 306.979   7
 -14   2 -17-12.1635 33.4841   3
  14  -2  17 39.6129 103.788   7
  14   2  17 59.1451 57.5164   7
 -14   2 -18 29430.8 1467.30   3
  14   2  18 31722.5 1865.15   7
  14  -2  18 30825.8 1954.98   7
 -14   2 -19-91.8934 123.405   3
  14  -2  19-267.224 210.227   7
  14   2  19-66.4636 73.4670   7
  14  -2  20 173.805 164.946   7
  14   2  20 29.0752 121.678   7
  14  -2  21 83.3866 129.152   7
  14   2  21-43.2949 94.9816   7
  14  -2  22 7760.77 1074.30   7
  14   2  22 7661.59 987.766   7
  14  -2  23 106.530 129.452   7
  14   2  23 233.974 210.661   7
  14  -2  24 323.991 267.917   7
  14   2  24 46.0434 101.525   7
  14  -2  25-26.6348 151.010   7
  14   2  25-35.1772 189.256   7
  14  -2  26 14083.2 1545.41   7
  14   2  26 11545.5 1310.63   7
  14   2  27 53.1753 130.301   7
  14   2  28 432.642 226.929   7
 -14  -4  38 2356.32 646.337   2
 -14  -4  37-12.6499 88.8609   1
 -14  -4  37-118.538 153.050   2
 -14  -4  36 2290.70 562.323   1
 -14  -4  36 1449.22 512.240   2
 -14   4  35 60.2318 123.840   1
 -14  -4  35-176.676 153.147   1
 -14  -4  35 259.953 216.077   2
 -14  -4  34 10782.7 1172.76   1
 -14   4  34 9707.58 1196.66   1
 -14  -4  34 9133.24 1270.56   2
 -14   4  33 50.1038 74.1986   1
 -14  -4  33 168.063 165.338   2
 -14  -4  33 88.3619 109.749   1
 -14  -4  32 8436.97 984.035   1
 -14  -4  32 7104.13 1076.66   2
 -14   4  32 7347.96 1019.44   1
 -14   4  31 53.0735 81.5277   1
 -14  -4  31 308.261 262.873   2
 -14  -4  31 55.3432 99.2200   1
 -14  -4  30 1438.65 482.190   2
 -14  -4  30 1355.73 364.938   1
 -14   4  30 2040.09 523.098   1
 -14  -4  29-90.0778 155.734   2
 -14  -4  29-68.5661 69.7613   1
 -14   4  29-53.4712 103.142   1
 -14  -4  28 8233.34 875.904   1
 -14  -4  28 7910.82 1082.21   2
 -14   4  28 8705.19 1027.50   1
 -14  -4  27 132.143 125.141   1
 -14  -4  27-62.9746 53.3364   2
 -14   4  27-94.6332 131.054   1
 -14  -4  26 5314.11 661.468   1
 -14  -4  26 5249.29 853.321   2
 -14   4  26 5552.98 791.875   1
 -14  -4  25 250.410 121.715   1
 -14  -4  25 312.206 245.984   2
 -14   4  25 216.300 222.348   1
 -14   4  24 20673.0 1489.67   1
 -14  -4  24 21310.1 1693.18   2
 -14  -4  24 22876.3 1300.67   1
 -14  -4  23 203.749 128.858   1
 -14  -4  23 27.6341 221.839   2
 -14   4  23 88.8014 117.484   1
 -14  -4  22 568.203 193.493   1
 -14  -4  22 496.031 254.549   2
 -14   4  22 488.418 218.469   1
 -14  -4  21 35.3023 32.7229   1
 -14  -4  21 138.191 117.984   2
 -14   4  21-145.293 124.315   1
 -14   4  20 16762.3 1248.50   1
 -14  -4  20 14573.4 1329.02   2
 -14  -4  20 15801.0 942.643   1
 -14  -4  19 152.544 165.866   2
 -14   4  19 159.850 153.657   1
 -14  -4  19 195.528 103.131   1
 -14   4  18 4626.94 650.278   1
 -14  -4  18 4882.61 743.530   2
 -14  -4  18 5186.53 506.388   1
 -14  -4  17 240.644 131.557   2
 -14   4  17 250.300 159.720   1
 -14  -4  17 370.731 131.051   1
 -14   4  16 19635.8 1269.77   1
 -14  -4  16 18543.0 1434.62   2
 -14  -4  16 18929.9 879.049   1
 -14  -4  15 182.778 71.6064   1
 -14   4  15 209.930 121.834   1
 -14  -4  15 444.286 232.149   2
 -14   4  15 145.455 151.393   6
 -14   4  14 974.822 292.562   1
 -14  -4  14 668.077 277.176   2
 -14   4  14 1164.83 302.313   6
 -14  -4  14 1111.47 188.735   1
 -14   4  13 158.456 131.248   1
 -14  -4  13-0.49124 128.563   2
 -14  -4  13 39.0854 44.7155   1
 -14   4  13-3.30280 64.9778   6
 -14  -4  12 24969.8 1609.03   2
 -14   4  12 21899.6 1290.42   1
 -14  -4  12 22621.1 782.848   1
  14  -4 -12 21955.0 654.908   2
 -14   4  12 21877.8 1299.88   6
  14  -4 -12 18063.8 566.709   2
 -14  -4  11 171.714 63.9926   1
 -14  -4  11 255.593 172.352   2
 -14   4  11 115.170 98.8395   6
  14  -4 -11 175.862 62.3005   2
  14  -4 -10 80.4022 41.0105   7
 -14  -4  10 125.952 101.697   2
 -14   4  10-65.2369 100.226   6
  14  -4 -10 68.5751 44.9957   2
 -14  -4   9-106.101 147.263   2
  14  -4  -9 47.0256 54.0410   7
 -14   4   9-47.3958 133.582   6
 -14   4   9-22.0309 99.0354   3
  14  -4  -9-5.18543 32.6717   2
  14  -4  -8 24068.8 909.129   7
 -14   4   8 21879.7 1325.86   3
 -14   4   8 22831.2 1283.43   6
  14  -4  -8 21442.6 884.050   2
 -14  -4   8 21843.9 1512.12   2
 -14  -4   7 30.4732 136.537   2
  14  -4  -7 72.9728 34.2886   7
 -14   4   7 286.345 152.624   6
 -14   4   7 298.833 121.459   3
  14  -4  -6 14136.0 787.270   7
 -14   4   6 12521.3 990.668   3
 -14   4   6 12771.4 966.563   6
 -14  -4   6 14445.0 694.171   6
 -14  -4   6 12065.8 1118.17   2
 -14  -4   5 61.2025 51.8720   2
  14  -4  -5 128.549 76.0985   7
 -14   4   5-27.2533 43.5394   3
 -14   4   5 15.3274 89.6709   6
 -14  -4   5 16.6020 42.5060   6
  14  -4  -4 15172.2 883.044   7
 -14   4   4 13957.1 1052.12   3
 -14   4   4 14135.3 750.720   7
 -14   4   4 14348.2 1039.69   6
 -14  -4   4 14940.7 618.825   6
 -14  -4   4 14191.8 1227.52   2
 -14  -4   3 68.3272 66.7170   2
  14  -4  -3 41.2433 63.4821   7
 -14   4   3-83.9008 155.040   6
 -14   4   3 0.73390 40.8511   3
 -14  -4   3-27.9639 28.5485   6
 -14  -4   2 2456.97 520.681   2
 -14  -4   2 1256.81 243.172   3
 -14   4   2 2518.16 453.570   3
  14  -4  -2 2538.06 385.000   7
  14  -4  -1 318.343 175.965   7
 -14  -4   1 176.041 75.3843   3
 -14   4   1 154.661 135.123   3
 -14  -4   1 19.8018 62.6839   2
  14   4   0 6937.90 282.769   1
 -14  -4   0 8555.31 570.953   3
 -14   4   0 8166.46 821.237   3
 -14  -4   0 8045.90 923.795   2
  14  -4   0 7711.22 710.304   7
  14   4   1 210.088 58.0438   1
  14  -4   1 266.604 141.196   7
 -14  -4  -1 189.585 89.0098   3
 -14   4  -1 269.156 132.712   3
 -14  -4  -1 261.952 167.975   2
  14  -4   2 22532.7 1269.75   7
 -14   4  -2 21284.2 1338.47   3
 -14  -4  -2 20684.2 770.306   3
 -14  -4  -2 22662.5 1551.37   2
  14  -4   3 1266.20 319.457   7
 -14  -4  -3 1266.69 168.294   3
 -14   4  -3 951.654 273.040   3
 -14  -4  -3 1300.09 382.813   2
 -14   4  -4 15469.7 1149.30   3
  14  -4   4 14396.9 1065.21   7
 -14  -4  -4 14067.5 475.615   3
 -14  -4  -4 15546.9 1281.23   2
  14  -4   5 64.7349 63.6654   7
 -14   4  -5-23.5942 111.583   3
 -14  -4  -5-44.1962 114.628   2
 -14   4  -6 7043.84 796.750   3
  14  -4   6 7149.95 778.973   7
 -14  -4  -6 7032.57 858.720   2
 -14   4  -7 325.268 156.027   3
  14  -4   7 249.550 167.501   7
 -14  -4  -7-37.1056 145.784   2
  14  -4   8 3202.21 545.628   7
 -14   4  -8 3093.16 530.799   3
 -14  -4  -8 3869.51 629.426   2
 -14   4  -9 306.012 172.823   3
  14  -4   9 5.52633 73.7104   7
  14   4   9 294.995 99.3530   7
 -14  -4  -9 100.124 79.6914   2
  14  -4   9 214.957 170.889   5
 -14   4 -10 26917.7 1614.75   3
  14  -4  10 24811.8 1594.21   7
  14   4  10 24466.4 1479.47   7
 -14  -4 -10 25722.9 1659.54   2
  14  -4  10 24673.4 1519.01   5
  14  -4  11-66.0976 124.888   7
 -14   4 -11-41.6070 101.100   3
  14   4  11-105.087 41.4799   7
  14  -4  11 126.025 128.165   5
 -14   4 -12 2694.39 517.119   3
  14  -4  12 3255.47 603.173   7
  14   4  12 3821.51 594.959   7
  14  -4  12 3873.34 593.492   5
 -14   4 -13 118.046 101.489   3
  14  -4  13 85.8539 168.923   7
  14   4  13-80.6671 127.262   7
  14  -4  13 32.8448 72.4278   5
 -14   4 -14 3762.42 631.051   3
  14  -4  14 3588.83 667.049   7
  14   4  14 3990.66 616.404   7
  14  -4  14 3489.88 542.948   5
 -14   4 -15 179.937 125.866   3
  14   4  15-183.652 202.285   7
  14  -4  15-108.941 147.621   7
  14  -4  15-89.6156 97.0604   5
  14   4  16 1243.37 352.623   7
 -14   4 -16 1546.10 406.584   3
  14  -4  16 1222.64 405.769   7
 -14   4 -17-121.912 113.232   3
  14   4  17-145.772 144.840   7
  14  -4  17-31.8559 71.8397   7
 -14   4 -18 15886.5 1336.10   3
  14  -4  18 17140.9 1565.39   7
  14   4  18 17951.8 1425.12   7
 -14   4 -19 22.6959 62.7699   3
  14  -4  19 145.002 189.057   7
  14   4  19 6.50999 43.3753   7
 -14   4 -20 98.5287 154.713   3
  14  -4  20 24.2992 96.0531   7
  14   4  20 77.5068 118.587   7
 -14   4 -21 144.514 171.655   3
  14  -4  21-82.2061 161.822   7
  14   4  21 184.688 165.852   7
  14  -4  22 8573.66 1172.74   7
  14   4  22 7646.21 998.449   7
  14  -4  23 364.069 254.886   7
  14   4  23-211.413 188.241   7
  14  -4  24-12.4763 68.0862   7
  14   4  24-116.886 154.636   7
  14   4  25-322.094 212.602   7
  14   4  26 13148.4 1383.36   7
 -14   6  32 5810.26 934.211   1
 -14   6  32 6288.43 979.752   3
 -14  -6  32 5525.05 1072.59   2
 -14  -6  31 175.321 155.365   2
 -14   6  31 79.6641 165.090   1
 -14   6  31 75.9759 165.573   3
 -14  -6  30 811.463 407.784   2
 -14   6  30 722.724 319.382   1
 -14   6  30 995.881 392.475   3
 -14  -6  29 60.0083 162.156   2
 -14   6  29-367.273 224.919   1
 -14   6  29 97.4511 165.557   3
 -14   6  28 8053.97 1037.59   1
 -14  -6  28 6666.33 1140.47   2
 -14   6  28 7872.24 1074.54   3
  14  -6 -28 6573.23 1076.62   5
 -14   6  27-167.578 81.0316   1
 -14  -6  27-57.1437 124.299   2
 -14   6  27-119.942 142.948   3
  14  -6 -27-65.4796 228.387   5
 -14   6  26 4389.27 749.687   1
 -14  -6  26 4461.90 899.001   2
 -14   6  26 4256.09 762.993   3
  14  -6 -26 4036.97 844.050   5
 -14   6  25 214.824 177.037   1
 -14  -6  25 52.0244 111.953   2
 -14   6  25-6.92666 111.776   3
 -14   6  25 177.289 170.904   6
  14  -6 -25-75.3177 200.537   5
 -14   6  24 12864.7 1261.75   1
 -14  -6  24 15220.9 1645.01   2
 -14   6  24 14886.3 1408.87   3
 -14   6  24 14330.2 1277.04   6
  14  -6 -24 14315.8 1575.80   5
 -14   6  23-28.5768 86.9352   1
 -14  -6  23 73.8423 144.797   2
 -14   6  23-105.323 200.351   3
 -14   6  23-164.379 100.802   6
  14  -6 -23-66.8773 102.468   5
 -14   6  22 878.953 334.461   1
 -14  -6  22 664.315 325.279   2
 -14   6  22 662.835 296.119   3
 -14   6  22 1283.24 390.762   6
  14  -6 -22 967.250 390.409   5
 -14   6  21 136.312 134.526   1
 -14  -6  21 375.565 263.464   2
 -14   6  21 294.622 245.444   3
 -14   6  21 283.065 168.829   6
  14  -6 -21 395.796 237.398   5
 -14   6  20 12644.4 1173.35   1
 -14  -6  20 10795.0 1338.94   2
 -14   6  20 13513.0 1285.33   3
 -14   6  20 13212.6 1173.67   6
 -14   6  19-81.1136 96.3758   1
 -14   6  19-71.3125 157.283   3
 -14  -6  19-130.603 80.9096   2
 -14   6  19 55.1237 138.254   6
 -14   6  18 4426.64 682.369   1
 -14  -6  18 3501.98 744.165   2
 -14   6  18 3332.63 629.748   3
 -14   6  18 3713.24 609.923   6
 -14   6  17 17.1076 75.7210   1
 -14  -6  17 153.004 196.044   2
 -14   6  17 366.560 257.633   3
 -14   6  17 0.45689 99.9947   6
 -14  -6  16 15808.7 1555.76   2
 -14   6  16 14686.2 1309.57   3
 -14   6  16 16517.4 1263.82   6
 -14   6  16 15127.6 1234.52   1
 -14  -6  15-5.56461 114.249   2
 -14   6  15 449.121 229.812   3
 -14   6  15 609.976 303.236   6
 -14  -6  14 1187.25 390.662   2
 -14   6  14 1613.48 424.830   3
 -14   6  14 864.261 253.035   6
 -14  -6  13 167.743 162.774   2
 -14   6  13 252.207 190.856   3
 -14   6  13 22.4605 118.793   6
 -14  -6  12 19134.8 1658.07   2
 -14   6  12 18677.5 1441.36   3
 -14   6  12 18961.3 1306.74   6
 -14  -6  11 21.9372 85.2273   2
 -14   6  11 154.868 144.483   3
 -14   6  11-79.5757 100.267   6
 -14  -6  10 129.465 119.323   2
 -14   6  10 165.301 124.286   6
  14  -6 -10 292.309 124.701   2
 -14   6   9-233.593 217.566   6
 -14   6   9 9.58692 78.8516   3
  14  -6  -9 60.9670 102.796   2
 -14  -6   9 28.4989 74.6512   2
 -14   6   8 15912.6 1318.85   3
  14  -6  -8 15818.9 1045.99   2
 -14   6   8 15070.3 1144.39   6
 -14  -6   8 16317.5 1526.92   2
 -14  -6   7 65.7367 99.7441   2
 -14   6   7 111.664 128.951   3
  14  -6  -7-34.9317 84.8574   2
 -14   6   6 8072.08 942.882   3
 -14  -6   6 8393.41 1089.04   2
 -14  -6   5 131.441 162.353   2
  14  -6  -5 28.5448 68.9973   7
 -14   6   5-97.3743 92.8057   3
  14  -6  -4 10567.0 896.341   7
 -14   6   4 9529.64 1022.87   3
 -14  -6   4 8658.57 1121.91   2
 -14  -6   3 160.537 163.039   2
 -14   6   3-125.091 144.549   3
  14  -6  -3-44.3473 50.7695   7
 -14  -6   2 3048.37 676.510   2
  14  -6  -2 3034.89 509.691   7
 -14   6   2 3325.89 614.286   3
  14  -6  -2 2980.37 618.147   5
 -14  -6   1 129.908 70.0369   2
  14  -6  -1-73.5426 76.1567   7
  14  -6  -1-140.724 149.276   5
 -14   6   1-145.740 204.442   3
  14  -6   0 8459.32 889.169   7
 -14   6   0 5786.98 807.764   3
  14  -6   0 7981.30 1042.96   5
 -14  -6   0 7191.14 1023.42   2
  14  -6   1 344.375 201.319   7
 -14   6  -1-325.338 227.011   3
  14  -6   1-122.852 250.134   5
 -14  -6  -1 16.7389 94.9387   2
  14  -6   2 14670.8 1218.88   7
 -14   6  -2 13609.3 1277.71   3
 -14  -6  -2 11949.0 1304.63   2
  14  -6   2 14076.7 1364.58   5
  14  -6   3 333.882 205.364   7
 -14   6  -3 238.545 203.878   3
  14  -6   3 263.575 115.645   5
 -14  -6  -3 247.159 191.547   2
 -14   6  -4 9830.25 1103.50   3
  14  -6   4 10245.3 1067.99   7
 -14  -6  -4 10680.1 1219.19   2
  14  -6   4 9991.77 1164.81   5
  14  -6   5 128.587 133.475   7
 -14   6  -5-38.6782 127.120   3
  14  -6   5-160.765 187.962   5
 -14  -6  -5 2.58099 107.567   2
 -14   6  -6 5532.13 833.398   3
  14  -6   6 6143.57 847.868   7
 -14  -6  -6 5146.95 841.051   2
  14  -6   6 4814.44 799.725   5
  14  -6   7 211.403 187.039   7
 -14   6  -7-174.944 229.665   3
 -14  -6  -7 73.8331 122.217   2
  14  -6   7-132.320 183.000   5
  14  -6   8 3381.05 647.249   7
 -14   6  -8 4004.91 715.308   3
 -14  -6  -8 3705.08 704.748   2
  14  -6   8 3514.71 686.993   5
 -14   6  -9 17.5865 134.587   3
  14  -6   9 215.826 166.991   7
 -14  -6  -9-156.700 196.851   2
  14  -6   9-31.8166 65.7555   5
 -14   6 -10 18220.7 1548.53   3
  14  -6  10 16394.3 1473.55   7
 -14  -6 -10 18947.6 1579.94   2
  14  -6  10 17335.3 1505.41   5
 -14   6 -11 192.207 174.018   3
  14  -6  11 117.793 210.440   7
  14   6  11 228.915 176.173   7
 -14  -6 -11 139.179 150.888   2
  14  -6  11-139.905 171.655   5
  14   6  12 1268.18 364.526   7
 -14  -6 -12 1806.42 481.361   2
  14  -6  12 1864.17 494.356   5
 -14   6 -12 2093.77 551.855   3
  14  -6  12 2241.64 574.051   7
 -14   6 -13 106.723 108.048   3
  14  -6  13 82.1450 203.989   7
  14   6  13-57.4685 85.4778   7
  14  -6  13 249.976 161.341   5
 -14   6 -14 3569.94 714.743   3
  14  -6  14 4032.07 781.472   7
  14   6  14 3319.00 601.938   7
  14  -6  14 3126.03 625.601   5
 -14   6 -15 45.3284 168.268   3
  14  -6  15 70.4196 221.763   7
  14   6  15-64.8267 110.868   7
  14  -6  15 66.5294 95.7181   5
 -14   6 -16 1356.81 436.952   3
  14  -6  16 2058.80 592.296   7
  14   6  16 1259.65 377.749   7
 -14   6 -17 137.345 49.0496   3
  14  -6  17 361.041 214.452   7
  14   6  17 88.1116 93.2902   7
 -14   6 -18 9813.79 1221.21   3
  14  -6  18 10473.6 1351.45   7
  14   6  18 9824.16 1092.61   7
 -14   6 -19 77.8661 104.705   3
  14  -6  19 100.516 253.205   7
  14   6  19-80.0399 144.170   7
 -14   6 -20-28.1537 100.243   3
  14   6  20 232.832 193.285   7
 -14   6 -21-246.538 199.687   3
 -14   6 -22 6134.84 998.022   3
 -14   8  27 804.708 411.919   1
 -14   8  26 3329.49 693.890   1
 -14   8  26 3326.72 725.902   3
  14  -8 -26 3424.27 864.311   5
 -14   8  25-195.864 176.307   3
  14  -8 -25 116.958 253.204   5
 -14   8  25-75.7656 105.953   1
 -14   8  24 13229.3 1450.23   3
  14  -8 -24 15119.3 1837.18   5
 -14   8  23 39.7909 64.4073   3
  14  -8 -23-145.397 203.582   5
 -14  -8  22-135.279 234.680   2
 -14   8  22 246.876 119.886   3
  14  -8 -22-76.4790 132.789   5
 -14  -8  21 185.399 191.498   2
 -14   8  21 345.929 210.943   3
  14  -8 -21 848.107 496.096   5
 -14  -8  20 10015.9 1456.68   2
 -14   8  20 9432.34 1202.52   3
  14  -8 -20 12367.8 1628.87   5
 -14  -8  19-83.7754 142.613   2
 -14   8  19-27.2521 176.148   3
  14  -8 -19-112.457 227.058   5
 -14  -8  18 5077.74 1058.62   2
 -14   8  18 4413.87 812.189   3
  14  -8 -18 5022.47 1006.97   5
 -14  -8  17-154.007 183.642   2
 -14   8  17 8.96136 99.5690   3
  14  -8 -17 32.7600 266.719   5
 -14  -8  16 7831.23 1259.46   2
 -14   8  16 6873.86 995.836   3
  14  -8 -16 6002.82 1093.13   5
 -14  -8  15 26.2454 131.380   2
 -14   8  15 149.436 188.317   3
  14  -8 -15-355.204 218.863   5
 -14  -8  14 448.557 246.048   2
 -14   8  14 418.066 298.956   3
  14  -8 -14 96.7439 131.380   5
 -14  -8  13 253.548 223.931   2
 -14   8  13 323.186 216.533   3
  14  -8 -13 265.701 292.364   5
 -14   8  12 13077.5 1392.96   3
  14  -8 -12 14097.9 1650.41   5
 -14  -8  12 14442.3 1686.49   2
 -14   8  11 15.5615 121.534   3
  14  -8 -11 214.127 222.023   5
 -14  -8  10 175.751 236.565   2
 -14   8  10-298.711 267.861   3
  14  -8 -10 344.842 283.376   5
 -14  -8   9 168.232 166.079   2
 -14   8   9 86.1410 119.886   3
  14  -8  -9 562.534 376.294   5
 -14   8   8 14853.9 1479.14   3
  14  -8  -8 15767.5 1725.48   5
 -14  -8   8 13883.4 1648.05   2
 -14  -8   7-150.297 220.823   2
 -14   8   7 405.594 263.940   3
  14  -8  -7 277.896 204.709   5
 -14   8   6 7085.81 1028.03   3
  14  -8  -6 6304.73 1089.30   5
 -14  -8   6 5837.93 1090.08   2
 -14  -8   5 21.9443 108.004   2
 -14   8   5 2.08069 131.177   3
  14  -8  -5-263.483 282.258   5
 -14   8   4 9053.58 1166.77   3
  14  -8  -4 10927.2 1428.05   5
 -14  -8   4 9773.47 1382.03   2
 -14  -8   3 14.6872 219.189   2
 -14   8   3-59.3797 116.821   3
  14  -8  -3 171.636 142.956   5
 -14  -8   2 896.982 326.329   2
 -14   8   2 670.920 307.747   3
  14  -8  -2 713.417 373.531   5
  14  -8  -2 905.093 358.667   2
 -14  -8   1-21.1013 155.301   2
 -14   8   1-118.254 246.085   3
  14  -8  -1 49.3413 146.030   2
 -14   8   0 7322.04 1091.29   3
  14  -8   0 6722.60 1093.86   5
  14  -8   0 5401.76 924.427   2
 -14  -8   0 5036.54 989.381   2
 -14   8  -1 5.18356 113.560   3
  14  -8   1 72.0347 116.780   5
  14  -8   1 194.561 175.406   2
 -14  -8  -1-109.811 77.4642   2
 -14   8  -2 11736.9 1378.15   3
  14  -8   2 9927.60 1271.81   2
  14  -8   2 11923.8 1464.91   5
 -14  -8  -2 11163.8 1453.61   2
 -14   8  -3-53.5926 126.843   3
  14  -8   3 279.007 267.122   5
 -14  -8  -3 143.273 274.955   2
  14  -8   3 53.7753 123.722   2
 -14   8  -4 4233.82 826.392   3
  14  -8   4 4171.71 872.164   5
 -14  -8  -4 3777.19 834.622   2
  14  -8   5 48.9301 137.708   7
 -14   8  -5 370.015 281.436   3
  14  -8   5 341.732 284.622   5
 -14  -8  -5 36.0209 176.522   2
  14  -8   6 4041.24 798.397   7
 -14   8  -6 4455.31 871.127   3
  14  -8   6 4654.39 921.340   5
 -14  -8  -6 5380.83 966.892   2
  14  -8   7 51.6330 146.343   7
 -14   8  -7 687.772 349.190   3
  14  -8   7 222.861 283.175   5
 -14  -8  -7 329.865 239.617   2
 -14   8  -8 2526.23 639.428   3
  14  -8   8 2118.97 630.575   5
 -14  -8  -8 2888.88 698.566   2
  14  -8   9 285.649 265.398   7
 -14   8  -9 20.1743 203.389   3
  14  -8   9 321.218 245.209   5
 -14  -8  -9-243.364 204.050   2
 -14   8 -10 6500.99 1066.03   3
  14  -8  10 6967.43 1131.48   7
 -14  -8 -10 7432.21 1105.51   2
  14  -8  10 5386.61 982.064   5
  14  -8  11 375.310 287.904   7
 -14   8 -11 72.2375 94.2901   3
  14   8  11 107.219 169.139   7
 -14  -8 -11 182.459 192.028   2
  14  -8  11 145.116 94.7001   5
  14  -8  12 1910.56 605.216   7
 -14   8 -12 2128.91 627.566   3
  14   8  12 981.630 328.300   7
 -14  -8 -12 1598.29 496.066   2
  14  -8  12 1078.01 446.858   5
  14  -8  13-179.590 199.452   7
 -14  -8 -13 71.1219 108.711   2
  14  -8  13-135.811 145.811   5
  14  -8  14 5795.32 1073.35   7
 -15   1  38-55.8763 205.029   1
 -15  -1  38-61.2978 112.160   1
 -15   1  37 7765.33 1095.73   1
 -15  -1  37 9304.46 1171.21   1
 -15  -1  36-138.935 181.113   1
 -15   1  36-84.1350 82.2274   1
 -15  -1  35 2565.34 601.970   1
 -15   1  35 2906.04 653.182   1
 -15  -1  34 131.320 209.393   1
 -15   1  34 90.3020 206.409   1
 -15  -1  33 6580.79 845.361   2
 -15   1  33 6701.50 958.406   1
 -15  -1  33 6516.11 903.006   1
 -15  -1  32 114.001 121.509   1
 -15  -1  32 99.7872 203.925   2
 -15   1  32 153.865 220.053   1
 -15  -1  31 7425.29 863.000   2
 -15   1  31 8112.41 998.107   1
 -15  -1  31 7185.58 916.660   1
  15  -1 -31 7087.75 885.158   4
 -15  -1  30 111.076 145.714   1
 -15  -1  30 90.5795 49.5115   2
 -15   1  30 137.066 161.377   1
  15  -1 -30 143.589 74.5548   4
 -15  -1  29 8241.92 883.588   2
 -15   1  29 8290.44 988.247   1
 -15  -1  29 6954.68 858.064   1
  15  -1 -29 7928.83 931.063   4
 -15  -1  28 0.43070 83.7662   2
 -15   1  28-15.3846 52.8892   1
  15  -1 -28-70.2970 57.7848   4
 -15  -1  28 92.3465 83.3384   1
 -15   1  27 827.565 195.321   2
 -15  -1  27 1201.66 321.615   2
 -15   1  27 1094.91 336.373   1
 -15  -1  27 865.349 283.089   1
  15  -1 -27 1391.16 377.341   4
 -15   1  26-16.6943 40.7738   2
 -15   1  26 195.424 151.961   1
 -15  -1  26 332.229 177.269   2
 -15  -1  26 156.881 129.379   1
  15  -1 -26-32.3245 101.591   4
 -15  -1  25 6587.71 739.062   2
 -15   1  25 5909.87 755.631   1
 -15  -1  25 5728.94 712.186   1
  15  -1 -25 6501.71 834.180   4
 -15   1  25 4960.83 450.263   2
 -15   1  24-14.5394 35.2964   2
 -15  -1  24-12.8920 69.9604   2
 -15   1  24 84.7921 101.174   1
 -15  -1  24 3.91218 125.382   1
  15  -1 -24-40.5187 115.406   4
 -15  -1  23 6351.91 707.378   2
 -15   1  23 6196.66 747.163   1
 -15  -1  23 6243.45 703.933   1
 -15   1  23 6221.30 487.516   2
  15  -1 -23 6525.21 831.084   4
 -15   1  22 2.48454 40.4455   2
 -15   1  22-128.162 125.084   1
  15  -1 -22-15.2691 66.6384   7
 -15  -1  22-78.9713 92.0361   2
 -15  -1  22-60.0128 100.181   1
  15  -1 -22 236.153 179.619   4
 -15  -1  21 27329.8 1429.75   2
  15  -1 -21 24353.3 1077.43   7
 -15   1  21 26904.2 1479.65   1
 -15  -1  21 25045.8 1348.46   1
 -15   1  21 24542.0 951.689   2
  15  -1 -21 24597.4 1588.21   4
 -15   1  20-33.4135 53.1873   2
 -15   1  20-35.9829 111.438   1
  15  -1 -20-18.8609 38.5392   7
 -15  -1  20 117.716 86.1484   2
 -15  -1  20-148.898 102.322   1
 -15   1  19 836.689 248.201   1
  15  -1 -19 648.906 165.869   7
 -15  -1  19 658.577 215.376   2
 -15  -1  19 637.498 196.209   1
 -15   1  19 593.776 147.320   2
 -15  -1  18-3.75106 40.0279   1
  15  -1 -18 19.0419 34.5399   7
 -15  -1  18-8.54704 44.6669   2
 -15   1  18 121.087 144.011   1
 -15   1  18-12.7286 22.6393   2
  15  -1 -17 13105.0 756.045   7
 -15  -1  17 12821.0 868.015   1
 -15   1  17 12181.7 906.191   1
 -15   1  17 12344.5 664.065   2
 -15  -1  17 13613.9 966.467   2
  15  -1 -16 7.64877 33.4560   7
 -15  -1  16 65.6055 44.6558   2
 -15   1  16-26.1415 73.8628   1
 -15   1  16-27.0042 57.6979   2
  15  -1 -16-2.40460 52.2557   2
 -15  -1  16 33.5309 58.6739   1
 -15  -1  15 1343.61 290.416   2
  15  -1 -15 1961.69 285.191   2
 -15   1  15 1522.73 322.055   1
 -15   1  15 1793.41 257.482   2
 -15  -1  15 1429.59 266.032   1
 -15  -1  14 49.7411 107.730   2
 -15   1  14 33.9237 54.6291   1
  15  -1 -14 25.9155 57.7720   2
 -15  -1  14 127.430 84.5302   1
 -15   1  14 12.2521 18.8141   2
 -15   1  13 31618.0 1369.84   1
 -15  -1  13 30950.5 1219.77   1
  15  -1 -13 32438.0 1195.15   2
 -15   1  13 31980.5 1121.89   2
 -15  -1  13 32887.2 1470.23   2
 -15  -1  12 9.73408 55.0202   2
  15  -1 -12-18.7024 46.0635   2
 -15   1  12-78.1723 76.7922   1
 -15  -1  12 113.984 102.721   1
 -15   1  12-39.4116 77.9174   2
  15  -1 -11 3114.06 371.512   2
 -15   1  11 3184.52 431.719   1
 -15  -1  11 3250.67 389.537   1
 -15   1  11 3124.41 361.347   2
 -15  -1  11 3101.65 449.764   2
  15   1 -11 3528.82 402.373   1
 -15  -1  10 191.928 117.993   2
 -15   1  10 155.585 110.984   1
 -15  -1  10 117.766 52.3783   1
  15  -1 -10 86.6025 57.9482   2
 -15   1  10 82.8482 48.5637   2
  15   1 -10 36.5408 32.8394   1
 -15   1   9 23185.4 1151.74   1
 -15  -1   9 23893.0 1029.55   1
 -15   1   9 23988.7 1228.76   6
  15   1  -9 25003.0 1040.23   1
 -15   1   9 24804.2 1049.38   2
 -15  -1   9 23055.4 1245.39   2
  15  -1  -9 23214.8 1054.84   2
  15  -1  -8 28.3280 20.1089   2
  15   1  -8-52.7860 67.6405   1
 -15   1   8-97.7788 166.010   6
 -15  -1   8 43.0742 95.7933   2
  15   1  -7 240.624 100.780   1
  15  -1  -7 254.531 110.146   2
 -15   1   7 572.616 205.360   6
 -15  -1   7 49.6430 54.0550   6
 -15  -1   7 241.808 143.797   2
  15  -1  -6 8.12729 46.1345   7
 -15   1   6 26.3518 57.6553   6
 -15  -1   6-12.2948 71.1363   6
  15   1  -6 104.673 57.6274   1
 -15  -1   6 138.080 104.926   2
  15  -1  -6 75.4835 73.6346   2
  15   1  -5 32501.6 1122.74   1
  15  -1  -5 29325.6 1158.54   7
 -15   1   5 31525.4 1365.71   6
 -15  -1   5 29282.5 1210.06   6
 -15  -1   5 31233.6 1457.07   2
  15   1  -4 61.9666 65.7954   1
  15  -1  -4 9.43723 84.5733   7
 -15   1   4-144.843 120.841   6
 -15  -1   4-50.4342 81.7938   6
 -15  -1   4 21.3311 70.5896   2
  15   1  -3 12963.4 711.204   1
  15  -1  -3 12078.7 773.538   7
 -15   1   3 11882.3 842.317   6
 -15  -1   3 12733.2 791.031   6
 -15  -1   3 12159.7 922.578   2
  15   1  -2-40.9162 49.1436   1
  15  -1  -2-43.0163 56.4375   7
 -15   1   2-89.5544 96.1264   6
 -15  -1   2 40.0684 52.7597   6
 -15  -1   1 23987.6 1084.54   6
  15  -1  -1 25234.0 1160.46   7
 -15   1   1 24754.8 1239.08   6
 -15  -1   1 26819.3 1393.21   2
  15  -1   0 100.075 119.219   4
  15  -1   0 32.7569 82.0480   7
 -15   1   0 28.1933 33.4970   3
 -15  -1   0 70.2596 82.4475   2
  15  -1   1 705.731 202.883   7
 -15   1  -1 393.205 127.136   3
 -15  -1  -1 612.930 207.029   2
  15  -1   1 868.182 268.787   4
  15  -1   2 40.3851 70.9511   7
  15   1   2-154.251 162.102   7
 -15   1  -2 27.4453 63.3274   3
 -15  -1  -2-44.5785 128.292   2
  15  -1   2-80.8111 64.3960   4
 -15   1  -3 17390.6 885.867   3
  15  -1   3 17430.7 1054.30   7
 -15  -1  -3 17770.8 644.688   3
  15   1   3 16644.3 1041.53   7
  15  -1   3 18583.5 1169.90   4
  15  -1   4 47.4525 76.7313   7
 -15   1  -4 84.2773 56.1716   3
  15   1   4 15.7805 100.247   7
 -15  -1  -4 14.8026 11.5354   3
  15  -1   4 96.9614 106.871   4
 -15   1  -5 22561.1 1028.30   3
  15  -1   5 22522.8 1263.39   7
  15   1   5 22352.9 1258.05   7
 -15  -1  -5 23712.8 655.384   3
  15  -1   5 24791.0 1323.58   4
 -15  -1  -6-0.27899 15.9733   3
 -15   1  -6 23.3209 39.8484   3
  15  -1   6-16.4625 48.6663   7
  15   1   6-50.4680 97.0412   7
 -15  -1  -7 10376.7 325.725   3
 -15   1  -7 12480.1 775.311   3
  15  -1   7 10637.6 898.042   7
  15   1   7 10999.6 909.234   7
  15  -1   7 12382.7 908.283   4
 -15   1  -8 4.21099 31.0474   3
  15   1   8-66.6395 86.4921   7
  15  -1   8 57.7024 85.4008   4
 -15   1  -9 13010.0 791.456   3
  15  -1   9 11443.6 981.546   7
  15   1   9 11968.0 973.158   7
  15  -1   9 12226.4 875.205   4
 -15   1 -10 68.0050 87.2491   3
  15  -1  10-124.429 126.568   7
  15   1  10-23.5516 82.4401   7
  15  -1  10 102.684 84.6572   4
 -15   1 -11 498.542 147.942   3
  15   1  11 637.264 257.290   7
  15  -1  11 529.865 170.401   4
  15  -1  11 743.531 267.669   7
 -15   1 -12 32.4142 52.1482   3
  15  -1  12-179.337 106.057   7
  15   1  12 29.4808 137.323   7
 -15   1 -13 24910.8 1105.99   3
  15  -1  13 26480.4 1622.75   7
  15   1  13 26248.5 1583.89   7
  15   1  13 27052.3 1172.71   4
 -15   1 -14 0.91082 56.1656   3
  15  -1  14-44.5642 72.0212   7
  15   1  14-105.190 140.003   7
  15   1  14 33.1700 26.4380   4
 -15   1 -15 626.055 166.636   3
  15  -1  15 897.292 305.797   7
  15   1  15 719.242 252.331   7
 -15   1 -16 11.1301 29.0792   3
  15  -1  16-64.8546 76.4241   7
  15   1  16 36.7763 136.576   7
  15  -1  17 5480.07 810.736   7
  15   1  17 5644.64 801.963   7
  15  -1  18 22.3105 84.8856   7
  15   1  18-135.075 104.851   7
  15  -1  19 850.450 331.309   7
  15   1  19 341.784 246.166   7
  15  -1  20-246.155 190.725   7
  15   1  20-17.5013 92.0528   7
  15  -1  21 24874.2 1851.56   7
  15   1  21 20421.7 1630.39   7
  15  -1  22 181.512 266.236   7
  15   1  22 27.1239 132.016   7
  15  -1  23 168.481 162.167   7
  15   1  23 3.93521 131.390   7
  15  -1  24 135.764 179.917   7
  15   1  24 186.032 224.529   7
  15  -1  25 7450.81 1093.39   7
  15   1  25 7572.83 1070.51   7
  15  -1  26-233.464 257.307   7
  15   1  26-300.819 254.151   7
  15   1  27 217.174 171.802   7
 -15  -3  38-11.1965 55.8097   1
 -15  -3  37 2817.82 639.290   1
 -15   3  36 120.236 174.195   1
 -15  -3  36-184.887 170.285   1
 -15  -3  36 67.8079 173.878   2
 -15   3  35 955.543 354.112   1
 -15  -3  35 961.544 371.634   1
 -15  -3  35 1101.55 432.999   2
 -15   3  34 42.8567 67.5822   1
 -15  -3  34 391.192 237.538   1
 -15  -3  34 9.30832 198.968   2
 -15   3  33 4501.85 795.605   1
 -15  -3  33 3291.77 619.717   1
 -15  -3  33 4418.76 833.780   2
 -15   3  32-27.3043 114.754   1
 -15  -3  32 4.35089 80.6978   1
 -15  -3  32 234.552 166.937   2
 -15  -3  31 8448.65 1088.65   2
 -15   3  31 9482.77 1113.61   1
 -15  -3  31 7724.20 926.798   1
 -15   3  30-11.1931 76.8379   1
 -15  -3  30-41.5425 89.1877   1
 -15  -3  30 69.1486 152.629   2
 -15  -3  29 14331.6 1382.62   2
 -15   3  29 14352.0 1318.10   1
 -15  -3  29 12844.7 1137.87   1
 -15   3  28 86.2863 121.486   1
 -15  -3  28-9.38601 56.2277   1
 -15  -3  28-71.8825 94.5434   2
 -15   3  27 1493.35 417.202   1
 -15  -3  27 1605.53 369.094   1
 -15  -3  27 1238.74 408.553   2
 -15  -3  26 209.238 143.932   1
 -15  -3  26 23.3825 77.3897   2
 -15   3  26 125.717 148.125   1
 -15  -3  25 12104.0 1197.00   2
 -15   3  25 11901.3 1118.45   1
 -15  -3  25 10528.7 921.989   1
 -15  -3  24 300.204 162.732   1
 -15  -3  24-2.69468 99.1642   2
  15  -3 -24-131.535 97.6334   4
 -15   3  24 85.3457 142.919   1
 -15  -3  23 6638.98 881.596   2
 -15   3  23 7155.82 835.516   1
 -15  -3  23 6430.40 684.048   1
  15  -3 -23 5743.53 858.273   4
 -15  -3  22 124.869 107.858   2
 -15   3  22 333.644 218.018   1
 -15  -3  22 157.928 122.932   1
  15  -3 -22 33.0634 139.980   4
 -15  -3  21 12405.5 1150.12   2
 -15   3  21 11258.2 1012.85   1
 -15  -3  21 12662.2 903.042   1
  15  -3 -21 11779.6 1193.64   4
 -15  -3  20-19.5531 78.5655   2
 -15  -3  20-1.12587 52.9542   1
 -15   3  20 92.1355 55.6175   1
 -15  -3  19 93.2470 83.3835   2
 -15  -3  19 151.255 97.1488   1
 -15   3  19 213.549 57.8543   1
  15  -3 -19 286.982 214.532   4
 -15  -3  18-101.202 111.123   1
 -15  -3  18-102.257 124.151   2
 -15   3  18 131.648 113.385   1
  15  -3 -18 157.303 229.581   4
 -15  -3  17 15866.0 1257.08   2
 -15   3  17 15582.6 1113.19   1
 -15  -3  17 14957.6 870.030   1
  15  -3 -17 15242.5 1307.77   4
 -15  -3  16 233.680 103.777   1
 -15  -3  16 73.1289 68.0954   2
 -15   3  16 185.501 114.341   1
  15  -3 -16 165.273 173.776   4
 -15  -3  15 4968.96 673.475   2
 -15   3  15 3991.26 535.836   1
 -15  -3  15 3567.74 387.897   1
  15  -3 -15 3764.48 641.630   4
 -15  -3  14-67.3001 53.8912   2
 -15   3  14 14.2785 66.7389   1
  15  -3 -14 50.1434 24.0362   2
 -15  -3  14 108.736 60.7289   1
 -15   3  13 28346.9 1439.73   1
  15  -3 -13 22552.3 688.138   2
 -15  -3  13 27749.8 1025.43   1
  15  -3 -13 28415.5 610.556   7
 -15   3  13 27695.1 1481.05   6
  15  -3 -13 27273.2 1705.13   4
 -15  -3  13 28104.4 1615.34   2
  15  -3 -12-4.67707 29.7112   2
 -15   3  12 33.6796 89.3303   1
 -15  -3  12 66.6377 111.487   2
  15  -3 -12-3.56470 16.5870   7
 -15  -3  12-15.9382 37.0389   1
 -15   3  12 255.510 155.737   6
  15  -3 -12 21.9132 165.961   4
 -15  -3  11 2672.57 300.173   1
 -15   3  11 3117.69 473.727   1
 -15  -3  11 2512.16 466.115   2
  15  -3 -11 2967.31 257.660   7
 -15   3  11 2877.81 463.122   6
  15  -3 -11 2485.61 282.142   2
  15  -3 -11 2979.04 553.298   4
 -15  -3  10-3.86394 91.5974   2
  15  -3 -10 131.322 60.7720   7
 -15   3  10 123.661 101.657   6
  15  -3 -10 72.8231 123.544   4
  15  -3 -10-49.5685 42.9610   2
  15  -3  -9 16497.0 709.433   7
 -15   3   9 16680.8 1080.68   6
  15  -3  -9 14465.1 751.957   2
  15  -3  -9 16309.7 1273.35   4
 -15  -3   9 15217.6 1174.87   2
 -15  -3   8-122.765 196.054   2
  15  -3  -8 57.1850 53.9881   7
 -15   3   8-69.2326 65.7434   6
  15  -3  -8 5.45953 26.6929   2
  15  -3  -8 93.9288 85.2719   4
 -15  -3   7 162.121 130.539   2
  15   3  -7 20.3400 38.2150   1
  15  -3  -7 145.027 73.2353   7
 -15   3   7-97.9475 86.7215   6
  15  -3  -7 157.030 90.6966   2
  15  -3  -7 130.763 82.3658   4
 -15  -3   6 451.610 223.215   2
  15   3  -6 415.939 92.0739   1
  15  -3  -6 433.232 123.573   7
 -15   3   6 360.115 180.388   6
 -15   3   6 202.609 132.832   3
 -15  -3   6 299.834 88.3943   6
  15  -3  -6 241.316 105.200   2
  15  -3  -6 586.923 258.108   4
  15  -3  -5 28926.9 1124.53   7
 -15   3   5 30601.1 1464.72   3
 -15   3   5 29055.5 1439.10   6
 -15  -3   5 30424.4 1102.66   6
  15   3  -5 29028.1 819.763   1
 -15  -3   5 27710.8 1625.79   2
  15  -3  -5 30339.1 1704.62   4
 -15  -3   4 13.7351 23.7199   3
  15   3  -4-25.1059 25.8114   1
  15  -3  -4 131.428 127.840   7
 -15   3   4-190.694 136.561   6
 -15   3   4-75.6039 105.113   3
 -15  -3   4-38.7670 41.5515   6
  15  -3  -4 96.0358 161.353   4
 -15  -3   4-126.651 136.934   2
 -15  -3   3 18048.8 882.777   3
  15  -3  -3 17193.9 940.764   7
  15   3  -3 17672.5 638.673   1
 -15   3   3 18901.5 1137.46   3
 -15   3   3 17305.7 1116.82   6
 -15  -3   3 18611.4 828.439   6
 -15  -3   3 17238.8 1267.23   2
  15  -3  -3 18396.8 1300.61   4
 -15  -3   2 39.4395 30.8459   3
 -15   3   2-78.4092 50.4368   6
  15   3  -2 80.1497 33.6340   1
 -15  -3   2 41.8489 55.4932   6
 -15   3   2 52.6482 51.7721   3
  15  -3  -2 105.754 68.8826   4
 -15  -3   2-34.4708 128.319   2
  15   3  -1 38454.3 985.424   1
 -15  -3   1 37014.7 1150.53   3
  15  -3  -1 36465.8 1455.53   7
 -15   3   1 36655.6 1599.37   3
 -15  -3   1 37806.0 1888.06   2
  15  -3  -1 37588.3 1864.90   4
  15   3   0 21.9254 26.4713   1
 -15  -3   0 70.7289 58.2961   3
  15  -3   0 126.602 144.584   7
 -15   3   0 13.5560 114.038   3
 -15  -3   0 57.2084 56.5440   2
  15  -3   0 80.2851 53.2865   4
 -15  -3  -1 366.235 103.415   3
  15  -3   1-10.4684 56.3538   7
 -15   3  -1 357.612 185.478   3
 -15  -3  -1 212.578 115.088   2
  15  -3   1 363.098 163.801   4
 -15  -3  -2 23.4649 10.4897   3
  15  -3   2 50.7099 62.7214   7
 -15   3  -2 124.857 123.246   3
 -15  -3  -2 49.4084 82.3873   2
 -15  -3  -3 7697.91 332.972   3
  15  -3   3 7013.75 700.422   7
 -15   3  -3 7742.74 753.868   3
 -15  -3  -3 8982.58 926.940   2
  15  -3   4 178.306 142.288   7
 -15   3  -4-83.9075 86.2303   3
 -15  -3  -4-203.927 216.310   2
 -15   3  -5 12823.5 986.296   3
  15  -3   5 13009.7 1009.99   7
 -15  -3  -5 12435.5 1096.48   2
  15  -3   6 6.11663 111.192   7
 -15   3  -6-66.0507 110.481   3
  15   3   6 2.96535 51.5860   6
 -15  -3  -6-86.0311 129.595   2
 -15   3  -7 5821.83 673.195   3
  15  -3   7 5664.39 695.427   7
  15   3   7 5417.80 661.490   7
 -15  -3  -7 6377.96 786.460   2
 -15   3  -8 251.525 136.559   3
  15  -3   8 191.916 111.259   7
  15   3   8 139.747 154.363   7
 -15   3  -9 10073.9 903.347   3
  15  -3   9 10678.4 1002.54   7
  15   3   9 10614.7 957.664   7
 -15   3 -10 164.155 107.668   3
  15  -3  10-86.8478 125.944   7
  15   3  10 105.241 157.846   7
 -15   3 -11 3637.91 546.488   3
  15   3  11 2979.25 513.142   7
  15  -3  11 3336.28 580.269   7
 -15   3 -12 33.5201 120.642   3
  15   3  12 29.2051 48.6509   7
  15  -3  12 53.8679 197.959   7
 -15   3 -13 30215.6 1609.70   3
  15  -3  13 27059.7 1754.98   7
  15   3  13 28291.9 1659.13   7
  15  -3  13 27740.5 1458.99   5
 -15   3 -14-33.0122 32.7987   3
  15   3  14 18.1915 71.6168   7
  15  -3  14 106.664 67.1940   5
 -15   3 -15 1042.96 282.624   3
  15  -3  15 1060.03 359.445   7
  15   3  15 1477.77 384.531   7
  15  -3  15 1290.04 287.814   5
 -15   3 -16-108.381 116.166   3
  15  -3  16-152.839 166.588   7
  15   3  16-0.50271 66.2035   7
 -15   3 -17 6357.06 749.478   3
  15  -3  17 5818.88 879.740   7
  15   3  17 4747.34 725.748   7
 -15   3 -18 256.752 226.757   3
  15  -3  18 192.679 148.979   7
  15   3  18 244.607 199.848   7
 -15   3 -19 254.123 153.297   3
  15   3  19 114.511 123.171   7
  15  -3  20 223.623 217.738   7
  15   3  20 159.111 66.2642   7
  15  -3  21 21535.8 1832.67   7
  15   3  21 19667.7 1578.98   7
  15  -3  22-82.0101 108.154   7
  15   3  22 154.657 120.201   7
  15  -3  23-126.191 210.184   7
  15   3  23 52.3253 188.955   7
  15  -3  24 103.668 203.727   7
  15   3  24 171.097 119.101   7
  15   3  25 7420.11 1044.40   7
  15   3  26 332.477 270.736   7
 -15  -5  35 1412.84 516.742   2
 -15  -5  34 275.320 234.774   2
 -15   5  34 73.5091 155.070   1
 -15   5  33 6510.07 978.513   1
 -15  -5  33 5479.50 1052.57   2
 -15  -5  32 29.0290 96.9364   2
 -15   5  32 54.4960 92.9904   1
 -15   5  31 7013.20 991.721   1
 -15  -5  31 5487.22 996.520   2
 -15  -5  30 31.3111 27.2572   1
 -15  -5  30 19.2355 98.5248   2
 -15   5  30 101.331 106.209   1
 -15  -5  29 3706.97 809.684   2
 -15   5  29 4109.64 739.099   1
 -15  -5  29 3341.55 558.918   1
 -15  -5  28 157.642 116.609   1
 -15  -5  28 434.205 313.139   2
 -15   5  28 12.5341 103.118   1
 -15  -5  27 252.452 157.678   1
 -15  -5  27 213.575 168.852   2
 -15   5  27 633.203 278.403   1
 -15  -5  26 121.333 110.487   1
 -15  -5  26-78.4817 132.996   2
 -15   5  25 6470.40 879.072   1
 -15  -5  25 5418.17 926.283   2
 -15  -5  25 5424.40 633.315   1
 -15  -5  24-79.1012 159.854   2
 -15   5  24 32.5515 135.241   1
 -15  -5  24 29.4264 28.6957   1
 -15   5  23 8070.78 947.864   1
 -15  -5  23 6871.24 1030.80   2
 -15  -5  23 7555.86 697.725   1
 -15   5  22 42.9621 129.700   1
 -15  -5  22-27.5356 98.5481   2
 -15  -5  22 168.506 107.527   1
 -15   5  21 19558.6 1436.40   1
 -15  -5  21 18719.8 1654.20   2
 -15  -5  21 17817.0 996.930   1
 -15   5  20 57.5208 40.3067   1
 -15  -5  20-7.93472 38.5555   1
 -15   5  20 17.5873 66.8952   6
 -15  -5  19 82.9056 70.9236   1
 -15   5  19 44.5525 101.866   1
 -15  -5  19-0.64904 104.949   2
 -15   5  19-78.6115 124.775   6
 -15  -5  18-13.1091 16.3393   1
 -15   5  18 110.984 137.294   1
 -15  -5  18 45.9212 138.226   2
 -15   5  18-7.30341 61.4314   6
 -15   5  17 21848.0 1450.99   1
 -15  -5  17 22077.3 1728.79   2
 -15   5  17 20230.9 1401.19   6
 -15  -5  17 20739.6 885.991   1
 -15   5  16 232.701 197.328   1
 -15  -5  16 334.970 228.647   2
 -15   5  16 278.769 179.591   3
 -15   5  16 47.5000 183.590   6
 -15  -5  16 313.933 106.030   1
 -15  -5  15 3014.77 600.856   2
 -15  -5  15 2991.21 294.886   1
 -15   5  15 2814.34 509.792   1
 -15   5  15 4067.45 618.888   6
 -15   5  15 2572.80 509.907   3
 -15  -5  14 67.0427 34.8655   1
 -15  -5  14-58.0554 115.671   2
 -15   5  14 5.80268 58.5688   3
 -15   5  14 39.3249 123.930   6
 -15   5  14 138.761 112.562   1
 -15   5  13 20253.8 1430.14   3
 -15   5  13 17632.1 1268.90   6
 -15  -5  13 18499.2 1533.50   2
 -15  -5  12 32.8195 99.1041   2
 -15   5  12 80.1607 140.830   3
 -15   5  12 92.7909 77.5540   6
  15  -5 -12 53.1931 41.4419   2
 -15  -5  11 2522.30 541.009   2
  15  -5 -11 1870.91 263.990   2
 -15   5  11 1496.88 376.660   3
 -15   5  11 1890.76 399.650   6
 -15   5  10 31.2119 87.9065   3
 -15   5  10 38.9974 75.5043   6
  15  -5  -9 18846.3 823.145   7
 -15   5   9 18762.4 1355.98   3
 -15   5   9 17514.7 1224.71   6
 -15  -5   9 17321.9 1466.61   2
 -15  -5   8 110.541 167.324   2
  15  -5  -8-22.3746 33.3041   7
 -15   5   8 67.1566 158.343   3
 -15   5   8 10.2375 101.895   6
 -15  -5   7 81.0400 87.8062   2
  15  -5  -7 210.172 98.2210   7
 -15   5   7 96.4753 131.709   3
 -15   5   7 66.7207 115.271   6
 -15  -5   7 144.566 81.9213   6
 -15  -5   6 59.6508 94.6100   2
  15  -5  -6 222.194 128.722   7
 -15   5   6-171.884 164.889   3
 -15   5   6 74.3445 52.7633   6
 -15  -5   6 92.8229 48.2039   6
  15  -5  -5 13525.6 905.617   7
 -15   5   5 10818.8 1034.38   3
 -15   5   5 12078.1 1021.50   6
 -15  -5   5 11218.5 451.340   6
 -15  -5   5 13396.3 1321.75   2
 -15  -5   4-13.1526 47.8539   2
  15  -5  -4-23.1468 43.6612   7
 -15   5   4 3.60629 45.8681   3
  15  -5  -3 11078.7 874.538   7
 -15  -5   3 11236.4 1196.55   2
 -15   5   3 10683.7 1023.92   3
 -15  -5   2 166.261 110.533   2
  15  -5  -2 69.5882 104.902   7
 -15   5   2-11.8652 105.855   3
  15  -5  -1 18032.0 1180.02   7
 -15   5   1 15947.2 1259.19   3
 -15  -5   1 17643.1 1503.38   2
  15  -5   0 30.6969 71.0455   7
 -15   5   0 16.2515 115.132   3
 -15  -5   0 11.9276 162.757   2
  15  -5   1 466.476 193.060   7
 -15   5  -1 147.446 82.5170   3
  15  -5   2 171.525 161.192   7
 -15   5  -2-77.0244 155.687   3
 -15  -5  -2-15.9858 120.874   2
  15  -5   3 14658.9 1151.50   7
 -15   5  -3 15790.1 1352.27   3
 -15  -5  -3 14513.8 1358.60   2
  15  -5   4 270.473 190.322   7
 -15   5  -4-154.553 166.519   3
 -15  -5  -4-223.661 190.107   2
 -15   5  -5 20875.2 1499.00   3
  15  -5   5 19755.7 1396.49   7
 -15  -5  -5 19546.1 1572.87   2
  15  -5   6 204.845 193.504   7
 -15   5  -6 285.137 227.629   3
 -15  -5  -6 231.744 112.141   2
  15  -5   6-49.0729 112.277   5
 -15   5  -7 12572.5 1193.17   3
  15  -5   7 11414.6 1106.67   7
 -15  -5  -7 11193.1 1181.24   2
  15  -5   7 12695.1 1216.61   5
  15  -5   8 114.364 51.8339   7
 -15   5  -8-73.4542 125.893   3
 -15  -5  -8 31.1450 88.0367   2
  15  -5   8 47.0110 59.9821   5
 -15   5  -9 8521.04 990.165   3
  15  -5   9 8775.96 1003.97   7
 -15  -5  -9 8831.73 1042.84   2
  15  -5   9 8991.24 1012.45   5
 -15   5 -10 31.3550 152.547   3
  15  -5  10 90.5841 82.9821   7
  15   5  10 34.7448 102.028   7
 -15  -5 -10-46.7082 129.536   2
  15  -5  10 70.2286 61.2669   5
 -15   5 -11 2154.39 490.029   3
  15  -5  11 1554.10 440.131   7
  15   5  11 1633.52 403.238   7
  15  -5  11 1676.13 437.879   5
 -15   5 -12 142.840 140.261   3
  15  -5  12 13.2135 93.8507   7
  15   5  12-78.8089 163.780   7
  15  -5  12-257.634 221.502   5
 -15   5 -13 13182.3 1272.14   3
  15  -5  13 13704.2 1351.61   7
  15   5  13 13469.8 1206.14   7
  15  -5  13 13002.3 1195.60   5
 -15   5 -14-64.4697 89.0943   3
  15  -5  14 6.48215 114.623   7
  15   5  14-14.2386 42.0945   7
 -15   5 -15 1524.95 444.364   3
  15  -5  15 856.190 359.158   7
  15   5  15 982.368 326.835   7
  15  -5  15 813.534 294.356   5
 -15   5 -16-34.9515 145.768   3
  15  -5  16 187.341 207.689   7
  15   5  16-163.279 205.310   7
 -15   5 -17 3697.12 690.989   3
  15  -5  17 3836.53 789.103   7
  15   5  17 3835.47 677.994   7
 -15   5 -18 285.559 197.163   3
  15  -5  18 194.321 144.540   7
  15   5  18 411.391 442.357   7
 -15   5 -19 377.803 259.537   3
  15  -5  19 785.517 394.413   7
  15   5  19 563.166 272.003   7
 -15   5 -20-88.8960 130.056   3
  15  -5  20-64.0157 90.8666   7
 -15   5 -21 14751.2 1439.16   3
  15  -5  21 16885.1 1750.87   7
  15   5  21 16085.3 1477.62   7
  15   5  22-79.7368 122.786   7
  15   5  23 295.961 183.909   7
 -15   7  30-12.9098 60.0564   3
 -15   7  29 7679.94 1069.92   1
 -15   7  29 7466.71 1105.52   3
 -15   7  28 360.727 260.791   1
 -15   7  28-5.90183 134.304   3
  15  -7 -28 126.101 186.020   5
 -15   7  27 275.861 199.592   1
 -15  -7  27 56.4412 206.526   2
 -15   7  27 164.157 220.215   3
  15  -7 -27 605.538 310.157   5
 -15   7  26 18.8110 60.9663   1
 -15  -7  26-28.6518 200.454   2
 -15   7  26 251.659 197.001   3
  15  -7 -26-8.63830 141.788   5
 -15   7  25 7373.05 1003.27   1
 -15  -7  25 7815.57 1262.38   2
 -15   7  25 10468.4 1266.82   3
 -15   7  25 8234.92 999.870   6
  15  -7 -25 8059.85 1288.65   5
 -15   7  24-154.549 205.854   1
 -15  -7  24 42.7394 92.8421   2
 -15   7  24-45.7498 203.373   3
 -15   7  24-114.353 145.586   6
  15  -7 -24-164.944 290.296   5
 -15   7  23 6005.43 882.787   1
 -15  -7  23 4937.69 999.746   2
 -15   7  23 5528.55 824.959   6
 -15   7  23 4705.51 840.639   3
  15  -7 -23 4198.87 929.123   5
 -15   7  22-4.73893 89.1590   1
 -15  -7  22 19.2014 77.5876   2
 -15   7  22 55.8617 65.7583   3
 -15   7  22 95.5141 131.255   6
  15  -7 -22 85.9863 210.536   5
 -15   7  21 9402.04 1078.50   1
 -15  -7  21 8056.00 1235.26   2
 -15   7  21 8837.76 1129.47   3
 -15   7  21 9564.08 1070.27   6
  15  -7 -21 10015.2 1398.31   5
 -15  -7  20 80.3911 90.1686   2
 -15   7  20-52.3202 152.995   3
  15  -7 -20 361.722 233.926   5
 -15  -7  19-222.480 206.913   2
 -15   7  19-122.485 182.463   3
 -15   7  19-149.980 118.935   6
  15  -7 -19-95.4951 92.2990   5
 -15  -7  18 657.999 305.142   2
 -15   7  18 936.851 364.410   3
 -15   7  18 500.640 244.594   6
  15  -7 -18 669.569 343.134   5
 -15  -7  17 14458.2 1612.12   2
 -15   7  17 14882.4 1425.95   3
 -15   7  17 15236.6 1285.42   6
  15  -7 -17 15089.5 1657.62   5
 -15  -7  16 331.213 249.911   2
 -15   7  16 329.979 225.830   3
 -15   7  16 358.587 291.648   6
  15  -7 -16 541.431 353.665   5
 -15  -7  15 2803.05 714.353   2
 -15   7  15 2617.49 583.252   3
 -15   7  15 2795.94 534.454   6
  15  -7 -15 2173.40 621.765   5
 -15  -7  14 162.099 166.313   2
 -15   7  14 54.1383 128.837   3
 -15   7  14 400.736 440.805   6
  15  -7 -14 438.709 289.138   5
 -15   7  13 13479.8 1332.18   3
 -15   7  13 13663.3 1178.38   6
  15  -7 -13 14027.5 1578.51   5
 -15  -7  13 14726.3 1591.36   2
 -15  -7  12-83.8243 60.8404   2
 -15   7  12 188.371 234.428   3
 -15   7  12-200.882 180.860   6
  15  -7 -12 11.4381 109.067   5
 -15  -7  11 1181.62 467.872   2
 -15   7  11 1345.77 443.116   3
 -15   7  11 1703.68 402.212   6
  15  -7 -11 900.072 360.949   5
 -15  -7  10-142.612 141.820   2
 -15   7  10-151.098 153.815   3
  15  -7 -10 83.9718 152.294   5
 -15   7   9 9636.94 1140.98   3
  15  -7  -9 10767.3 1352.57   5
 -15  -7   9 10053.0 1323.98   2
 -15  -7   8 168.757 142.243   2
  15  -7  -8 156.321 204.686   5
 -15  -7   7-43.0820 138.895   2
 -15   7   7 103.558 120.590   3
  15  -7  -7-235.299 251.804   5
 -15  -7   6 64.0941 149.702   2
 -15   7   6-14.6628 92.8699   3
  15  -7  -6 93.3071 214.403   5
  15  -7  -6 236.730 181.698   2
 -15   7   5 11880.8 1260.01   3
  15  -7  -5 12720.8 1157.63   2
  15  -7  -5 14646.8 1562.44   5
 -15  -7   5 12663.7 1472.41   2
 -15  -7   4 97.6802 143.887   2
 -15   7   4 116.862 106.195   3
  15  -7  -4 99.5623 89.1198   5
  15  -7  -4 128.723 136.361   2
 -15   7   3 8679.60 1092.30   3
  15  -7  -3 11445.2 1363.41   5
 -15  -7   3 9663.81 1297.70   2
 -15  -7   2 392.167 337.189   2
  15  -7  -2-84.6922 102.738   7
 -15   7   2 44.6908 159.968   3
  15  -7  -2-3.00767 204.739   5
  15  -7  -1 18151.2 1391.94   7
 -15   7   1 18045.2 1593.93   3
  15  -7  -1 17761.6 1689.48   5
 -15  -7   1 18047.7 1772.12   2
  15  -7   0 180.292 139.099   7
 -15   7   0-5.15994 82.3977   3
  15  -7   0 32.1049 139.571   5
 -15  -7   0 312.629 192.241   2
  15  -7   1 657.737 325.158   7
 -15   7  -1 471.395 253.330   3
  15  -7   1 419.246 315.717   5
 -15  -7  -1 224.416 167.216   2
  15  -7   2-133.573 60.7081   7
 -15   7  -2 98.1908 212.002   3
  15  -7   2 272.018 311.304   5
 -15  -7  -2-48.8848 227.134   2
 -15   7  -3 5290.65 885.075   3
  15  -7   3 5002.91 792.214   7
  15  -7   3 5831.05 960.216   5
 -15  -7  -3 4909.68 903.451   2
  15  -7   4-305.852 188.524   7
 -15   7  -4-64.5536 181.084   3
  15  -7   4-63.5761 137.374   5
 -15  -7  -4 119.026 135.128   2
 -15   7  -5 9404.04 1184.12   3
  15  -7   5 9286.74 1127.33   7
 -15  -7  -5 7575.93 1110.72   2
  15  -7   5 8175.58 1143.50   5
  15  -7   6 119.978 160.947   7
 -15   7  -6 211.847 176.847   3
  15  -7   6 56.7893 79.3654   5
 -15  -7  -6 135.639 199.682   2
 -15   7  -7 6245.46 971.033   3
  15  -7   7 5886.05 915.884   7
 -15  -7  -7 6726.41 1039.76   2
  15  -7   7 4535.31 850.767   5
  15  -7   8 261.054 221.511   7
 -15   7  -8 188.351 201.666   3
 -15  -7  -8 126.967 160.612   2
  15  -7   8 411.884 281.678   5
 -15   7  -9 6086.96 971.644   3
  15  -7   9 5805.41 931.778   7
 -15  -7  -9 8132.88 1135.19   2
  15  -7   9 6715.43 1035.12   5
  15  -7  10-96.9747 230.213   7
 -15   7 -10 139.395 156.643   3
 -15  -7 -10 112.349 144.196   2
  15  -7  10 232.239 239.335   5
 -15   7 -11 5012.52 897.760   3
  15  -7  11 3823.65 790.889   7
  15   7  11 3517.14 654.703   7
 -15  -7 -11 4946.30 865.387   2
  15  -7  11 4022.50 788.122   5
 -15   7 -12-14.2840 140.394   3
  15   7  12 42.6647 100.521   7
 -15  -7 -12 168.153 122.168   2
  15  -7  12-3.63332 164.276   5
 -15   7 -13 17006.1 1682.26   3
  15  -7  13 18695.6 1786.29   7
  15   7  13 18395.1 1506.39   7
  15  -7  13 15191.4 1523.74   5
 -15   7 -14 217.893 192.152   3
  15  -7  14 151.744 171.212   7
  15   7  14 28.7459 96.4390   7
 -15   7 -15 1566.58 540.055   3
  15  -7  15 2380.64 651.616   7
  15   7  15 1309.57 412.653   7
 -15   7 -16 124.408 192.335   3
  15  -7  16 340.709 278.812   7
  15   7  16-250.281 178.332   7
 -15   7 -17 3419.29 743.709   3
 -15   9  17 12599.7 1475.43   3
 -15   9  16 60.0626 65.2945   3
 -15   9  15 1246.01 459.583   3
 -15   9  14 125.842 206.345   3
  15  -9 -14 201.398 174.622   5
 -15   9  13 9150.31 1246.81   3
  15  -9 -13 9769.81 1502.69   5
 -15  -9  13 7885.00 1345.59   2
 -15  -9  12-69.9017 240.348   2
 -15   9  12 348.250 255.207   3
  15  -9 -12 569.004 450.276   5
 -15  -9  11 1055.40 480.037   2
 -15   9  11 1705.14 538.031   3
  15  -9 -11 1171.34 478.154   5
 -15  -9  10-86.7780 117.362   2
  15  -9 -10 361.854 332.557   5
 -15   9   9 8049.30 1174.20   3
  15  -9  -9 7971.83 1343.31   5
 -15  -9   9 9423.64 1476.78   2
 -15  -9   8-56.4223 153.321   2
 -15   9   8 100.883 213.885   3
  15  -9  -8 508.655 477.048   5
 -15  -9   7 48.8379 95.4520   2
 -15   9   7 47.8876 122.190   3
 -15   9   6-67.0419 201.343   3
  15  -9  -6-180.360 239.676   5
 -15   9   5 9464.01 1290.31   3
  15  -9  -5 7788.43 1300.26   5
 -15  -9   5 7831.40 1329.03   2
 -15  -9   4 250.531 283.455   2
 -15   9   4 134.741 184.791   3
  15  -9  -4 441.412 309.770   5
 -15  -9   3 5490.01 1144.40   2
 -15   9   3 5737.95 1018.81   3
  15  -9  -3 4979.47 1009.69   5
 -15  -9   2-76.3774 137.483   2
 -15   9   2 45.5889 143.312   3
  15  -9  -2 119.101 259.957   5
 -15   9   1 8034.63 1206.71   3
  15  -9  -1 9771.72 1430.39   5
 -15  -9   1 9196.62 1447.14   2
 -15   9   0 311.949 227.822   3
  15  -9   0 575.098 362.946   5
 -15  -9   0 185.897 205.509   2
  15  -9   1 1058.03 505.419   5
 -15  -9  -1 716.896 391.459   2
  15  -9   2 114.265 182.906   5
 -15  -9  -2 71.1628 99.7312   2
  15  -9   3 4890.22 1032.05   5
 -15  -9  -3 5555.78 1091.04   2
  15  -9   4 280.209 277.654   5
 -15  -9  -4 385.860 261.883   2
 -15  -9  -5 6822.70 1185.10   2
  15  -9   5 5558.12 1080.85   2
 -15  -9  -6 140.693 100.581   2
  15  -9   6 200.182 207.106   2
 -15  -9  -7 4793.25 977.217   2
  15  -9   7 4040.84 920.589   2
 -15  -9  -8-10.9781 56.6464   2
  15  -9   8-172.164 198.083   2
 -16   0  38 3039.65 695.680   1
 -16   0  37 80.8543 89.5227   1
 -16   0  36 14628.8 1469.91   1
 -16   0  35-20.5648 144.029   1
 -16   0  34 3163.79 659.316   1
 -16   0  33 104.251 127.914   1
 -16   0  32 2934.56 597.898   1
  16   0 -32 3530.18 618.769   4
 -16   0  31 35.0593 83.8868   1
  16   0 -31 115.925 169.206   4
 -16   0  30 10872.7 903.320   2
 -16   0  30 11563.4 1154.08   1
  16   0 -30 12958.3 1204.30   4
 -16   0  29-91.5465 27.9532   2
 -16   0  29 49.9373 145.624   1
 -16   0  28 8458.59 778.684   2
 -16   0  28 8853.24 972.766   1
 -16   0  27 10.2047 30.1292   2
 -16   0  27 52.0238 154.482   1
 -16   0  26 6763.20 675.207   2
 -16   0  26 6835.73 821.866   1
 -16   0  25 77.9277 50.7899   2
 -16   0  25-107.499 55.1693   1
 -16   0  24 1570.92 307.799   2
 -16   0  24 1812.67 408.773   1
 -16   0  23-113.369 97.0169   2
 -16   0  23-77.2554 137.060   1
 -16   0  22 5337.90 648.459   1
 -16   0  22 6113.33 605.490   2
 -16   0  21-13.3444 106.878   1
 -16   0  21-19.4543 58.4057   2
 -16   0  20 3602.17 508.800   1
 -16   0  20 4416.63 502.608   2
 -16   0  19-160.041 136.855   1
 -16   0  19-102.262 114.563   2
 -16   0  18 40282.6 1645.74   1
 -16   0  18 39917.9 1503.26   2
 -16   0  17-80.0212 64.2225   2
 -16   0  17-9.84589 68.2812   1
  16   0 -17-12.4842 69.0537   2
 -16   0  16 7506.35 680.861   1
 -16   0  16 7442.34 647.020   2
 -16   0  15-27.8673 67.8648   2
 -16   0  15-33.8773 64.3850   1
  16   0 -15 77.8979 67.4575   2
 -16   0  14 29156.8 1294.53   1
 -16   0  14 30731.7 1304.09   2
  16   0 -13 6.91788 59.0063   2
 -16   0  13-1.84914 34.0953   1
 -16   0  13 38.4396 34.1450   2
 -16   0  12 3111.94 410.674   1
 -16   0  12 3021.98 413.621   2
 -16   0  11-26.4234 42.3566   1
 -16   0  11-21.9861 77.1127   2
 -16   0  10 9508.81 718.622   1
 -16   0  10 9615.55 747.658   2
 -16   0   9 51.2538 72.5594   6
 -16   0   9-124.610 108.437   2
 -16   0   8 1300.04 280.741   6
 -16   0   8 1239.89 265.659   2
 -16   0   7-22.5334 56.3560   6
 -16   0   7-62.7196 92.8927   2
 -16   0   6 26357.9 1245.45   6
 -16   0   6 24906.2 1241.62   2
 -16   0   5 80.2419 83.1110   6
 -16   0   5-38.5477 63.3478   2
 -16   0   4 86.2431 113.590   6
 -16   0   4 63.9608 66.8598   2
 -16   0   3 153.025 147.944   6
 -16   0   3-15.6713 71.9037   2
  16   0  -2 34473.1 1419.39   7
 -16   0   2 34986.8 1428.71   6
  16   0  -1-300.908 157.010   7
 -16   0   1-183.255 137.215   6
  16   0   0 24440.4 1233.65   7
  16   0   1-10.1441 74.0226   7
 -16   0  -1-13.1062 46.7481   3
  16   0   2 19696.1 1144.22   7
 -16   0  -2 20458.8 876.951   3
  16   0   3-69.6182 71.9361   7
 -16   0  -3 39.9324 23.4192   3
  16   0   4 118.424 51.2599   7
 -16   0  -4 259.999 100.672   3
 -16   0  -5-13.5803 22.5303   3
  16   0   5 33.0133 80.3082   7
 -16   0  -6 7084.98 492.647   3
  16   0   6 6813.73 722.737   7
  16   0   7 47.9022 111.084   7
 -16   0  -7-33.1241 53.0665   3
 -16   0  -8 20844.8 811.665   3
  16   0   8 19421.5 1275.55   7
  16   0   8 20486.2 1197.05   4
 -16   0  -9 24.4078 34.0611   3
  16   0   9 126.373 110.228   7
  16   0   9-54.3763 97.1763   4
 -16   0 -10 8074.22 482.281   3
  16   0  10 6984.00 799.236   7
  16   0  10 7489.73 689.671   4
 -16   0 -11 3.42453 34.7621   3
  16   0  11-96.6755 136.744   7
  16   0  11 67.0127 107.080   4
 -16   0 -12 4435.75 346.552   3
  16   0  12 4291.52 645.145   7
  16   0  12 4737.33 510.291   4
 -16   0 -13 4.35543 33.4154   3
  16   0  13-176.319 163.034   7
  16   0  13-25.7093 50.4692   4
  16   0  14 715.894 291.553   7
  16   0  14 882.123 207.766   4
  16   0  15-281.501 197.575   7
  16   0  16 14163.4 1274.51   7
  16   0  17 27.7924 61.1734   7
  16   0  18 2067.39 523.599   7
  16   0  19 164.678 201.073   7
  16   0  20 9924.22 1167.86   7
  16   0  21-78.2042 105.663   7
  16   0  22 1346.83 456.832   7
  16   0  23 479.505 295.515   7
  16   0  24 25437.5 2001.80   7
  16   0  25-191.863 216.014   7
  16   0  26 253.905 187.504   7
 -16  -2  38 4109.71 792.277   1
 -16   2  37 112.345 189.908   1
 -16  -2  37 267.305 231.606   1
 -16   2  36 10359.8 1265.91   1
 -16  -2  36 11382.8 1265.42   1
 -16   2  35-131.066 47.4823   1
 -16  -2  35 43.0268 46.0341   1
 -16   2  34 5177.34 866.812   1
 -16  -2  34 3945.96 712.497   2
 -16  -2  34 3409.55 663.987   1
 -16   2  33 245.308 198.989   1
 -16  -2  33 191.903 158.283   2
 -16  -2  33 236.657 223.548   1
 -16   2  32 2893.02 615.519   1
 -16  -2  32 2887.20 599.496   2
 -16  -2  32 2466.28 543.763   1
 -16   2  31-84.9901 174.715   1
 -16  -2  31-215.204 163.992   2
  16  -2 -31-398.405 226.391   4
 -16  -2  31 88.2894 103.503   1
 -16  -2  30 6853.76 903.770   2
 -16   2  30 6238.09 878.862   1
 -16  -2  30 5979.81 798.801   1
  16  -2 -30 6228.07 894.823   4
 -16   2  29-125.575 178.840   1
 -16  -2  29-45.7120 78.7297   2
  16  -2 -29-189.614 222.361   4
 -16  -2  29 38.2689 130.629   1
 -16  -2  28 15307.0 1312.29   2
 -16   2  28 15553.8 1338.98   1
 -16  -2  28 13802.9 1172.95   1
  16  -2 -28 13919.4 1327.45   4
 -16   2  27-120.268 131.928   1
 -16  -2  27-79.2107 96.5394   2
 -16  -2  27-50.5565 49.4647   1
  16  -2 -27-87.4800 112.850   4
 -16  -2  26 17589.4 1371.73   2
 -16   2  26 17676.4 1360.75   1
 -16  -2  26 17292.9 1245.87   1
  16  -2 -26 15998.7 1408.01   4
 -16   2  25-301.819 167.153   1
 -16  -2  25 4.31961 81.5362   2
 -16  -2  25 148.103 117.248   1
  16  -2 -25-112.457 149.824   4
 -16   2  24 432.367 199.886   1
 -16  -2  24 962.302 291.036   2
 -16  -2  24 797.636 265.689   1
  16  -2 -24 604.597 237.374   4
 -16  -2  23-96.4300 117.379   2
 -16  -2  23 171.329 163.875   1
  16  -2 -23-8.22159 92.8579   4
 -16   2  23 41.9720 48.5751   1
 -16  -2  22 10981.8 1019.76   2
 -16   2  22 12084.6 1040.00   1
 -16  -2  22 11304.9 902.063   1
  16  -2 -22 10227.1 1089.40   4
  16  -2 -21 82.2887 43.2738   7
 -16  -2  21 77.4164 52.5712   2
 -16  -2  21 174.250 85.6507   1
 -16   2  21 159.477 145.121   1
  16  -2 -21-93.7900 92.2787   4
  16  -2 -20 1353.66 186.400   7
 -16  -2  20 1607.27 321.075   1
 -16  -2  20 1986.50 426.561   2
 -16   2  20 1720.72 375.164   1
  16  -2 -20 1155.32 362.866   4
 -16  -2  19 26.0813 113.203   1
  16  -2 -19 222.101 71.3917   7
 -16  -2  19 5.30959 74.1046   2
  16  -2 -19-55.1361 128.416   4
 -16  -2  18 11620.9 993.413   2
 -16   2  18 9422.80 854.996   1
  16  -2 -18 10139.2 524.598   7
 -16  -2  18 9330.76 732.194   1
  16  -2 -18 10768.4 1082.18   4
  16  -2 -17 22.2696 33.2256   7
 -16  -2  17 185.110 158.051   2
 -16   2  17 129.453 101.323   1
  16  -2 -17-97.3171 190.193   4
 -16  -2  17 44.7622 76.8611   1
  16  -2 -16 1254.07 192.542   7
 -16  -2  16 1395.48 336.534   2
  16  -2 -16 1400.21 193.031   2
 -16   2  16 1148.69 314.818   1
 -16  -2  16 987.764 222.406   1
  16  -2 -16 1084.63 317.936   4
 -16  -2  15 80.3683 71.4752   2
 -16   2  15 116.611 132.700   1
  16  -2 -15 59.1585 51.0781   2
 -16  -2  15 84.5443 98.6339   1
  16  -2 -15 193.959 97.1957   4
 -16   2  14 19134.8 1160.12   1
 -16  -2  14 21561.1 1007.37   1
  16  -2 -14 21731.1 872.537   2
  16  -2 -14 22521.9 791.287   7
  16  -2 -14 20370.5 1475.29   4
 -16  -2  14 21273.2 1329.40   2
 -16  -2  13 47.8397 60.7845   2
 -16  -2  13 28.5576 30.9557   1
  16  -2 -13-48.4825 26.8965   7
  16  -2 -13 21.9118 43.3709   2
  16  -2 -13 115.779 129.326   4
 -16  -2  12 1885.37 394.478   2
 -16   2  12 1434.03 316.358   1
 -16  -2  12 980.939 207.354   1
  16  -2 -12 1680.04 228.734   7
  16   2 -12 1545.33 263.761   1
  16  -2 -12 1565.44 407.246   4
  16  -2 -12 1667.92 250.857   2
 -16  -2  11-83.7916 105.212   2
 -16   2  11 70.9867 101.130   1
  16  -2 -11 27.0693 58.0596   2
 -16  -2  11 8.09255 46.9684   1
  16   2 -11-25.9625 47.2024   1
  16  -2 -11-10.0722 25.7694   7
 -16   2  11-67.2149 128.923   6
  16  -2 -11-44.8334 100.132   4
  16   2 -10 38273.0 1256.96   1
  16  -2 -10 40340.2 1199.99   7
 -16   2  10 41042.1 1712.33   6
 -16  -2  10 38539.6 1791.72   2
  16  -2 -10 38946.9 1327.65   2
  16  -2 -10 38805.2 1974.02   4
 -16  -2  10 39028.7 1277.43   1
  16  -2  -9 169.583 84.8638   2
 -16  -2   9 85.4740 132.716   2
  16   2  -9 18.2818 33.3239   1
  16  -2  -9-10.2137 32.4419   7
 -16   2   9-178.370 158.149   6
  16  -2  -9 115.857 142.824   4
  16  -2  -8 7948.85 566.693   7
 -16   2   8 8672.00 787.375   6
  16   2  -8 8433.67 563.207   1
  16  -2  -8 7837.33 628.471   2
 -16  -2   8 9025.21 861.366   2
  16  -2  -8 8606.09 921.761   4
  16   2  -7-33.1277 53.4558   1
  16  -2  -7-61.4816 73.0191   7
 -16   2   7-38.6893 83.0967   6
 -16  -2   7-19.9745 100.096   6
  16  -2  -7-0.24208 12.9536   2
 -16  -2   7 45.1183 56.1072   2
  16   2  -6 20585.6 859.657   1
  16  -2  -6 19672.8 945.440   7
 -16   2   6 20510.1 1186.29   6
 -16  -2   6 20330.5 1018.27   6
 -16  -2   6 20121.0 1295.69   2
  16  -2  -6 18818.1 1346.75   4
 -16  -2   5 27.0363 39.7023   3
  16  -2  -5-63.2752 83.7601   7
 -16   2   5 217.315 176.772   6
 -16  -2   5 293.375 126.802   6
  16   2  -5-46.1944 53.8690   1
 -16  -2   5 34.5166 51.8324   2
  16  -2  -5 243.949 185.172   4
 -16  -2   4 1208.60 245.867   3
  16   2  -4 1494.24 226.285   1
  16  -2  -4 1237.27 257.424   7
 -16   2   4 1483.22 331.082   6
 -16  -2   4 1609.67 276.636   6
 -16  -2   4 1245.68 326.688   2
  16  -2  -4 1778.39 407.254   4
 -16  -2   3-24.8193 28.5686   3
  16   2  -3 145.551 54.9262   1
  16  -2  -3 221.658 118.319   7
 -16   2   3-65.2808 61.7163   6
 -16  -2   3 53.2827 66.0697   6
 -16   2   3 98.3932 89.8899   3
 -16  -2   3 290.006 149.759   2
  16  -2  -3 207.702 173.701   4
 -16  -2   2 25117.8 1039.91   3
  16   2  -2 26674.2 980.765   1
  16  -2  -2 23406.6 1152.19   7
 -16   2   2 25082.1 1226.15   3
 -16   2   2 25305.3 1337.18   6
 -16  -2   2 24328.3 1067.50   6
 -16  -2   2 25386.2 1492.35   2
  16  -2  -2 26189.1 1534.62   4
 -16  -2   1 336.984 122.162   3
  16   2  -1 248.413 91.7301   1
  16  -2  -1 151.171 79.0173   7
 -16  -2   1 333.868 120.607   6
 -16   2   1 145.928 66.7063   3
 -16  -2   1 300.707 122.443   2
 -16   2   1 62.9887 80.2610   6
  16  -2  -1 253.620 188.947   4
 -16  -2   0 15697.9 721.996   3
  16  -2   0 14814.3 951.046   7
 -16   2   0 15227.5 957.680   3
 -16  -2   0 16051.7 1189.07   2
  16  -2   0 15066.3 1152.47   4
 -16  -2  -1 506.322 119.188   3
  16  -2   1 521.806 224.085   7
 -16   2  -1 399.554 133.112   3
 -16  -2  -1 708.104 227.370   2
  16  -2   1 540.548 220.898   4
 -16  -2  -2 25187.3 765.515   3
  16  -2   2 23934.6 1282.45   7
 -16   2  -2 24561.3 1225.31   3
 -16  -2  -2 25634.3 1508.65   2
  16  -2   2 25077.2 1452.98   4
 -16  -2  -3 23.9464 10.5319   3
  16  -2   3-42.3098 76.6258   7
 -16   2  -3-21.2207 56.3907   3
 -16  -2  -3 4.18487 82.0230   2
  16  -2   3 38.4472 95.2759   4
 -16  -2  -4 2219.56 147.888   3
 -16   2  -4 2938.74 425.171   3
  16  -2   4 2308.37 415.002   7
 -16  -2  -4 2311.88 459.504   2
  16  -2   4 2322.95 426.835   4
 -16  -2  -4 2101.99 142.456   3
  16  -2   5 153.842 71.1594   7
 -16   2  -5 75.4169 57.4048   3
  16   2   5-34.7722 78.4692   7
  16  -2   5 97.6608 108.721   4
 -16   2  -6 2080.39 361.258   3
  16  -2   6 2881.96 484.097   7
  16   2   6 2793.30 474.859   7
  16  -2   6 2724.49 465.828   4
  16  -2   7-7.52828 50.5144   7
 -16   2  -7 9.31662 81.3124   3
  16   2   7 7.66433 106.031   7
  16  -2   7 7.59513 64.4847   4
 -16   2  -8 9298.17 792.037   3
  16  -2   8 9096.70 901.744   7
  16   2   8 9004.16 880.022   7
 -16   2  -9 5.24787 43.4570   3
  16  -2   9 10.8139 59.1012   7
  16   2   9-23.1738 53.7069   7
 -16   2 -10 5296.98 598.352   3
  16  -2  10 4814.39 680.566   7
  16   2  10 4639.30 638.908   7
 -16   2 -11 102.167 33.6202   3
  16  -2  11 257.203 172.134   7
  16   2  11 144.123 111.116   7
 -16   2 -12 4661.53 562.351   3
  16  -2  12 4453.56 685.139   7
  16   2  12 4763.41 681.557   7
 -16   2 -13 216.908 136.293   3
  16  -2  13 270.424 162.698   7
  16   2  13 43.6011 93.0939   7
 -16   2 -14 5150.23 599.311   3
  16  -2  14 4695.25 736.568   7
  16   2  14 4247.20 671.750   7
 -16   2 -15-11.0217 37.1614   3
  16  -2  15-23.8666 97.7453   7
  16   2  15-185.911 169.250   7
 -16   2 -16 33281.4 1540.09   3
  16  -2  16 35715.1 2112.53   7
  16   2  16 33943.1 1964.15   7
 -16   2 -17 19.3086 58.8852   3
  16  -2  17-190.103 219.454   7
  16   2  17-166.286 171.502   7
  16  -2  18 1455.24 440.270   7
  16   2  18 2177.68 518.995   7
  16   2  19 127.572 171.878   7
  16  -2  19 39.1868 90.8029   7
  16  -2  20 8805.49 1142.62   7
  16   2  20 7330.61 970.542   7
  16  -2  21 88.8960 105.435   7
  16   2  21 63.0791 90.7482   7
  16   2  22 340.867 246.345   7
  16  -2  22-35.9274 184.388   7
  16  -2  23-181.006 230.888   7
  16   2  23-11.4137 114.326   7
  16   2  24 9879.20 1219.80   7
  16  -2  24 9379.60 1277.81   7
  16   2  25 287.441 233.575   7
  16   2  26 37.8748 111.252   7
 -16  -4  37 7.23561 44.8675   1
 -16  -4  37 161.536 177.285   2
 -16  -4  36 8904.19 1273.44   2
 -16  -4  36 12856.5 1315.23   1
 -16  -4  35-395.280 225.684   1
 -16  -4  35-178.826 181.650   2
 -16   4  35 133.843 203.382   1
 -16  -4  34 3439.50 648.222   1
 -16   4  34 3774.87 748.665   1
 -16  -4  33 131.459 156.134   1
 -16  -4  33 177.571 58.8252   2
 -16   4  33 230.670 182.004   1
 -16  -4  32 3219.92 606.543   1
 -16  -4  32 3147.77 714.683   2
 -16   4  32 2688.82 604.330   1
 -16  -4  31 48.8819 81.5304   1
 -16  -4  31 15.9597 108.845   2
 -16   4  31 76.7680 180.378   1
 -16  -4  30 6022.45 985.616   2
 -16   4  30 7167.84 961.601   1
 -16  -4  30 7077.59 850.281   1
 -16  -4  29-26.3336 46.2469   1
 -16  -4  29 2.88429 161.829   2
 -16   4  29 101.658 174.725   1
 -16  -4  28 8598.29 1137.42   2
 -16   4  28 9211.69 1064.84   1
 -16  -4  28 9632.81 938.916   1
 -16  -4  27 305.822 194.499   2
 -16   4  27 202.036 172.898   1
 -16  -4  27 120.321 88.0580   1
 -16   4  26 10025.0 1085.37   1
 -16  -4  26 9817.83 1184.68   2
 -16  -4  26 10497.5 925.119   1
 -16  -4  25-1.95279 65.6588   2
 -16   4  25-12.0097 114.982   1
 -16  -4  25-19.1719 78.0431   1
 -16  -4  24 166.472 134.439   2
 -16   4  24 340.168 196.480   1
 -16  -4  24 735.023 223.481   1
 -16   4  23-55.4357 121.637   1
 -16  -4  23 30.0660 85.9833   1
 -16  -4  23 44.6528 125.550   2
 -16   4  22 9379.37 978.038   1
 -16  -4  22 8813.61 1078.98   2
 -16  -4  22 9564.94 782.268   1
 -16  -4  21 67.6405 135.262   2
 -16  -4  21 58.1013 66.6661   1
 -16   4  21 1.39396 155.333   1
 -16  -4  20 1626.44 300.987   1
 -16  -4  20 2091.02 509.072   2
 -16   4  20 1637.75 391.609   1
 -16  -4  19 33.8006 48.7567   1
 -16  -4  19 271.284 199.444   2
 -16   4  19 115.320 150.342   1
 -16  -4  18 21547.9 1615.37   2
 -16   4  18 20899.3 1382.51   1
 -16  -4  18 22532.1 1041.12   1
 -16   4  17-42.9873 74.5646   1
 -16  -4  17 159.762 187.668   2
 -16   4  17-45.6270 62.2630   6
 -16  -4  17 66.3759 22.0170   1
 -16   4  16 1300.20 349.345   1
 -16  -4  16 1819.76 438.557   2
 -16   4  16 1494.65 467.462   6
 -16  -4  16 1426.32 233.045   1
 -16   4  15 225.931 145.770   1
 -16  -4  15 407.213 221.383   2
 -16  -4  15 174.818 80.2698   1
 -16   4  15 120.753 104.828   6
 -16   4  14 19129.3 1282.53   1
 -16  -4  14 20564.2 847.708   1
 -16   4  14 21518.9 1387.09   6
 -16  -4  14 19893.1 1498.57   2
 -16  -4  13-10.3967 52.1342   1
  16  -4 -13-10.4619 22.2477   2
 -16  -4  13 87.2548 109.820   2
 -16   4  13-71.3978 54.2897   1
  16  -4 -12 1166.08 136.748   7
 -16  -4  12 1414.70 387.222   2
 -16   4  12 1073.32 307.092   6
  16  -4 -12 1193.12 183.924   2
 -16  -4  11-33.9114 146.986   2
  16  -4 -11 70.9014 44.6800   7
 -16   4  11 19.3410 113.724   6
  16  -4 -11-56.7710 50.0907   2
  16  -4 -10 19906.3 786.966   7
 -16   4  10 20084.1 1301.20   6
 -16   4  10 20298.2 1348.89   3
  16  -4 -10 17285.2 818.472   2
 -16  -4  10 20101.5 1497.60   2
 -16  -4   9 63.2287 103.587   2
  16  -4  -9 143.570 75.0565   7
 -16   4   9-31.5392 52.4748   6
 -16   4   9-121.939 168.827   3
  16  -4  -9-155.545 82.1254   2
 -16  -4   8 2152.20 478.856   2
  16  -4  -8 2509.32 323.305   7
 -16   4   8 2656.36 470.193   6
 -16   4   8 2035.45 416.146   3
  16  -4  -8 1835.24 288.246   2
 -16  -4   7-109.293 170.729   2
 -16   4   7 16.0176 79.0686   6
 -16   4   7-27.9150 82.1493   3
 -16  -4   7 46.1623 50.6833   6
  16  -4  -7 26.5821 38.5335   7
  16  -4  -6 19111.4 976.081   7
 -16   4   6 17550.4 1235.89   3
 -16   4   6 18339.3 1232.44   6
 -16  -4   6 19495.6 859.572   6
 -16  -4   6 18496.8 1445.65   2
 -16  -4   5-154.297 166.877   2
  16  -4  -5-70.3296 95.4242   7
 -16   4   5-193.741 199.754   6
 -16   4   5-64.3032 121.109   3
 -16  -4   5-48.9419 65.4439   6
 -16  -4   4 8.00860 85.6068   2
  16  -4  -4 131.454 90.4108   7
 -16   4   4-28.2022 99.9223   3
 -16   4   4 128.213 112.307   6
 -16  -4   4 69.6289 41.2099   6
  16  -4  -3-14.2185 45.6191   7
  16   4  -3 1.77750 10.5109   1
 -16   4   3 37.2786 65.3175   3
 -16  -4   3-97.4415 95.3639   2
  16  -4  -2 22654.5 1215.12   7
 -16   4   2 23464.5 1423.97   3
  16   4  -2 22970.7 543.656   1
 -16  -4   2 22140.7 1590.75   2
  16   4  -1 89.8084 36.3192   1
 -16  -4   1 103.926 74.9791   3
  16  -4  -1 219.994 139.395   7
 -16   4   1 82.5646 91.0370   3
 -16  -4   1 46.8262 52.5542   2
  16   4   0 11601.7 465.407   1
 -16  -4   0 11275.4 646.612   3
  16  -4   0 12058.1 927.481   7
 -16   4   0 10699.3 980.016   3
 -16  -4   0 12230.6 1185.90   2
  16   4   1 545.601 109.162   1
  16  -4   1 332.044 181.750   7
 -16  -4  -1 428.433 119.494   3
 -16   4  -1 487.965 199.325   3
 -16  -4  -1 636.936 257.789   2
  16  -4   2 13588.8 1040.41   7
 -16   4  -2 12371.6 1061.50   3
 -16  -4  -2 13924.9 1267.88   2
 -16   4  -3 31.8627 107.461   3
  16  -4   3-13.5702 58.0296   7
 -16  -4  -3-154.356 164.759   2
  16  -4   4 2346.68 460.209   7
 -16   4  -4 1881.63 419.846   3
 -16  -4  -4 2733.47 565.967   2
  16  -4   5-195.394 178.101   7
 -16   4  -5-9.12447 102.813   3
 -16  -4  -5-101.304 162.576   2
 -16   4  -6 6093.79 766.323   3
  16  -4   6 6129.10 755.242   7
 -16  -4  -6 6589.79 868.511   2
  16  -4   7 39.3120 142.211   7
 -16   4  -7 146.490 64.8159   3
 -16  -4  -7 28.3769 61.0712   2
 -16   4  -8 12401.0 1107.88   3
  16  -4   8 11729.3 1101.64   7
  16   4   8 12085.5 1076.20   7
 -16  -4  -8 12866.3 1208.95   2
  16  -4   9 16.5819 102.629   7
 -16   4  -9-10.7182 45.2180   3
  16   4   9-43.7189 67.0198   7
 -16  -4  -9 75.5098 109.171   2
 -16   4 -10 6429.76 810.132   3
  16  -4  10 5735.76 804.787   7
  16   4  10 5617.99 738.777   7
  16  -4  10 4719.24 692.288   5
 -16   4 -11 272.095 170.780   3
  16  -4  11 347.733 206.642   7
  16   4  11 366.221 185.678   7
  16  -4  11 303.316 175.675   5
 -16   4 -12 4424.90 675.705   3
  16  -4  12 3771.09 674.564   7
  16   4  12 4600.99 697.185   7
  16  -4  12 4308.44 654.141   5
 -16   4 -13 255.530 206.050   3
  16  -4  13 233.962 200.485   7
  16   4  13 199.361 182.690   7
  16  -4  13 157.362 82.4152   5
 -16   4 -14 2667.95 539.265   3
  16  -4  14 1712.16 486.532   7
  16   4  14 1899.43 454.772   7
  16  -4  14 1795.11 413.673   5
 -16   4 -15-19.8424 83.3805   3
  16  -4  15 174.792 192.186   7
  16   4  15 209.653 155.183   7
 -16   4 -16 18982.5 1449.58   3
  16  -4  16 20195.7 1696.53   7
  16   4  16 18249.3 1457.38   7
 -16   4 -17 217.116 179.693   3
  16  -4  17 264.758 188.085   7
  16   4  17-265.759 188.816   7
 -16   4 -18 1057.06 340.753   3
  16   4  18 1695.88 484.736   7
  16  -4  18 1514.10 471.699   7
 -16   4 -19 135.276 138.235   3
  16  -4  19 103.705 70.1560   7
  16   4  19 217.242 168.213   7
  16  -4  20 10248.7 1302.13   7
  16   4  20 7951.31 1037.15   7
  16   4  21 251.580 190.511   7
  16  -4  21 406.061 263.896   7
  16  -4  22 753.031 333.420   7
  16   4  22 628.274 304.252   7
  16   4  23 360.110 170.864   7
  16   4  24 12026.2 1334.84   7
 -16   6  33-101.922 211.062   3
 -16   6  32 2186.82 594.810   3
 -16  -6  31-240.019 260.508   2
 -16   6  31-83.6798 157.488   1
 -16   6  31 137.402 151.929   3
 -16   6  30 6229.17 953.818   1
 -16  -6  30 5276.00 1040.27   2
 -16   6  30 7022.12 1058.20   3
 -16   6  29 11.9357 73.5777   1
 -16  -6  29 12.1307 130.814   2
 -16   6  29-222.428 205.812   3
  16  -6 -29-23.3976 83.3050   5
 -16   6  28 7370.00 1006.04   1
 -16   6  28 7576.77 1076.68   3
  16  -6 -28 6274.75 1109.13   5
 -16  -6  28 6532.49 1120.19   2
 -16  -6  27 10.6958 276.638   2
 -16   6  27-171.860 165.476   3
 -16   6  27 38.3451 70.2928   6
 -16   6  27 248.889 226.781   1
  16  -6 -27 138.682 144.493   5
 -16   6  26 6465.00 925.899   1
 -16  -6  26 5653.41 1032.02   2
 -16   6  26 6178.25 959.114   3
 -16   6  26 6373.16 904.641   6
  16  -6 -26 6815.81 1157.11   5
 -16   6  25-114.849 53.2682   1
 -16  -6  25-331.720 247.837   2
 -16   6  25-38.1954 111.345   3
 -16   6  25-535.645 259.192   6
  16  -6 -25-496.775 368.372   5
 -16   6  24 290.126 240.774   1
 -16  -6  24 138.705 206.983   2
 -16   6  24 58.1773 57.8955   3
 -16   6  24-57.9582 141.848   6
 -16   6  23 183.057 185.816   1
 -16  -6  23 77.7537 198.689   2
 -16   6  23-120.530 155.196   3
 -16   6  23-186.833 184.354   6
 -16   6  22 8148.08 996.154   1
 -16  -6  22 8218.38 1192.64   2
 -16   6  22 8099.78 1058.77   3
 -16   6  22 7926.90 956.300   6
 -16   6  21 4.41184 109.943   3
 -16   6  21 58.5183 87.4481   6
 -16  -6  21-36.9069 207.411   2
 -16   6  20 873.368 331.187   1
 -16  -6  20 1235.54 440.336   2
 -16   6  20 1335.76 416.672   3
 -16   6  20 1207.15 369.433   6
 -16   6  19-100.672 116.521   1
 -16  -6  19-209.737 174.412   2
 -16   6  19 171.914 165.666   3
 -16   6  19 29.9911 87.2870   6
 -16  -6  18 22132.4 1885.95   2
 -16   6  18 22601.0 1714.10   3
 -16   6  18 23276.5 1598.58   6
 -16   6  18 20080.7 1501.90   1
 -16  -6  17 120.471 134.577   2
 -16   6  17 136.518 98.5145   3
 -16   6  17 79.5917 166.358   6
 -16  -6  16 1238.87 426.440   2
 -16   6  16 677.159 278.873   3
 -16   6  16 1430.34 395.443   6
 -16  -6  15 80.3985 126.864   2
 -16   6  15 419.493 201.036   3
 -16   6  15 323.343 152.609   6
 -16   6  14 17161.7 1440.73   3
 -16   6  14 15760.9 1275.97   6
 -16  -6  14 14911.2 1507.33   2
 -16  -6  13-163.474 211.915   2
 -16   6  13 212.735 203.608   3
 -16   6  13 129.654 264.023   6
 -16  -6  12 1446.57 476.926   2
 -16   6  12 929.034 317.289   3
 -16   6  12 1025.00 317.685   6
 -16  -6  11-59.6440 152.666   2
 -16   6  11-78.1070 107.789   3
 -16   6  11-127.307 182.448   6
 -16   6  10 13914.2 1280.10   3
 -16   6  10 12072.4 1098.37   6
 -16  -6  10 11550.4 1310.29   2
 -16  -6   9 192.807 237.399   2
 -16   6   9-45.4828 91.1225   3
 -16   6   9-13.0516 174.796   6
  16  -6  -9 25.5294 98.2572   2
 -16  -6   8 1255.07 448.217   2
 -16   6   8 1074.75 369.420   3
 -16   6   8 1233.89 347.836   6
 -16  -6   7 32.5072 187.628   2
  16  -6  -7-5.21528 64.6796   7
 -16   6   7 38.9729 141.819   3
  16  -6  -6 15079.3 1002.88   7
 -16  -6   6 13673.4 1439.84   2
 -16   6   6 14617.1 1317.22   3
 -16  -6   5-151.370 208.602   2
  16  -6  -5 0.34204 57.7214   7
  16  -6  -4 41.6972 40.7762   7
 -16   6   4 30.0622 111.096   3
 -16  -6   3 152.674 225.844   2
  16  -6  -3 32.8953 67.7798   7
 -16   6   3 100.225 115.076   3
  16  -6  -2 17835.0 1252.72   7
 -16   6   2 17918.9 1459.64   3
 -16  -6   2 17015.6 1630.52   2
  16  -6  -1 96.1380 33.5724   7
 -16   6   1 167.196 147.842   3
 -16  -6   1 55.9921 73.4395   2
  16  -6   0 10944.8 1030.64   7
 -16   6   0 8073.66 1008.73   3
 -16  -6   0 7957.32 1102.56   2
  16  -6   0 9403.08 1164.06   5
 -16   6  -1 172.187 122.536   3
  16  -6   1 324.828 129.121   5
 -16  -6  -1 31.1052 146.686   2
  16  -6   2 10055.5 1036.52   7
 -16   6  -2 9734.76 1099.14   3
 -16  -6  -2 9676.37 1216.42   2
  16  -6   2 9916.97 1189.55   5
  16  -6   3 100.762 90.5180   7
  16  -6   3 18.5600 160.211   5
 -16  -6  -3 127.840 152.554   2
  16  -6   4 1767.48 436.622   7
 -16   6  -4 2241.66 544.730   3
  16  -6   4 2104.68 554.089   5
 -16  -6  -4 2195.76 599.153   2
 -16   6  -5 253.387 225.900   3
  16  -6   5 208.801 187.760   7
 -16  -6  -5 377.726 219.725   2
  16  -6   5 164.386 123.877   5
 -16   6  -6 6241.88 909.332   3
  16  -6   6 6522.55 896.596   7
 -16  -6  -6 6729.94 1002.08   2
  16  -6   6 5350.57 861.991   5
  16  -6   7 245.802 197.693   7
 -16   6  -7 329.493 218.539   3
 -16  -6  -7 220.416 181.563   2
  16  -6   7 233.198 204.060   5
 -16   6  -8 10657.2 1207.51   3
  16  -6   8 12068.5 1255.46   7
 -16  -6  -8 11719.4 1305.62   2
  16  -6   8 12590.6 1330.88   5
  16  -6   9 88.7406 140.757   7
 -16   6  -9 363.276 262.605   3
 -16  -6  -9-87.8791 177.561   2
  16  -6   9-13.5899 61.7602   5
 -16   6 -10 6704.99 962.712   3
  16  -6  10 5578.36 880.338   7
  16   6  10 6063.11 832.502   7
 -16  -6 -10 5482.63 890.590   2
  16  -6  10 6187.76 923.679   5
 -16   6 -11 15.1035 152.126   3
  16  -6  11 260.653 196.349   7
  16   6  11 182.871 175.318   7
 -16  -6 -11 143.179 168.339   2
  16  -6  11 170.493 101.077   5
 -16   6 -12 4453.46 795.626   3
  16  -6  12 4107.66 789.088   7
  16   6  12 3945.17 680.630   7
  16  -6  12 3004.43 613.727   5
 -16   6 -13 205.295 195.835   3
  16  -6  13-79.3397 149.545   7
  16   6  13 196.918 178.697   7
  16  -6  13 169.483 121.453   5
 -16   6 -14 1381.14 463.478   3
  16  -6  14 1357.16 469.702   7
  16   6  14 1542.42 455.310   7
 -16   6 -15 302.810 251.060   3
  16  -6  15 86.2894 212.579   7
  16   6  15 22.4407 124.685   7
 -16   6 -16 11460.4 1325.76   3
  16  -6  16 13315.2 1516.31   7
  16   6  16 12379.3 1272.08   7
 -16   6 -17-33.9312 150.917   3
  16  -6  17-94.7049 104.922   7
  16   6  17-123.576 126.276   7
 -16   6 -18 1560.24 491.129   3
  16  -6  18 1071.55 473.403   7
  16   6  18 1019.56 331.218   7
 -16   6 -19-162.579 199.677   3
  16   6  19 108.845 180.811   7
 -16   6 -20 5818.38 975.841   3
  16   6  20 6316.45 937.079   7
  16  -8 -26 9538.03 1514.95   5
 -16   8  25-130.409 151.715   3
  16  -8 -25 294.091 311.332   5
 -16   8  24 57.2002 131.598   3
  16  -8 -24 292.868 302.523   5
 -16   8  23-165.765 60.4023   3
  16  -8 -23-98.1339 109.479   5
 -16   8  22 8591.57 1197.22   3
  16  -8 -22 8689.96 1422.30   5
 -16  -8  21 56.4160 225.118   2
 -16   8  21 667.366 275.839   3
  16  -8 -21 112.870 176.067   5
 -16   8  20 626.818 323.777   3
 -16  -8  20 931.189 465.137   2
  16  -8 -20 474.098 349.788   5
 -16  -8  19 195.725 251.417   2
 -16   8  19-186.747 185.211   3
  16  -8 -19-64.4520 157.279   5
 -16  -8  18 5123.47 1020.66   2
 -16   8  18 4387.86 831.802   3
  16  -8 -18 5738.42 1143.31   5
 -16  -8  17 160.840 203.284   2
 -16   8  17-141.173 104.245   3
  16  -8 -17-186.346 230.837   5
 -16  -8  16-18.3871 158.006   2
 -16   8  16-23.4192 180.368   3
 -16   8  16 32.8471 83.3785   6
 -16  -8  15-185.532 260.438   2
 -16   8  15 176.360 130.888   3
 -16   8  15-32.9159 66.4967   6
  16  -8 -15 229.733 175.819   5
 -16   8  14 8858.35 1180.71   3
  16  -8 -14 8188.66 1311.48   5
 -16  -8  14 10327.2 1461.37   2
 -16  -8  13 287.958 264.626   2
 -16   8  13 340.223 242.698   3
  16  -8 -13 265.006 169.547   5
 -16  -8  12 932.464 426.776   2
 -16   8  12 461.317 285.495   3
  16  -8 -12 528.097 311.295   5
 -16  -8  11-142.153 252.534   2
 -16   8  11-11.5078 104.962   3
  16  -8 -11 149.615 270.607   5
 -16   8  10 16779.3 1609.24   3
  16  -8 -10 17806.6 1900.34   5
 -16  -8  10 16409.3 1819.63   2
 -16  -8   9-232.223 276.296   2
 -16   8   9 15.8334 136.221   3
  16  -8  -9 15.8085 173.218   5
 -16  -8   8 2222.78 686.683   2
 -16   8   8 2424.22 635.317   3
  16  -8  -8 2474.66 681.892   5
 -16  -8   7 59.0475 207.981   2
 -16   8   7 271.589 276.801   3
  16  -8  -7 591.305 324.069   5
 -16   8   6 10497.6 1290.30   3
  16  -8  -6 11430.8 1499.37   5
 -16  -8   6 10010.4 1443.05   2
 -16  -8   5-56.5361 182.410   2
 -16   8   5-182.005 174.833   3
 -16  -8   4-299.247 312.776   2
 -16   8   4-144.598 138.972   3
  16  -8  -4-208.147 229.937   5
 -16  -8   3 322.438 223.250   2
 -16   8   3-43.2839 134.871   3
  16  -8  -3 68.8143 193.083   5
 -16   8   2 9818.77 1271.40   3
  16  -8  -2 11115.2 1465.62   5
 -16  -8   2 9782.66 1410.72   2
 -16   8   1 1.52440 87.2348   3
  16  -8  -1-70.1003 189.516   5
  16  -8  -1 136.750 145.358   2
 -16  -8   1 350.094 284.149   2
 -16   8   0 7139.17 1079.06   3
  16  -8   0 5200.34 900.247   2
  16  -8   0 5938.55 1049.17   5
 -16  -8   0 5392.34 1045.21   2
 -16   8  -1-218.028 174.666   3
  16  -8   1-185.017 243.477   5
 -16  -8  -1 71.6933 166.975   2
  16  -8   1-2.28083 44.6123   2
 -16   8  -2 10249.5 1321.38   3
 -16  -8  -2 10585.3 1445.64   2
  16  -8   2 10596.6 1393.42   5
 -16   8  -3-2.37240 67.8752   3
  16  -8   3-73.5655 124.015   5
  16  -8   4 1482.86 467.344   7
 -16   8  -4 2792.94 709.345   3
  16  -8   4 2578.17 691.290   5
 -16  -8  -4 1876.69 585.542   2
  16  -8   5-11.1055 48.3328   7
 -16   8  -5 47.4371 232.818   3
  16  -8   5-332.623 271.237   5
 -16  -8  -5 0.89440 97.0916   2
  16  -8   6 2790.26 683.676   7
 -16   8  -6 2907.44 712.999   3
  16  -8   6 1847.37 596.038   5
 -16  -8  -6 2644.31 700.988   2
  16  -8   7 587.432 324.801   7
 -16   8  -7 130.794 55.1847   3
  16  -8   7 626.125 367.318   5
 -16  -8  -7 956.661 436.845   2
 -16   8  -8 7571.01 1156.92   3
  16  -8   8 8685.25 1230.68   7
 -16  -8  -8 6800.14 1114.58   2
  16  -8   8 5969.72 1051.83   5
  16  -8   9 306.131 254.838   7
 -16  -8  -9-244.368 210.260   2
  16  -8   9 12.9979 173.398   5
  16  -8  10 3840.08 842.207   7
 -16  -8 -10 3474.00 781.157   2
  16  -8  10 3576.10 813.674   5
  16  -8  11 140.243 228.894   7
  16   8  11-138.870 139.181   7
 -16  -8 -11 135.179 216.982   2
  16  -8  11 114.600 207.742   5
  16  -8  12 3416.30 804.281   7
  16   8  12 1762.64 494.452   7
 -16  -8 -12 2529.51 657.580   2
  16  -8  12 1867.55 582.305   5
 -17   1  38 241.805 238.121   1
 -17  -1  38 54.8544 48.1950   1
 -17   1  37 6857.61 1035.82   1
 -17  -1  37 6795.78 1018.39   1
 -17   1  36 149.255 176.042   1
 -17  -1  36 179.928 198.124   1
 -17   1  35 2126.96 559.586   1
 -17  -1  35 1918.13 514.578   1
 -17   1  34 49.4331 95.6441   1
 -17  -1  34 25.0919 58.9001   1
 -17   1  33 14783.9 1418.63   1
 -17  -1  33 13752.5 1332.99   1
 -17   1  32 132.817 96.6398   1
 -17  -1  32-13.0910 34.7551   2
 -17  -1  32 62.9132 153.450   1
  17  -1 -32 127.527 128.173   4
 -17   1  31 2556.97 574.600   1
 -17  -1  31 2348.79 480.710   2
 -17  -1  31 2893.44 584.647   1
  17  -1 -31 2631.63 582.385   4
 -17   1  30 16.9044 88.6446   1
 -17  -1  30-75.7351 72.7831   2
 -17  -1  30 289.219 201.848   1
  17  -1 -30 153.780 88.9658   4
 -17   1  29 1914.84 459.294   1
 -17  -1  29 1580.55 381.688   2
 -17  -1  29 2633.19 536.743   1
  17  -1 -29 2138.85 497.014   4
 -17   1  28-85.1876 163.704   1
 -17  -1  28-56.3514 163.134   2
 -17  -1  28 30.9813 72.6101   1
  17  -1 -28-84.3429 102.323   4
 -17  -1  27 9975.88 945.401   2
 -17   1  27 10285.1 1036.28   1
 -17  -1  27 9971.00 996.239   1
  17  -1 -27 7487.63 944.357   4
 -17   1  26-43.3660 55.8823   2
 -17   1  26-206.803 197.161   1
 -17  -1  26 98.2174 101.358   2
 -17  -1  26-38.3249 92.8076   1
  17  -1 -26 158.634 240.087   4
 -17  -1  25 15550.6 1142.76   2
 -17   1  25 16438.3 1265.36   1
 -17  -1  25 16081.1 1209.43   1
 -17   1  25 14071.9 766.347   2
  17  -1 -25 13715.7 1262.56   4
 -17   1  24-14.8358 34.0919   2
 -17   1  24 79.4336 115.338   1
 -17  -1  24 172.240 152.790   2
 -17  -1  24 48.8119 152.430   1
  17  -1 -24 185.464 129.118   4
 -17   1  23 11105.5 996.287   1
 -17  -1  23 12151.6 993.813   1
 -17   1  23 12505.5 717.587   2
  17  -1 -23 12424.1 1191.51   4
 -17  -1  23 13483.4 1048.65   2
 -17  -1  22 13.3771 73.5989   1
 -17  -1  22-16.4189 47.0696   2
 -17   1  22 66.5474 100.673   1
 -17   1  22 7.66919 62.2854   2
  17  -1 -22 6.35563 64.5387   4
 -17  -1  21 1232.79 298.457   1
 -17  -1  21 962.941 289.920   2
  17  -1 -21 841.166 210.151   7
 -17   1  21 908.518 274.467   1
 -17   1  21 1073.42 211.496   2
 -17  -1  20-60.5143 106.782   1
 -17  -1  20 8.09903 69.1455   2
  17  -1 -20-44.0077 48.8396   7
 -17   1  20-102.975 132.299   1
 -17   1  20 39.7193 31.7121   2
 -17   1  19 27224.7 1439.25   1
  17  -1 -19 30386.5 1215.71   7
 -17  -1  19 26707.9 1326.18   1
 -17   1  19 30279.7 1121.41   2
 -17  -1  19 29646.9 1499.14   2
 -17  -1  18 32.3539 87.6239   2
  17  -1 -18 50.4702 20.7177   7
 -17   1  18-176.175 134.442   1
 -17  -1  18-84.4940 81.2041   1
 -17   1  18-24.4004 31.3743   2
 -17   1  17 8955.79 806.778   1
 -17  -1  17 9617.94 758.508   1
  17  -1 -17 9813.75 692.258   7
  17  -1 -17 10601.4 704.878   2
 -17   1  17 9788.50 646.664   2
 -17  -1  17 9804.86 855.720   2
 -17  -1  16 61.1844 109.990   2
 -17   1  16 239.543 110.384   1
 -17  -1  16 48.8794 44.3616   1
  17  -1 -16 49.2159 39.9235   2
 -17   1  16-54.9515 59.8901   2
 -17   1  15 28977.2 1402.44   1
 -17  -1  15 26402.3 1218.69   1
  17  -1 -15 30823.7 1249.51   2
 -17   1  15 29868.1 1162.56   2
 -17  -1  15 29281.2 1473.10   2
 -17  -1  14 275.012 141.393   2
 -17   1  14 383.829 163.045   1
 -17  -1  14 225.130 92.6683   1
  17  -1 -14 451.446 162.126   2
 -17   1  14 250.383 102.343   2
 -17   1  13 4665.83 555.029   1
 -17  -1  13 3941.14 451.982   1
  17  -1 -13 4960.90 513.062   2
 -17   1  13 4791.23 476.413   2
 -17  -1  13 5472.84 627.992   2
 -17  -1  12 84.4618 60.1274   2
 -17   1  12 52.3143 91.2551   1
 -17  -1  12 98.0748 79.1636   1
  17  -1 -12 15.6704 52.7301   2
 -17   1  12-43.5518 54.7537   2
 -17   1  11 24991.4 1264.13   1
 -17  -1  11 26042.0 1166.99   1
 -17   1  11 24429.1 1333.98   6
 -17   1  11 26128.1 1150.79   2
 -17  -1  11 26425.2 1399.35   2
  17  -1 -11 27645.5 1227.46   2
  17  -1 -10-37.2906 77.4687   2
 -17   1  10-58.4989 69.9719   2
 -17   1  10 150.968 143.629   6
 -17  -1  10 49.9964 97.7585   2
 -17   1   9 1221.18 299.121   6
 -17  -1   9 1354.56 282.021   6
 -17  -1   9 1345.26 311.469   2
 -17   1   8-61.5592 100.685   6
 -17  -1   8-65.0650 141.173   6
 -17  -1   8-60.4123 116.026   2
  17  -1  -7 20274.7 1024.09   7
 -17   1   7 21170.6 1201.36   6
 -17  -1   7 21636.2 1131.98   6
 -17  -1   7 19270.9 1211.36   2
  17  -1  -6 14.9240 72.4408   7
 -17   1   6 173.982 114.812   6
 -17  -1   6 26.3329 107.209   6
 -17  -1   6 71.6635 49.8865   2
  17  -1  -5 8172.79 664.094   7
 -17   1   5 7027.05 693.981   6
 -17  -1   5 7944.00 676.533   6
 -17  -1   5 8319.24 807.689   2
  17  -1  -4-8.95679 97.9661   7
 -17   1   4-136.629 127.236   6
 -17  -1   4 8.63112 90.0906   6
 -17  -1   4-104.135 126.331   2
  17  -1  -3 16381.5 973.567   7
 -17   1   3 15852.9 1037.82   6
 -17  -1   3 16642.8 975.530   6
 -17  -1   3 17120.4 1178.27   2
  17  -1  -2 146.273 87.2857   7
 -17   1   2-51.1396 52.8417   6
 -17  -1   2 25.0491 42.0567   6
 -17  -1   2 17.3385 53.4804   2
  17  -1  -1 427.703 151.872   7
 -17   1   1 398.558 150.829   6
 -17  -1   1-22.5490 73.6657   6
 -17   1   1 163.994 60.4769   3
 -17  -1   1 207.777 95.0367   2
  17  -1   0 206.947 123.785   7
 -17   1   0 69.5205 39.9035   3
 -17  -1   0 92.5067 84.9962   2
  17  -1   0-120.045 137.191   4
  17  -1   1 11969.5 905.438   7
 -17   1  -1 11824.4 775.317   3
  17   1   1 11585.7 911.879   7
 -17  -1  -1 13029.6 1050.44   2
  17  -1   1 13456.9 1098.71   4
  17  -1   2 51.2953 50.6357   7
  17   1   2-121.677 107.378   7
 -17   1  -2-86.2923 94.2878   3
  17  -1   2 89.2971 86.6505   4
 -17   1  -3 24318.0 1115.59   3
  17  -1   3 23044.0 1300.19   7
 -17  -1  -3 26258.6 847.452   3
  17   1   3 23826.7 1331.99   7
  17  -1   3 24198.2 1443.26   4
  17  -1   4 264.436 188.505   7
 -17   1  -4 54.0289 55.7108   3
 -17  -1  -4 17.2299 48.8868   3
  17   1   4-33.2242 117.806   7
  17  -1   4 8.89555 94.9043   4
 -17  -1  -5 16926.9 603.786   3
  17  -1   5 15726.8 1123.44   7
  17   1   5 14677.4 1089.46   7
  17  -1   5 19062.3 1240.24   4
 -17   1  -5 16293.4 914.713   3
 -17  -1  -6 50.9084 38.9604   3
 -17   1  -6 105.505 97.9441   3
  17  -1   6-55.2801 55.3093   7
  17   1   6 24.9297 48.4861   7
  17  -1   6 27.6586 35.4748   4
 -17  -1  -7 1228.96 124.051   3
  17  -1   7 1167.07 305.466   7
  17   1   7 872.162 271.709   7
 -17   1  -7 1536.32 276.665   3
  17  -1   7 1560.86 355.063   4
 -17   1  -8 96.8599 71.9107   3
  17  -1   8-130.978 150.026   7
  17   1   8-40.8551 103.098   7
  17  -1   8 145.063 114.019   4
 -17   1  -9 15441.3 887.152   3
  17  -1   9 13786.6 1132.30   7
  17   1   9 14009.3 1130.41   7
  17  -1   9 14827.4 1033.48   4
 -17   1 -10-59.4866 97.1242   3
  17  -1  10-27.3093 89.6134   7
  17   1  10 30.0300 78.1146   7
  17  -1  10 112.103 95.4262   4
 -17   1 -11 11672.3 761.956   3
  17  -1  11 11309.2 1068.59   7
  17   1  11 11990.4 1094.68   7
  17  -1  11 10335.0 837.819   4
 -17   1 -12 57.5050 55.2813   3
  17  -1  12-138.235 103.548   7
  17   1  12 134.189 159.634   7
 -17   1 -13 8055.93 628.202   3
  17  -1  13 7967.89 940.930   7
  17   1  13 8602.63 956.484   7
  17   1  13 8088.30 695.407   4
 -17   1 -14 84.3428 64.1978   3
  17  -1  14-38.5014 122.282   7
  17   1  14-96.0457 95.4846   7
  17  -1  15 7057.44 922.155   7
  17   1  15 7763.03 940.841   7
  17  -1  16-95.0947 55.2925   7
  17   1  16-25.7769 96.3298   7
  17  -1  17 1297.42 412.352   7
  17   1  17 1998.45 502.150   7
  17  -1  18-203.052 243.957   7
  17   1  18-92.2183 81.8929   7
  17  -1  19 17735.4 1572.59   7
  17   1  19 16651.8 1491.25   7
  17  -1  20 53.4263 159.863   7
  17   1  20-70.8139 148.053   7
  17  -1  21 29.4767 74.9251   7
  17   1  21 19.8483 150.630   7
  17  -1  22 252.622 127.951   7
  17   1  22 109.874 146.637   7
  17  -1  23 6287.28 1005.68   7
  17   1  23 5090.38 877.735   7
  17  -1  24 213.439 251.550   7
  17   1  24 1.47164 226.813   7
  17   1  25 108.768 170.868   7
 -17  -3  38-99.9721 139.107   1
 -17  -3  37 6926.92 1006.80   1
 -17   3  36 238.056 247.069   1
 -17  -3  36 117.660 139.533   2
 -17  -3  36 120.880 140.493   1
 -17   3  35 1831.03 505.532   1
 -17  -3  35 1511.84 474.472   2
 -17  -3  35 1599.02 465.207   1
 -17   3  34-53.8438 113.831   1
 -17  -3  34-177.225 229.681   2
 -17  -3  34 45.1731 97.6103   1
 -17  -3  33 10057.2 1227.48   2
 -17   3  33 11560.7 1257.93   1
 -17  -3  33 10046.2 1098.33   1
 -17  -3  32 187.184 160.868   2
 -17  -3  32 138.017 181.519   1
 -17   3  32-73.5884 125.365   1
 -17  -3  31 5897.33 920.468   2
 -17   3  31 6643.61 937.598   1
 -17  -3  31 6956.84 874.032   1
 -17  -3  30-86.6583 84.2820   2
 -17  -3  30-225.225 186.482   1
 -17   3  30 96.3470 119.977   1
 -17  -3  29 2506.38 584.949   2
 -17  -3  29 3207.21 557.378   1
 -17   3  29 2478.96 543.573   1
 -17  -3  28-28.4260 196.410   2
 -17  -3  28 59.4096 100.108   1
 -17   3  28-87.7871 126.923   1
 -17  -3  27 6232.70 897.611   2
 -17   3  27 7287.73 920.667   1
 -17  -3  27 6343.59 752.517   1
  17  -3 -27 6811.87 992.537   4
 -17  -3  26-60.4254 54.2663   2
 -17  -3  26-69.2373 100.418   1
 -17   3  26-64.5422 126.496   1
  17  -3 -26 52.8822 69.6787   4
 -17  -3  25 16718.0 1430.91   2
 -17   3  25 17552.1 1369.52   1
 -17  -3  25 15509.1 1124.72   1
  17  -3 -25 13546.0 1380.02   4
 -17  -3  24 297.797 153.150   2
 -17  -3  24 455.053 218.776   1
 -17   3  24 326.545 240.927   1
  17  -3 -24 334.123 231.983   4
 -17  -3  23 11286.1 1158.56   2
 -17   3  23 12393.1 1119.27   1
 -17  -3  23 11240.4 901.493   1
  17  -3 -23 12187.5 1291.09   4
 -17  -3  22-8.98236 79.8825   1
 -17  -3  22-76.2006 108.309   2
 -17   3  22 44.8499 95.3323   1
  17  -3 -22 21.2385 79.5171   4
 -17  -3  21 659.762 195.052   1
 -17  -3  21 591.021 253.630   2
 -17   3  21 638.591 260.612   1
  17  -3 -21 852.070 310.972   4
 -17  -3  20 70.9619 76.2854   1
 -17  -3  20-78.5696 63.6063   2
 -17   3  20 112.093 128.339   1
  17  -3 -20 17.6256 108.575   4
 -17   3  19 19337.0 1315.20   1
 -17  -3  19 20257.0 1067.74   1
  17  -3 -19 17896.5 1516.11   4
 -17  -3  18 46.1239 101.210   2
 -17   3  18-34.5326 147.021   1
 -17  -3  18-11.1508 45.9951   1
  17  -3 -18 27.1607 121.387   4
 -17  -3  17 2743.26 377.382   1
 -17  -3  17 2524.90 494.454   2
 -17   3  17 2627.42 468.085   1
  17  -3 -17 2814.25 617.066   4
 -17  -3  16 197.075 135.585   2
 -17   3  16 220.944 186.080   1
 -17  -3  16 46.2408 81.7053   1
  17  -3 -16 125.572 99.4547   4
 -17   3  15 18944.5 1252.08   1
 -17  -3  15 19524.8 958.209   1
  17  -3 -15 19526.3 577.759   7
  17  -3 -15 17287.6 596.425   2
  17  -3 -15 19551.1 537.449   7
 -17   3  15 19701.9 1298.39   6
  17  -3 -15 19479.7 1549.07   4
 -17  -3  15 20856.6 1451.98   2
 -17   3  14 700.587 235.102   1
 -17  -3  14 818.606 259.284   2
 -17  -3  14 866.817 192.398   1
  17  -3 -14 756.750 121.031   7
  17  -3 -14 875.560 161.529   2
 -17   3  14 994.488 290.050   6
  17  -3 -14 722.831 290.559   4
 -17   3  13 629.046 238.657   1
 -17  -3  13 620.309 213.679   2
 -17  -3  13 850.896 183.334   1
  17  -3 -13 666.222 146.758   2
  17  -3 -13 930.844 148.519   7
 -17   3  13 663.068 192.630   6
  17  -3 -13 1353.10 379.397   4
  17  -3 -12 73.7262 59.0360   2
 -17  -3  12 147.977 112.349   2
  17  -3 -12 65.6789 47.5970   7
 -17   3  12 103.942 85.6848   6
  17  -3 -12 38.6747 114.762   4
 -17  -3  12 79.0844 52.4817   1
  17  -3 -11 25559.6 905.568   7
 -17   3  11 26390.6 1473.55   6
  17  -3 -11 24282.9 1022.55   2
 -17  -3  11 25205.9 1604.04   2
  17  -3 -11 24781.2 1680.60   4
 -17  -3  10 111.773 107.847   2
  17  -3 -10 95.1869 58.4268   7
 -17   3  10 86.2275 82.9865   6
  17  -3 -10 47.6950 189.133   4
  17  -3 -10-19.7645 49.9142   2
 -17  -3   9 247.416 174.353   2
  17   3  -9 346.586 98.6167   1
  17  -3  -9 400.947 128.853   7
 -17   3   9 91.4732 124.537   6
  17  -3  -9 267.648 200.596   4
  17  -3  -9 304.300 121.507   2
 -17  -3   8-19.0093 69.8102   2
  17  -3  -8 190.482 110.617   7
 -17   3   8 85.6470 52.5371   6
 -17  -3   8 125.531 114.968   6
  17  -3  -8 21.2945 33.3171   2
  17  -3  -8 68.0742 195.293   4
  17   3  -8-14.4292 50.0868   1
  17  -3  -7 35584.6 1284.18   7
 -17   3   7 35161.2 1686.40   6
 -17  -3   7 38235.7 1400.23   6
 -17  -3   7 35583.0 1916.67   2
  17  -3  -7 35829.3 1994.83   4
  17   3  -7 36510.6 1046.10   1
  17  -3  -6 220.208 137.921   7
 -17   3   6 42.7857 104.594   6
 -17  -3   6-14.3740 59.4812   6
 -17   3   6 104.792 121.619   3
  17   3  -6-3.74504 27.3447   1
  17  -3  -6 45.2959 103.747   4
 -17  -3   6-61.4513 117.990   2
  17  -3  -5 13224.9 836.796   7
 -17   3   5 13015.1 1001.03   3
  17   3  -5 13245.4 626.303   1
 -17   3   5 13093.8 1025.13   6
 -17  -3   5 13400.0 787.123   6
 -17  -3   5 13516.7 1169.04   2
  17  -3  -5 13056.9 1190.34   4
  17   3  -4 51.2107 27.1485   1
  17  -3  -4 240.195 136.731   7
 -17   3   4-141.479 169.727   6
 -17  -3   4 102.320 77.6311   6
 -17   3   4-3.54756 126.439   3
 -17  -3   4 50.3907 71.0208   2
 -17  -3   3 12381.6 756.341   3
  17   3  -3 12270.9 604.294   1
  17  -3  -3 12801.4 872.073   7
 -17   3   3 12588.5 973.680   3
 -17   3   3 12449.4 1000.03   6
 -17  -3   3 13455.5 758.046   6
 -17  -3   3 12189.1 1107.51   2
  17  -3  -3 13523.8 1180.41   4
 -17  -3   2 395.962 134.288   3
  17  -3  -2 448.020 193.591   7
  17   3  -2 259.168 89.6343   1
 -17   3   2 435.889 192.617   3
 -17  -3   2 362.203 193.207   2
  17  -3  -2 493.145 266.147   4
 -17  -3   1 126.084 69.8758   3
  17   3  -1 384.806 109.280   1
 -17   3   1 102.197 113.560   3
  17  -3  -1 192.914 105.046   7
 -17  -3   1-72.9155 142.752   2
  17  -3  -1 150.093 71.4680   4
  17   3   0 75.5022 48.7314   1
 -17  -3   0 173.957 78.9943   3
  17  -3   0 105.159 88.4622   7
 -17   3   0 226.462 159.058   3
 -17  -3   0-11.2864 107.579   2
  17  -3   0 66.9850 98.9792   4
 -17  -3  -1 6134.27 407.494   3
  17  -3   1 5622.90 645.263   7
 -17   3  -1 6150.78 683.805   3
 -17  -3  -1 5899.42 796.648   2
  17  -3   1 6360.60 794.352   4
  17   3   1 5880.16 461.824   1
 -17  -3  -2 44.8440 20.7433   3
  17  -3   2 37.9417 103.547   7
 -17   3  -2 174.875 122.311   3
 -17  -3  -2 60.7143 108.666   2
  17  -3   2-43.0866 78.4359   4
 -17   3  -3 13073.3 1019.60   3
  17  -3   3 12235.7 992.886   7
 -17  -3  -3 12942.9 1181.53   2
  17  -3   4-45.0656 48.2905   7
 -17   3  -4 0.36632 92.5354   3
 -17  -3  -4-138.127 133.192   2
  17  -3   5 12470.7 1051.51   7
 -17   3  -5 12863.7 1016.65   3
 -17  -3  -5 12873.2 1177.73   2
  17  -3   6 144.198 163.750   7
 -17   3  -6 17.8185 90.5582   3
  17   3   6 115.159 89.7628   7
 -17  -3  -6 147.246 81.6862   2
 -17   3  -7 4626.00 618.640   3
  17  -3   7 3947.18 610.014   7
  17   3   7 3942.90 595.334   7
 -17   3  -8 87.0426 100.348   3
  17  -3   8 123.313 108.317   7
  17   3   8 227.935 123.240   7
 -17   3  -9 10480.1 948.901   3
  17  -3   9 8943.41 965.356   7
  17   3   9 10388.8 1006.48   7
 -17   3 -10 114.559 109.565   3
  17  -3  10 190.467 196.372   7
  17   3  10 86.2408 99.2209   7
 -17   3 -11 15000.3 1138.64   3
  17  -3  11 13242.6 1217.33   7
  17   3  11 13880.0 1186.20   7
 -17   3 -12-118.148 121.709   3
  17  -3  12 88.1707 222.053   7
  17   3  12 129.665 63.1528   7
 -17   3 -13 8313.03 857.375   3
  17  -3  13 8468.33 1018.85   7
  17   3  13 8321.16 950.685   7
 -17   3 -14 56.4605 72.9557   3
  17  -3  14 58.8077 73.8512   7
  17   3  14 25.4296 63.1204   7
  17  -3  14-9.57466 34.2683   5
 -17   3 -15 6441.98 763.367   3
  17  -3  15 5815.92 876.276   7
  17   3  15 6218.56 844.440   7
 -17   3 -16 98.1801 100.695   3
  17  -3  16 138.082 187.585   7
  17   3  16 243.387 265.339   7
 -17   3 -17 1680.47 397.774   3
  17  -3  17 2011.15 538.918   7
  17   3  17 2346.35 542.526   7
  17  -3  18 99.9196 212.700   7
  17   3  18 74.1396 197.144   7
  17  -3  19 20845.7 1799.51   7
  17   3  19 19947.4 1620.53   7
  17  -3  20 43.3809 165.599   7
  17   3  20 10.0806 56.5354   7
  17  -3  21 54.2813 92.6844   7
  17   3  21 162.875 160.685   7
  17  -3  22 159.159 177.964   7
  17   3  22-137.178 152.118   7
  17   3  23 3158.67 683.988   7
  17   3  24 1448.82 611.643   7
 -17  -5  35 668.742 415.612   2
 -17  -5  34-171.077 251.195   2
 -17   5  33 9706.88 1203.29   1
 -17  -5  33 8555.93 1281.83   2
 -17  -5  32-415.217 282.513   2
 -17   5  32 88.2703 154.772   1
 -17  -5  31 1406.73 517.087   2
 -17   5  31 1338.77 429.817   1
 -17  -5  30 117.858 97.4359   2
 -17   5  30 449.153 255.667   1
 -17  -5  29 2024.49 588.719   2
 -17   5  29 1545.95 445.729   1
 -17  -5  28-31.5664 110.916   2
 -17   5  28-301.428 200.478   1
 -17   5  27 6722.35 938.393   1
 -17  -5  27 5222.00 937.521   2
 -17  -5  26-32.4732 112.755   2
 -17   5  26 21.6285 133.172   1
 -17   5  25 6939.91 908.573   1
 -17  -5  25 6002.87 1003.01   2
 -17  -5  24 629.360 300.765   2
 -17   5  24 740.022 330.091   1
 -17   5  23 13918.9 1275.96   1
 -17  -5  23 11895.5 1363.21   2
 -17   5  22-55.0326 89.4523   1
 -17  -5  22-357.548 235.183   2
 -17   5  22-141.031 179.743   6
 -17   5  21 1656.48 427.992   1
 -17  -5  21 1768.41 511.826   2
 -17   5  21 1948.73 488.259   6
 -17   5  20-71.1680 96.4838   1
 -17   5  20-28.1285 62.9270   6
 -17   5  19 13042.2 1175.97   1
 -17  -5  19 14621.7 1455.85   2
 -17   5  19 13097.8 1191.65   6
 -17   5  18-135.140 86.3794   1
 -17  -5  18 115.436 240.124   2
 -17   5  18-120.336 156.994   6
 -17   5  17 3025.76 568.678   1
 -17  -5  17 3153.36 651.300   2
 -17   5  17 2656.88 525.982   6
 -17  -5  16 25.3844 70.6266   2
 -17   5  16 232.252 202.713   3
 -17   5  16-101.613 141.882   6
 -17   5  16-62.5139 92.7688   1
 -17   5  15 28117.4 1801.25   3
 -17   5  15 26114.4 1631.83   6
 -17  -5  15 27738.6 1940.08   2
 -17  -5  14 157.468 116.561   2
 -17   5  14 956.687 344.904   3
 -17   5  14 561.102 246.549   6
 -17  -5  13 3268.02 653.135   2
 -17   5  13 3636.30 644.511   3
 -17   5  13 3521.84 583.430   6
 -17  -5  12-71.2326 83.2626   2
 -17   5  12 283.320 224.908   3
 -17   5  12 137.429 153.022   6
 -17   5  11 19003.7 1433.58   3
 -17   5  11 18761.6 1333.21   6
 -17  -5  11 19328.2 1635.28   2
  17  -5 -10 209.607 75.2442   7
 -17   5  10-45.5990 143.457   3
 -17   5  10-6.63310 97.1852   6
 -17  -5   9 472.037 278.416   2
  17  -5  -9 296.964 117.865   7
 -17   5   9 581.075 287.848   3
 -17   5   9 91.5960 79.4622   6
 -17  -5   9 207.433 88.9507   6
 -17  -5   8 57.3931 95.9690   2
  17  -5  -8 13.1231 65.2301   7
 -17   5   8-146.240 188.940   3
 -17   5   8 82.2944 50.7894   6
 -17  -5   8-62.1941 48.4304   6
  17  -5  -7 14918.8 916.275   7
 -17   5   7 14486.3 1223.23   3
 -17   5   7 14552.2 1157.93   6
 -17  -5   7 15002.1 702.047   6
 -17  -5   7 14301.9 1398.67   2
 -17  -5   6 14.0351 116.412   2
 -17   5   6 54.9442 69.3368   3
 -17   5   6 190.260 159.145   6
 -17  -5   6 120.029 60.2238   6
  17  -5  -6 165.058 118.681   7
 -17  -5   5 1305.42 397.536   2
  17  -5  -5 1641.80 335.535   7
 -17   5   5 1429.74 392.478   3
 -17  -5   4-138.204 142.476   2
  17  -5  -4-119.881 99.7618   7
 -17   5   4 30.4651 168.603   3
  17  -5  -3 10437.2 880.538   7
 -17   5   3 8813.02 965.305   3
 -17  -5   3 10500.0 1196.03   2
  17  -5  -2-12.7051 76.5604   7
 -17   5   2 123.071 68.9294   3
 -17  -5   2 48.2991 74.2671   2
  17  -5  -1 1755.34 382.801   7
 -17   5   1 1074.68 308.670   3
 -17  -5   1 1236.86 426.667   2
  17  -5   0 0.40024 90.6358   7
 -17   5   0-88.2345 127.206   3
 -17  -5   0 105.744 185.708   2
  17  -5   1 11857.8 1034.50   7
 -17   5  -1 11146.0 1105.96   3
 -17  -5  -1 11626.1 1260.10   2
  17  -5   2 42.0271 132.748   7
 -17   5  -2 52.1474 60.0445   3
 -17  -5  -2-235.439 223.835   2
  17  -5   3 20962.7 1433.32   7
 -17   5  -3 20089.2 1489.42   3
 -17  -5  -3 21392.5 1726.20   2
  17  -5   4-3.81129 103.913   7
 -17   5  -4-204.378 181.995   3
 -17  -5  -4 26.9373 111.802   2
 -17   5  -5 11646.8 1151.84   3
  17  -5   5 10782.0 1065.14   7
 -17  -5  -5 10710.6 1214.83   2
  17  -5   6 165.146 56.3267   7
 -17   5  -6-57.6573 94.3271   3
 -17  -5  -6-10.1613 148.919   2
  17  -5   7 674.220 278.935   7
 -17   5  -7 813.878 302.498   3
 -17  -5  -7 628.675 283.077   2
  17  -5   7 787.486 307.327   5
  17  -5   8-88.0217 152.957   7
 -17   5  -8 86.9819 41.0383   3
 -17  -5  -8 143.232 177.749   2
  17  -5   8 75.6735 92.0668   5
 -17   5  -9 5731.63 827.400   3
  17  -5   9 6006.11 863.906   7
  17   5   9 5570.25 777.667   7
 -17  -5  -9 6411.23 934.516   2
  17  -5   9 5334.25 811.331   5
 -17   5 -10-167.040 97.3293   3
  17  -5  10-81.0836 73.1994   7
  17   5  10-27.5830 161.990   7
  17  -5  10-172.464 153.330   5
 -17   5 -11 10677.3 1148.19   3
  17  -5  11 10113.4 1163.48   7
  17   5  11 10320.5 1086.70   7
  17  -5  11 10199.3 1109.98   5
 -17   5 -12-282.931 247.225   3
  17  -5  12 80.6584 159.846   7
  17   5  12 95.8540 204.240   7
  17  -5  12 40.7317 78.0469   5
 -17   5 -13 4443.04 751.676   3
  17  -5  13 4309.98 800.814   7
  17   5  13 4322.12 709.007   7
  17  -5  13 3457.02 624.116   5
 -17   5 -14 159.435 131.392   3
  17  -5  14 41.6459 86.9472   7
  17   5  14-151.502 185.923   7
 -17   5 -15 7601.22 1003.32   3
  17  -5  15 7182.93 1072.35   7
  17   5  15 6154.05 874.416   7
 -17   5 -16 237.176 155.790   3
  17  -5  16 217.008 176.292   7
  17   5  16-2.35836 169.806   7
 -17   5 -17 907.312 353.223   3
  17  -5  17 1514.96 469.396   7
  17   5  17 1277.28 430.476   7
 -17   5 -18-11.5126 129.369   3
  17  -5  18-281.568 194.477   7
  17   5  18-97.8962 103.534   7
 -17   5 -19 10840.8 1228.50   3
  17  -5  19 14275.1 1590.16   7
  17   5  19 13303.4 1367.01   7
  17   5  20 49.2529 114.219   7
  17   5  21 974.425 382.983   7
  17   5  22 110.877 137.807   7
 -17   7  30-39.1217 90.9987   3
 -17   7  29 2555.78 668.000   3
 -17   7  28-28.0763 123.769   1
 -17   7  28-71.5948 103.997   3
  17  -7 -28-152.952 190.924   5
 -17   7  27 3909.84 754.691   1
 -17   7  27 4262.18 848.769   3
  17  -7 -27 3577.98 891.933   5
 -17   7  26-5.38675 98.9890   1
 -17  -7  26-328.758 266.345   2
 -17   7  26 336.240 237.989   3
 -17   7  26-202.477 169.736   6
  17  -7 -26 109.984 117.938   5
 -17   7  25 6625.09 961.808   1
 -17  -7  25 6594.98 1172.15   2
 -17   7  25 7793.07 1136.14   3
 -17   7  25 7083.89 964.990   6
  17  -7 -25 7769.15 1307.75   5
 -17   7  24 196.884 194.359   1
 -17  -7  24 409.213 289.111   2
 -17   7  24 240.741 218.202   3
 -17   7  24 231.342 230.410   6
  17  -7 -24 460.049 350.100   5
 -17  -7  23 9423.85 1369.05   2
 -17   7  23 9286.48 1209.20   3
 -17   7  23 9632.06 1134.50   6
  17  -7 -23 9088.25 1401.79   5
 -17   7  23 7907.11 1043.21   1
 -17  -7  22 4.56887 185.071   2
 -17   7  22 47.8185 43.0005   3
 -17   7  22-126.559 149.325   6
  17  -7 -22 16.7835 79.7620   5
 -17  -7  21 382.130 261.304   2
 -17   7  21 515.658 320.709   3
 -17   7  21 570.708 284.960   6
  17  -7 -21 233.647 299.906   5
 -17  -7  20 23.8249 92.3335   2
 -17   7  20 19.6933 84.0200   3
 -17   7  20 99.6684 133.253   6
  17  -7 -20 360.665 274.556   5
 -17  -7  19 8404.84 1251.74   2
 -17   7  19 7918.60 1080.15   3
 -17   7  19 9891.46 1108.11   6
  17  -7 -19 9265.50 1369.08   5
 -17  -7  18 96.4776 127.708   2
 -17   7  18 51.3784 140.820   3
 -17   7  18 183.057 204.519   6
  17  -7 -18 135.586 297.106   5
 -17  -7  17 1056.57 433.515   2
 -17   7  17 727.739 338.190   3
 -17   7  17 1196.39 398.864   6
  17  -7 -17 543.462 309.955   5
 -17  -7  16-194.873 277.969   2
 -17   7  16 147.206 146.974   3
 -17   7  16 257.408 162.304   6
  17  -7 -16 138.585 212.142   5
 -17   7  15 14145.2 1429.17   3
 -17   7  15 13927.1 1267.98   6
  17  -7 -15 13744.0 1636.16   5
 -17  -7  15 13547.9 1560.30   2
 -17  -7  14 279.835 232.405   2
 -17   7  14 88.8257 96.1832   3
 -17   7  14 61.6485 272.899   6
  17  -7 -14 210.534 137.262   5
 -17  -7  13 178.968 196.441   2
 -17   7  13-128.683 171.924   3
 -17   7  13 71.2317 95.3614   6
  17  -7 -13 308.958 194.921   5
 -17  -7  12-4.17397 93.4962   2
 -17   7  12 109.911 76.2712   3
 -17   7  12-187.267 209.202   6
  17  -7 -12-17.3570 63.7981   5
 -17   7  11 16654.0 1529.53   3
 -17   7  11 15904.3 1320.71   6
  17  -7 -11 15488.9 1689.90   5
 -17  -7  11 15453.6 1657.58   2
 -17  -7  10 39.2455 156.288   2
 -17   7  10-140.127 60.5760   3
 -17  -7   9 198.296 225.383   2
 -17   7   9-27.1772 114.628   3
  17  -7  -9-141.534 193.722   5
 -17  -7   8 133.594 107.414   2
 -17   7   8 338.522 298.155   3
  17  -7  -8 38.4312 132.363   5
 -17   7   7 23229.6 1810.48   3
  17  -7  -7 22266.2 1993.42   5
 -17  -7   7 23150.4 2051.88   2
 -17  -7   6 396.360 289.622   2
 -17   7   6 366.611 246.442   3
  17  -7  -6-159.513 211.796   5
 -17  -7   5 3917.67 825.109   2
 -17   7   5 4729.96 820.551   3
  17  -7  -5 4757.32 908.196   5
 -17  -7   4 104.905 152.753   2
 -17   7   4-90.4601 149.325   3
  17  -7  -4 217.433 78.1386   5
 -17   7   3 8436.90 1104.92   3
  17  -7  -3 7165.60 1106.65   5
 -17  -7   3 7832.92 1188.35   2
 -17   7   2-133.634 183.512   3
  17  -7  -2 253.286 226.953   5
 -17  -7   2-11.8622 147.046   2
  17  -7  -1 194.851 155.243   7
 -17   7   1 47.7486 121.343   3
  17  -7  -1 40.6246 122.634   5
 -17  -7   1 127.236 83.5409   2
  17  -7   0-58.1087 149.331   7
 -17   7   0-61.1413 138.836   3
  17  -7   0-30.8960 90.7589   5
 -17  -7   0-3.35087 110.241   2
  17  -7   1 4734.16 752.062   7
 -17   7  -1 5101.56 868.818   3
 -17  -7  -1 6473.77 1075.94   2
  17  -7   1 5156.94 925.197   5
  17  -7   2 198.751 85.3075   7
 -17   7  -2 170.478 57.5703   3
 -17   7  -3 7877.87 1090.20   3
  17  -7   3 7020.94 949.593   7
 -17  -7  -3 7238.65 1128.88   2
  17  -7   3 7605.84 1134.98   5
  17  -7   4 285.706 233.011   7
 -17   7  -4 307.740 289.417   3
  17  -7   4 115.730 90.1111   5
 -17  -7  -4 205.217 171.020   2
 -17   7  -5 7364.28 1058.28   3
  17  -7   5 7347.49 1009.02   7
 -17  -7  -5 8705.68 1225.41   2
  17  -7   5 6672.31 1056.68   5
  17  -7   6 126.961 219.081   7
 -17   7  -6 174.709 178.620   3
 -17  -7  -6-58.4675 98.5083   2
  17  -7   6-218.095 216.008   5
  17  -7   7 2540.54 591.381   7
 -17   7  -7 3510.98 739.563   3
 -17  -7  -7 3093.66 723.224   2
  17  -7   7 2307.60 603.118   5
  17  -7   8-264.902 207.493   7
 -17   7  -8-113.227 119.237   3
 -17  -7  -8 256.368 276.084   2
  17  -7   8-183.247 133.260   5
  17  -7   9 3338.80 741.728   7
 -17   7  -9 4079.20 804.788   3
 -17  -7  -9 3632.08 772.463   2
  17  -7   9 3417.57 755.265   5
  17  -7  10 253.419 150.885   7
 -17   7 -10-41.8178 73.0219   3
  17   7  10 154.877 162.072   7
 -17  -7 -10-77.8336 117.137   2
  17  -7  10 246.541 241.148   5
 -17   7 -11 9972.44 1299.53   3
  17  -7  11 10994.4 1364.52   7
  17   7  11 9969.99 1159.36   7
 -17  -7 -11 10685.2 1334.30   2
  17  -7  11 9271.29 1240.86   5
 -17   7 -12-123.306 159.946   3
  17  -7  12 10.5583 120.762   7
  17   7  12 120.765 159.630   7
  17  -7  12 207.266 255.678   5
 -17   7 -13 3606.81 781.554   3
  17  -7  13 2754.98 691.458   7
  17   7  13 4330.31 768.451   7
 -17   7 -14 152.043 200.266   3
  17  -7  14 41.4304 89.7894   7
  17   7  14 158.101 104.688   7
 -17   7 -15 4098.07 842.138   3
  17   7  15 3907.30 728.404   7
  17   7  16 16.6860 69.9117   7
 -17  -9   9 53.8269 122.893   2
 -17  -9   8 138.219 362.625   2
 -17  -9   7 12320.8 1729.89   2
 -17  -9   6 315.999 276.631   2
 -17  -9   5 2503.16 773.092   2
 -17  -9   4 47.0761 255.156   2
 -17  -9   3 6349.27 1246.78   2
 -17  -9   2 142.585 160.419   2
 -17  -9   1 875.664 488.373   2
 -17  -9   0-124.284 173.341   2
 -17  -9  -1 6212.26 1190.98   2
 -17  -9  -2 459.211 348.385   2
 -18   0  38 10562.7 1303.11   1
 -18   0  37 254.955 171.852   1
 -18   0  36 778.232 338.775   1
 -18   0  35 132.637 175.669   1
 -18   0  34 6602.42 952.874   1
 -18   0  33-83.5427 175.072   1
  18   0 -33 173.092 163.761   4
 -18   0  32 3672.57 667.277   1
  18   0 -32 3440.06 662.947   4
 -18   0  31-114.881 150.032   1
  18   0 -31-103.305 149.923   4
 -18   0  30 13188.8 1253.75   1
 -18   0  29-7.27159 42.5913   2
 -18   0  29-121.001 124.836   1
 -18   0  28 5020.45 722.179   1
 -18   0  28 4731.45 576.337   2
 -18   0  27 53.0301 69.4095   2
 -18   0  27-173.250 139.973   1
 -18   0  26 1819.08 416.337   1
 -18   0  26 1311.26 308.924   2
 -18   0  25-83.4700 151.017   1
 -18   0  25 5.49768 44.3136   2
 -18   0  24 15456.1 1179.77   1
 -18   0  24 15372.0 997.902   2
 -18   0  23 7.98981 73.1043   1
 -18   0  23-73.7581 98.3518   2
 -18   0  22 10272.1 908.986   1
 -18   0  22 10863.1 827.721   2
 -18   0  21-58.2533 107.597   2
 -18   0  21-55.0430 97.5799   1
 -18   0  20 32634.6 1562.87   1
 -18   0  20 34983.7 1478.13   2
 -18   0  19-1.74493 89.7850   2
 -18   0  19-52.9944 48.0491   1
 -18   0  18 4814.49 571.036   1
 -18   0  18 5390.79 579.420   2
 -18   0  17-29.7619 108.963   1
 -18   0  17-47.4536 80.5058   2
 -18   0  16 17344.4 1070.77   1
 -18   0  16 18973.6 1090.65   2
 -18   0  15-81.6178 40.4810   1
 -18   0  15-114.857 109.469   2
 -18   0  14 10499.4 821.170   1
 -18   0  14 10924.0 821.084   2
 -18   0  13-70.1659 82.7760   1
 -18   0  13 16.0934 116.885   2
 -18   0  12 7518.45 689.937   1
 -18   0  12 7632.60 709.232   2
 -18   0  11-76.0889 117.474   2
 -18   0  10 578.869 193.684   6
 -18   0  10 358.572 128.505   2
 -18   0   9-83.4892 120.131   6
 -18   0   9 21.2710 91.5714   2
 -18   0   8 18344.1 1120.31   6
 -18   0   8 18157.3 1109.72   2
 -18   0   7-78.5511 85.9064   6
 -18   0   7-65.5858 87.8972   2
 -18   0   6 1797.93 363.473   6
 -18   0   6 1721.79 341.994   2
 -18   0   5-84.9853 148.120   6
 -18   0   5-127.965 83.0147   2
 -18   0   4 42960.7 1709.34   6
 -18   0   4 45162.7 1831.41   2
  18   0  -3-164.101 139.801   7
 -18   0   3 129.954 65.8115   6
  18   0  -2 10797.2 846.631   7
 -18   0   2 10759.9 853.266   6
  18   0  -1 16.1863 59.9798   7
 -18   0   1-86.4962 114.606   6
  18   0   0 17561.1 1124.69   7
  18   0   1-29.3253 111.056   7
 -18   0  -1 2.44119 61.7115   3
  18   0   2 4398.52 587.062   7
 -18   0  -2 4752.46 448.066   3
  18   0   3 68.9720 87.0146   7
 -18   0  -3-161.981 82.5117   3
 -18   0  -4 27253.3 1048.95   3
  18   0   4 24838.8 1419.17   7
 -18   0  -5-50.8224 73.5584   3
  18   0   5 25.0819 89.6609   7
 -18   0  -6 25964.1 990.563   3
  18   0   6 24071.6 1451.09   7
 -18   0  -7 4.95649 36.5330   3
  18   0   7-21.9632 89.0831   7
  18   0   7-25.7504 73.4299   4
 -18   0  -8 19158.3 807.571   3
  18   0   8 16174.9 1241.26   7
  18   0   8 17981.3 1200.48   4
 -18   0  -9 52.5111 45.4494   3
  18   0   9 132.085 154.651   7
  18   0   9-62.4449 62.1343   4
 -18   0 -10 5259.10 394.122   3
  18   0  10 5794.47 765.005   7
  18   0  10 6577.50 691.079   4
  18   0  11-99.1042 173.929   7
  18   0  11-92.9679 107.428   4
  18   0  12 6070.82 823.699   7
  18   0  12 7801.23 712.997   4
  18   0  13 205.091 154.404   7
  18   0  13-16.9908 47.4075   4
  18   0  14 8327.37 996.500   7
  18   0  15-76.4400 87.4764   7
  18   0  16 1148.01 394.698   7
  18   0  17-79.4080 144.118   7
  18   0  18 4110.12 754.269   7
  18   0  19 171.991 168.865   7
  18   0  20 1745.01 517.312   7
  18   0  21-2.12596 110.365   7
  18   0  22 17238.2 1654.23   7
  18   0  23-94.7122 156.912   7
 -18  -2  38 9450.01 1209.19   1
 -18   2  37 149.237 129.823   1
 -18  -2  37-47.1010 206.658   1
 -18   2  36 958.328 383.714   1
 -18  -2  36 1405.11 454.284   1
 -18   2  35 195.286 216.857   1
 -18  -2  35-139.519 128.927   1
 -18   2  34 7502.92 1028.85   1
 -18  -2  34 4737.21 775.020   2
 -18  -2  34 5952.32 871.940   1
 -18   2  33 15.5385 209.744   1
 -18  -2  33 52.5333 49.7284   2
 -18  -2  33-27.6631 110.392   1
 -18   2  32 3383.44 670.465   1
 -18  -2  32 3000.39 624.061   2
 -18  -2  32 3796.00 673.857   1
  18  -2 -32 4099.73 766.206   4
 -18   2  31-222.297 213.186   1
 -18  -2  31 19.5330 94.8315   2
 -18  -2  31 238.791 170.544   1
  18  -2 -31 98.1109 209.669   4
 -18  -2  30 12416.2 1221.60   2
 -18   2  30 13780.1 1312.44   1
 -18  -2  30 13480.9 1216.51   1
  18  -2 -30 14203.2 1415.63   4
 -18  -2  29-0.54498 79.8449   2
 -18  -2  29 353.210 232.330   1
  18  -2 -29 305.351 177.517   4
 -18   2  29-114.534 72.8073   1
 -18  -2  28 7699.61 938.121   2
 -18   2  28 8098.19 965.726   1
 -18  -2  28 7850.07 876.596   1
  18  -2 -28 7883.21 1035.01   4
 -18  -2  27-121.236 195.265   2
 -18  -2  27-76.7685 43.2306   1
 -18   2  27-201.430 162.993   1
  18  -2 -27-109.874 114.175   4
 -18  -2  26 2097.96 589.034   2
 -18  -2  26 1974.63 415.655   1
 -18   2  26 2134.10 482.091   1
  18  -2 -26 2024.78 516.734   4
 -18  -2  25-19.9753 78.0733   1
 -18  -2  25 0.48612 67.8540   2
 -18   2  25 51.2419 152.084   1
  18  -2 -25-105.817 168.840   4
 -18  -2  24 18982.3 1388.84   2
 -18   2  24 18026.9 1345.53   1
 -18  -2  24 17386.3 1182.20   1
  18  -2 -24 16204.3 1439.96   4
 -18  -2  23 15.4293 106.325   1
 -18  -2  23 105.396 130.317   2
 -18   2  23-41.9839 66.6202   1
  18  -2 -23 26.7030 124.894   4
 -18   2  22 11436.9 1028.99   1
 -18  -2  22 10486.2 877.501   1
  18  -2 -22 9752.75 1121.60   4
 -18  -2  22 11759.5 1070.80   2
 -18  -2  21 230.112 111.389   1
 -18  -2  21 14.2858 72.5295   2
 -18   2  21 397.453 160.941   1
  18  -2 -21 234.916 174.490   4
 -18   2  20 13625.2 1082.39   1
 -18  -2  20 12567.0 899.820   1
  18  -2 -20 14034.2 1313.97   4
 -18  -2  20 14055.1 1153.77   2
 -18  -2  19 116.771 131.980   2
  18  -2 -19 161.387 59.8532   7
 -18   2  19 108.700 70.9481   1
 -18  -2  19 39.2997 70.8106   1
  18  -2 -19 142.829 169.966   4
 -18  -2  18 2229.56 366.247   1
  18  -2 -18 2200.36 275.377   7
 -18  -2  18 2144.92 436.507   2
 -18   2  18 1879.87 395.889   1
  18  -2 -18 1456.26 424.846   4
 -18  -2  17 110.891 117.867   2
  18  -2 -17 38.3939 24.1743   7
 -18   2  17 88.4893 77.1563   1
 -18  -2  17 243.249 83.1017   1
  18  -2 -17-15.1746 14.2152   2
  18  -2 -17-111.817 136.572   4
 -18   2  16 10367.8 907.276   1
 -18  -2  16 9211.23 710.078   1
  18  -2 -16 9910.63 617.607   2
  18  -2 -16 9870.71 1076.99   4
 -18  -2  16 9077.98 911.496   2
 -18  -2  15 88.3089 132.766   2
 -18   2  15-47.9452 105.484   1
 -18  -2  15 63.6593 112.002   1
  18  -2 -15-0.80220 24.7868   7
  18  -2 -15 158.258 125.311   2
  18  -2 -15 86.8623 133.192   4
 -18   2  14 7903.48 784.553   1
 -18  -2  14 8419.78 674.726   1
  18  -2 -14 8608.11 621.297   2
  18  -2 -14 8938.38 569.140   7
 -18  -2  14 8180.95 855.104   2
  18  -2 -14 6988.11 919.749   4
 -18  -2  13-8.04613 57.0409   2
 -18   2  13 210.657 172.216   1
 -18  -2  13 17.5827 42.1667   1
  18  -2 -13 97.9591 51.9835   2
  18  -2 -13 18.5898 93.7438   7
 -18   2  13-5.46129 169.547   6
  18  -2 -12 21946.2 948.606   7
 -18   2  12 20278.2 1300.60   6
 -18  -2  12 20854.5 1370.36   2
  18  -2 -12 19781.0 1522.94   4
  18  -2 -12 21871.5 1036.23   2
 -18   2  12 20173.2 1239.50   1
 -18  -2  12 20711.5 1024.36   1
 -18  -2  11 3.82850 85.0531   2
  18  -2 -11 56.5919 53.0682   2
  18  -2 -11 32.8882 79.3483   7
 -18   2  11 1.14179 63.5641   6
  18  -2 -11 290.249 276.383   4
 -18  -2  10 183.699 114.171   2
  18  -2 -10 7.33483 20.8042   2
  18   2 -10 300.732 114.455   1
  18  -2 -10 618.276 173.951   7
 -18   2  10 532.610 221.272   6
  18  -2 -10 579.051 254.845   4
  18  -2  -9-60.7682 60.9699   7
 -18   2   9 122.139 81.5181   6
 -18  -2   9 17.1728 57.1594   6
  18   2  -9 63.7580 57.9184   1
  18  -2  -9 215.855 222.184   4
 -18  -2   9-88.6401 139.329   2
  18  -2  -8 31101.4 1242.66   7
 -18   2   8 29019.4 1523.50   6
  18   2  -8 30528.9 1153.76   1
 -18  -2   8 30607.0 1361.13   6
 -18  -2   8 29966.8 1651.69   2
  18  -2  -8 29272.6 1801.92   4
  18   2  -7 0.99821 18.5890   1
  18  -2  -7-20.8759 33.1596   7
 -18   2   7-149.071 56.1067   6
 -18  -2   7-4.43948 89.1857   6
 -18  -2   7-175.845 142.806   2
  18  -2  -6 808.825 228.136   7
 -18   2   6 892.983 280.571   6
 -18  -2   6 1110.51 261.364   6
 -18  -2   6 1011.11 291.486   2
  18  -2  -6 1262.90 368.358   4
  18   2  -6 1207.16 221.137   1
  18  -2  -5-20.0803 91.1562   7
 -18   2   5 95.6839 77.7371   6
 -18  -2   5 5.06922 56.4823   6
  18   2  -5-44.9712 44.5457   1
 -18  -2   5-58.0125 111.577   2
  18  -2  -5-74.9100 124.009   4
  18   2  -4 27950.3 1079.81   1
  18  -2  -4 26399.4 1263.23   7
 -18   2   4 25553.7 1422.34   6
 -18  -2   4 27881.0 1246.17   6
 -18  -2   4 26711.3 1587.88   2
  18  -2  -4 29479.8 1759.83   4
 -18  -2   3 31.4250 24.9821   3
  18   2  -3-42.0121 64.6549   1
  18  -2  -3-58.7131 88.2836   7
 -18   2   3-96.2717 101.621   6
 -18  -2   3-20.6225 77.3979   6
 -18   2   3-42.4570 91.8676   3
 -18  -2   3 36.2439 90.0130   2
  18  -2  -3 217.137 186.605   4
 -18  -2   2 11256.2 726.337   3
  18  -2  -2 10481.6 831.852   7
 -18   2   2 11408.5 872.370   3
 -18   2   2 9825.08 887.777   6
 -18  -2   2 11006.6 769.935   6
 -18  -2   2 10796.3 1017.02   2
  18  -2  -2 10924.3 1058.57   4
 -18  -2   1 102.419 74.9874   3
  18  -2  -1 13.7931 84.2509   7
 -18   2   1 79.5841 94.2643   3
 -18  -2   1-56.9120 71.1152   2
  18  -2  -1-60.5634 106.294   4
 -18  -2   0 15715.2 763.262   3
  18  -2   0 13980.5 1005.48   7
 -18   2   0 14146.9 967.224   3
 -18  -2   0 16083.9 1253.04   2
  18  -2   0 16207.7 1261.11   4
 -18  -2  -1 49.3320 42.2333   3
  18  -2   1-15.6261 49.2250   7
 -18   2  -1-74.6424 80.7033   3
 -18  -2  -1-135.331 150.201   2
  18  -2   1 45.1575 103.936   4
 -18  -2  -2 1708.93 211.351   3
  18  -2   2 1353.67 338.233   7
 -18   2  -2 1813.68 344.891   3
 -18  -2  -2 2180.70 460.946   2
  18  -2   2 1650.17 394.188   4
 -18  -2  -3 164.033 52.1821   3
  18  -2   3 12.4336 48.0454   7
 -18   2  -3 224.882 114.693   3
 -18  -2  -3 163.005 59.4010   3
 -18  -2  -3 100.490 119.645   2
  18  -2   3-169.749 152.158   4
 -18  -2  -4 18814.2 454.249   3
 -18   2  -4 20862.0 1190.03   3
 -18  -2  -4 19297.2 459.026   3
  18  -2   4 20090.1 1304.19   7
  18   2   4 18938.4 1279.66   7
  18  -2   4 20053.8 1364.30   4
  18  -2   5 134.031 131.297   7
 -18   2  -5-48.4606 82.7148   3
  18   2   5 207.303 89.7526   7
  18  -2   5-49.1118 113.043   4
 -18   2  -6 19395.3 1164.87   3
  18  -2   6 18405.7 1305.11   7
  18   2   6 18083.2 1275.71   7
  18  -2   6 19477.9 1325.57   4
 -18   2  -7-46.3723 40.8658   3
  18  -2   7-67.1508 82.8057   7
  18  -2   7-2.86840 57.0911   4
 -18   2  -8 12837.8 956.182   3
  18  -2   8 12058.5 1099.15   7
  18   2   8 10641.5 1006.74   7
 -18   2  -9 61.7992 80.0903   3
  18  -2   9 22.6972 84.4880   7
  18   2   9-35.4802 61.9814   7
 -18   2 -10 8271.99 762.570   3
  18   2  10 8131.43 911.285   7
  18  -2  10 8428.47 957.124   7
 -18   2 -11 70.7815 43.3264   3
  18  -2  11-30.3299 77.0493   7
  18   2  11 23.7900 123.170   7
 -18   2 -12 9139.05 804.484   3
  18  -2  12 7280.71 919.225   7
  18   2  12 7313.72 897.102   7
 -18   2 -13-84.4385 72.6618   3
  18   2  13-178.434 176.774   7
  18  -2  13-0.56565 199.123   7
 -18   2 -14 16285.3 1070.92   3
  18  -2  14 17121.6 1472.85   7
  18   2  14 17521.1 1435.98   7
  18  -2  15 57.3101 92.6395   7
  18   2  15 228.948 287.394   7
  18  -2  16 4320.67 765.168   7
  18   2  16 4222.89 725.104   7
  18  -2  17 270.989 236.567   7
  18   2  17-86.7712 154.120   7
  18  -2  18 2005.13 506.466   7
  18   2  18 2597.26 590.371   7
  18  -2  19-315.636 235.647   7
  18   2  19 20.9752 110.361   7
  18  -2  20 408.531 265.293   7
  18   2  20 365.220 238.546   7
  18  -2  21 156.672 131.312   7
  18   2  21 188.049 169.191   7
  18  -2  22 8873.06 1228.79   7
  18   2  22 8340.39 1124.22   7
  18   2  23 66.3226 107.854   7
 -18  -4  37-182.055 187.467   2
 -18  -4  37 366.082 250.596   1
 -18  -4  36 141.473 141.001   2
 -18  -4  36 506.449 253.897   1
 -18  -4  35-141.285 233.418   2
 -18  -4  35 119.683 124.070   1
 -18  -4  34 2650.69 686.914   2
 -18  -4  34 4606.38 754.625   1
 -18   4  34 3230.34 701.731   1
 -18  -4  33-108.378 171.666   2
 -18  -4  33 8.79170 56.8200   1
 -18   4  32 4490.71 796.750   1
 -18  -4  32 3625.87 788.658   2
 -18  -4  32 3664.68 637.775   1
 -18  -4  31-250.174 279.000   2
 -18  -4  31-17.9653 42.5848   1
 -18   4  30 14853.7 1413.80   1
 -18  -4  30 11381.2 1364.81   2
 -18  -4  30 13370.3 1165.45   1
 -18  -4  29-7.35709 119.396   2
 -18  -4  29 7.64593 64.3955   1
 -18   4  29 287.805 258.409   1
 -18   4  28 5665.98 845.237   1
 -18  -4  28 3491.71 734.620   2
 -18  -4  28 5345.33 693.255   1
 -18  -4  27-14.7249 157.306   2
 -18  -4  27-36.1950 47.4203   1
 -18   4  27-79.4643 103.762   1
 -18  -4  26 1750.89 375.799   1
 -18  -4  26 1346.74 453.148   2
 -18   4  26 1822.74 467.721   1
 -18  -4  25-59.6914 93.4565   1
 -18  -4  25-64.8565 166.233   2
 -18   4  25 218.134 209.743   1
 -18  -4  24 11898.1 1323.09   2
 -18   4  24 12547.3 1206.29   1
 -18  -4  24 12369.1 933.843   1
 -18  -4  23-91.2011 91.8232   1
 -18  -4  23-40.5460 145.768   2
 -18   4  23-107.751 124.938   1
 -18  -4  22 9319.19 1109.92   2
 -18   4  22 10217.6 1052.65   1
 -18  -4  22 9668.78 781.365   1
 -18  -4  21 536.714 255.236   2
 -18   4  21 263.644 208.456   1
 -18  -4  21 228.591 107.293   1
 -18  -4  20 13547.6 1301.53   2
 -18   4  20 14236.6 1206.05   1
 -18  -4  20 14394.5 883.206   1
 -18  -4  19-73.1710 100.792   2
 -18   4  19 30.3001 81.1181   6
 -18  -4  19 32.8460 37.0751   1
 -18   4  18 950.522 309.230   1
 -18  -4  18 799.367 274.189   2
 -18  -4  18 1085.97 231.780   1
 -18   4  18 773.289 228.022   6
 -18   4  17 127.277 86.6122   1
 -18  -4  17 348.753 220.794   2
 -18  -4  17 274.414 117.814   1
 -18   4  17 74.4900 118.003   6
 -18   4  16 13095.2 1125.77   1
 -18  -4  16 11062.9 696.983   1
 -18   4  16 13257.5 1153.24   6
  18  -4 -16 11498.8 1273.85   4
 -18  -4  16 14057.1 1303.60   2
 -18  -4  15 55.9762 65.3732   1
 -18  -4  15-28.8799 147.044   2
 -18   4  15 9.14656 77.4460   6
  18  -4 -15 20.2225 104.764   4
 -18   4  15 44.3633 152.443   1
 -18   4  14 6583.76 803.100   6
  18  -4 -14 6773.82 977.872   4
 -18  -4  14 6020.96 847.862   2
 -18  -4  13 82.5934 102.388   2
  18  -4 -13 80.4583 42.2405   7
 -18   4  13 1.34450 66.8005   6
  18  -4 -13 92.7189 200.512   4
  18  -4 -12 11493.0 566.109   7
 -18   4  12 11186.2 1030.03   6
  18  -4 -12 10528.2 1194.86   4
 -18  -4  12 11921.4 1197.25   2
 -18  -4  11-178.903 200.564   2
  18  -4 -11-6.17026 55.7640   7
 -18   4  11-19.6719 87.8242   6
  18  -4 -11 32.1833 75.4264   4
 -18  -4  10 818.984 314.204   2
  18  -4 -10 1194.23 213.307   7
 -18   4  10 559.952 210.625   6
 -18   4  10 885.967 284.982   3
  18  -4 -10 1202.92 418.231   4
 -18  -4   9 221.894 177.212   2
  18  -4  -9 265.796 117.420   7
 -18   4   9-10.3055 87.3912   6
 -18   4   9 289.434 174.355   3
 -18  -4   9 278.758 115.309   6
  18  -4  -9 340.021 137.312   4
  18  -4  -8 20305.0 1005.93   7
 -18   4   8 18448.0 1318.73   3
 -18   4   8 17713.0 1285.24   6
 -18  -4   8 22470.1 1065.21   6
 -18  -4   8 19731.7 1556.99   2
 -18  -4   7 71.1511 119.159   2
  18  -4  -7-10.2398 66.6687   7
 -18   4   7-179.772 174.483   6
 -18   4   7 24.6274 65.6017   3
 -18  -4   7 82.9136 35.0849   6
 -18  -4   6 651.043 282.674   2
  18  -4  -6 702.351 200.026   7
 -18   4   6 330.061 136.493   6
 -18   4   6 962.210 308.644   3
 -18  -4   6 639.904 159.516   6
  18  -4  -5 35.1674 59.6419   7
 -18   4   5-112.840 116.409   6
 -18   4   5-135.669 92.7578   3
 -18  -4   5 25.9018 55.3785   6
 -18  -4   5-20.6029 69.4371   2
  18  -4  -4 26712.9 1320.03   7
 -18   4   4 24495.1 1501.80   3
 -18  -4   4 27019.4 1009.66   6
 -18   4   4 26240.4 1552.63   6
 -18  -4   4 24558.3 1731.76   2
  18  -4  -3-26.7048 46.6160   7
 -18   4   3 7.72276 74.8109   3
 -18  -4   3 140.250 158.882   2
  18  -4  -2 10556.6 877.883   7
 -18   4   2 8884.30 912.054   3
 -18  -4   2 9450.83 1071.12   2
  18  -4  -1 49.2804 121.144   7
 -18   4   1 79.7991 112.741   3
 -18  -4   1-115.972 185.992   2
  18  -4   0 17026.2 1179.74   7
 -18   4   0 16983.7 1266.24   3
 -18  -4   0 15924.3 1406.82   2
 -18   4  -1-9.21475 149.629   3
  18  -4   1 21.2144 107.858   7
 -18  -4  -1 235.753 204.788   2
  18  -4   2 949.115 293.103   7
 -18   4  -2 774.350 267.746   3
 -18  -4  -2 1196.89 400.536   2
  18  -4   3 118.784 111.547   7
 -18   4  -3 62.8142 99.0200   3
 -18  -4  -3 126.998 168.969   2
 -18   4  -4 10935.9 1039.61   3
  18  -4   4 12341.1 1088.52   7
 -18  -4  -4 12479.1 1253.38   2
  18  -4   5 195.460 151.139   7
 -18   4  -5 270.170 125.319   3
 -18  -4  -5-183.806 245.887   2
 -18   4  -6 18191.9 1362.48   3
  18  -4   6 17273.6 1344.84   7
 -18  -4  -6 19026.6 1555.27   2
  18  -4   7 364.337 266.109   7
 -18   4  -7 193.649 118.550   3
  18   4   7-58.6599 171.434   7
 -18  -4  -7 267.523 216.988   2
 -18   4  -8 9926.32 1018.16   3
  18  -4   8 9790.18 1050.98   7
  18   4   8 9179.81 985.019   7
 -18  -4  -8 10578.2 1168.56   2
  18  -4   9 78.2891 94.8310   7
  18   4   9-41.6358 49.0824   7
 -18   4 -10 5587.92 773.673   3
  18  -4  10 4685.14 760.605   7
  18   4  10 4630.62 714.235   7
 -18   4 -11 310.834 185.787   3
  18  -4  11-43.4557 175.146   7
  18   4  11 126.214 154.431   7
  18  -4  11 262.987 127.687   5
 -18   4 -12 4665.99 715.966   3
  18  -4  12 3828.53 699.434   7
  18   4  12 3594.12 636.345   7
  18  -4  12 3466.70 610.675   5
 -18   4 -13-67.6476 101.885   3
  18  -4  13 220.109 190.798   7
  18   4  13 182.235 148.969   7
  18  -4  13 49.8778 114.805   5
 -18   4 -14 12365.0 1177.08   3
  18  -4  14 12918.6 1361.78   7
  18   4  14 13272.7 1270.45   7
 -18   4 -15-148.031 101.570   3
  18  -4  15-157.091 183.597   7
  18   4  15 83.6291 70.7704   7
 -18   4 -16 2966.78 578.512   3
  18  -4  16 2891.01 660.834   7
  18   4  16 2076.17 502.069   7
 -18   4 -17 37.0588 40.0221   3
  18  -4  17 237.820 193.823   7
  18   4  17 18.5370 118.915   7
  18  -4  18 1902.84 560.700   7
  18   4  18 2634.76 610.532   7
  18   4  19 345.169 221.626   7
  18  -4  19-135.775 68.6613   7
  18  -4  20 641.284 363.438   7
  18   4  20 646.599 304.016   7
  18   4  21 264.229 211.495   7
  18   4  22 11763.3 1342.35   7
 -18  -6  31 90.4551 101.462   2
 -18   6  31 4386.16 831.257   6
 -18   6  30 10280.5 1243.31   1
 -18  -6  30 9957.76 1433.50   2
 -18   6  30 10813.4 1272.18   6
  18  -6 -30 9322.11 1396.34   5
 -18   6  29-34.2271 129.579   1
 -18  -6  29-102.863 175.568   2
 -18   6  29-79.1300 121.527   3
 -18   6  29 73.7833 134.547   6
  18  -6 -29-470.118 313.761   5
 -18   6  28 4023.47 762.387   1
 -18  -6  28 3047.28 773.572   2
 -18   6  28 3644.77 775.263   3
 -18   6  28 3786.34 721.302   6
 -18   6  27 211.734 211.603   1
 -18  -6  27 82.1676 241.998   2
 -18   6  27 81.0162 138.841   6
 -18   6  26 1397.03 444.553   1
 -18  -6  26 1113.62 445.118   2
 -18   6  26 1502.14 480.839   3
 -18   6  26 1125.16 397.294   6
 -18  -6  25-101.873 150.564   2
 -18   6  25 31.5094 67.5153   3
 -18   6  25-306.683 194.101   6
 -18   6  24 7378.61 985.017   1
 -18  -6  24 6195.06 1051.90   2
 -18   6  24 8706.30 1146.75   3
 -18   6  24 7369.08 965.513   6
 -18   6  23 241.679 175.359   1
 -18  -6  23 461.976 303.844   2
 -18   6  23 253.025 209.712   3
 -18   6  23 87.6333 147.509   6
 -18   6  22 6296.86 891.680   1
 -18  -6  22 5608.27 978.936   2
 -18   6  22 7531.08 1065.59   3
 -18   6  22 6102.07 879.569   6
 -18   6  21-21.2902 107.276   1
 -18  -6  21 68.8799 119.611   2
 -18   6  21 227.264 71.1583   6
 -18  -6  20 11840.2 1413.13   2
 -18   6  20 12616.5 1355.22   3
 -18   6  20 12213.9 1230.00   6
 -18   6  20 11468.9 1179.23   1
 -18  -6  19-58.6145 165.483   2
 -18   6  19-45.8707 150.965   3
 -18   6  19-122.136 75.4174   6
 -18  -6  18 531.895 305.619   2
 -18   6  18 1112.17 381.808   3
 -18   6  18 840.502 344.251   6
 -18  -6  17 61.2812 159.643   2
 -18   6  17 148.477 174.629   3
 -18   6  17 43.9722 194.663   6
 -18   6  16 11949.0 1264.05   3
 -18   6  16 10495.0 1109.50   6
 -18  -6  16 11554.5 1357.30   2
 -18  -6  15 96.2330 174.313   2
 -18   6  15 57.2566 215.387   3
 -18   6  15 83.1867 178.671   6
 -18  -6  14 3652.92 750.338   2
 -18   6  14 3772.69 689.872   3
 -18   6  14 3161.10 609.014   6
 -18  -6  13 310.946 337.985   2
 -18   6  13 322.813 274.218   3
 -18   6  13 270.434 207.105   6
 -18   6  12 8351.28 1039.93   3
 -18   6  12 9285.96 1004.08   6
 -18  -6  12 8914.01 1191.93   2
 -18  -6  11 227.701 153.607   2
 -18   6  11 166.576 200.085   3
 -18   6  11-59.5754 133.683   6
 -18  -6  10 663.984 284.049   2
 -18   6  10 1128.99 383.282   3
 -18   6  10 1013.96 350.364   6
 -18  -6   9-218.243 181.956   2
 -18   6   9 8.12724 123.046   3
 -18   6   9-143.811 60.5025   6
 -18   6   8 13690.2 1317.02   3
 -18  -6   8 12675.2 1419.07   2
 -18  -6   7 182.560 156.029   2
 -18   6   7 6.37160 113.855   3
 -18  -6   6 108.167 154.089   2
  18  -6  -6 448.819 177.975   7
 -18   6   6-172.025 203.324   3
 -18  -6   5 99.6770 123.275   2
  18  -6  -5 25.2965 82.9046   7
 -18   6   5-52.4244 43.7100   3
  18  -6  -4 20134.5 1289.79   7
 -18   6   4 20809.9 1620.43   3
 -18  -6   4 18404.7 1731.05   2
 -18   6   3-69.1733 166.925   3
 -18  -6   3-3.76536 104.174   2
  18  -6  -2 6808.13 798.418   7
 -18   6   2 7135.03 937.818   3
 -18  -6   2 6419.59 1014.24   2
  18  -6  -1-61.7449 49.4338   7
 -18   6   1 89.6747 92.2683   3
 -18  -6   1 163.564 128.702   2
  18  -6   0 14463.3 1228.22   7
 -18   6   0 13111.2 1298.09   3
 -18  -6   0 12225.2 1406.62   2
  18  -6   1 3.50957 69.2436   7
 -18   6  -1-268.828 175.326   3
 -18  -6  -1-93.8978 160.786   2
  18  -6   2 812.121 269.468   7
 -18   6  -2 618.721 281.713   3
  18  -6   2 457.474 250.331   5
 -18  -6  -2 484.625 238.441   2
  18  -6   3 113.580 148.802   7
 -18   6  -3-7.47651 128.142   3
 -18  -6  -3 69.4084 93.1183   2
  18  -6   3-26.2796 138.111   5
 -18   6  -4 8362.46 1060.43   3
  18  -6   4 7075.34 935.499   7
 -18  -6  -4 8094.46 1150.17   2
  18  -6   4 7780.82 1076.83   5
 -18   6  -5 80.2631 160.637   3
 -18  -6  -5 283.551 213.204   2
  18  -6   5-42.1483 56.1293   5
 -18   6  -6 14532.4 1420.47   3
  18  -6   6 14101.7 1360.21   7
 -18  -6  -6 15541.7 1575.36   2
  18  -6   6 13195.7 1413.96   5
  18  -6   7-49.6207 127.945   7
 -18   6  -7-111.504 50.0370   3
 -18  -6  -7-92.1579 147.735   2
  18  -6   7 4.87049 132.984   5
 -18   6  -8 7221.13 1016.81   3
  18  -6   8 7757.31 1041.62   7
 -18  -6  -8 6973.84 1047.22   2
  18  -6   8 7472.42 1044.39   5
  18  -6   9 299.813 176.618   7
 -18   6  -9 167.950 213.831   3
  18   6   9 210.694 196.256   7
 -18  -6  -9 348.336 220.030   2
  18  -6   9 40.5075 61.5402   5
 -18   6 -10 4085.28 759.807   3
  18  -6  10 3693.89 745.356   7
  18   6  10 3398.69 661.613   7
 -18  -6 -10 4174.95 805.905   2
  18  -6  10 2705.07 605.230   5
 -18   6 -11 115.823 97.1491   3
  18  -6  11 232.702 209.124   7
  18   6  11 133.414 107.229   7
  18  -6  11 244.793 170.850   5
 -18   6 -12 1927.82 539.403   3
  18  -6  12 2394.98 626.133   7
  18   6  12 2042.95 518.053   7
  18  -6  12 1712.67 497.197   5
 -18   6 -13-194.259 227.665   3
  18  -6  13 149.442 220.490   7
  18   6  13 152.487 140.519   7
 -18   6 -14 9332.22 1201.73   3
  18  -6  14 10972.6 1367.44   7
  18   6  14 10082.0 1182.19   7
 -18   6 -15 362.136 286.963   3
  18  -6  15 12.4246 119.558   7
  18   6  15 48.6603 91.5280   7
 -18   6 -16 1996.86 577.898   3
  18  -6  16 2344.90 661.038   7
  18   6  16 2036.05 523.788   7
 -18   6 -17-739.690 341.216   3
  18   6  17 306.197 264.636   7
 -18   6 -18 1640.32 517.851   3
  18   6  18 2218.33 553.319   7
 -18   8  22 4527.54 902.379   3
  18  -8 -22 5131.71 1109.08   5
 -18   8  21 380.233 291.550   3
  18  -8 -21 334.962 140.479   5
 -18   8  20 4527.81 886.613   3
  18  -8 -20 5027.44 1093.51   5
 -18  -8  19-73.1369 135.324   2
 -18   8  19-110.864 182.076   3
  18  -8 -19-218.048 169.017   5
 -18  -8  18 310.314 274.083   2
 -18   8  18 862.762 373.889   3
 -18   8  18 558.337 254.718   6
  18  -8 -18 522.592 284.708   5
 -18  -8  17 433.403 423.707   2
 -18   8  17 11.0069 222.006   3
 -18   8  17-67.0165 143.507   6
  18  -8 -17-292.458 298.950   5
 -18  -8  16 5484.76 1074.46   2
 -18   8  16 5267.95 948.636   3
 -18   8  16 5301.48 817.853   6
  18  -8 -16 5524.77 1129.22   5
 -18  -8  15 9.91844 72.4883   2
 -18   8  15 48.0787 201.799   3
  18  -8 -15 190.244 240.831   5
 -18  -8  14 672.887 376.059   2
 -18   8  14 1597.72 512.964   3
  18  -8 -14 995.949 444.685   5
 -18  -8  13 144.778 352.732   2
 -18   8  13 315.674 261.987   3
  18  -8 -13 241.138 249.655   5
 -18   8  12 16131.3 1634.67   3
  18  -8 -12 15999.8 1856.53   5
 -18  -8  12 15470.0 1810.97   2
 -18  -8  11 195.031 201.754   2
 -18   8  11 218.767 269.275   3
  18  -8 -11-39.0650 106.374   5
 -18  -8  10 508.974 325.846   2
 -18   8  10 249.862 240.535   3
  18  -8 -10 374.259 242.353   5
 -18   8   9-239.104 153.322   3
  18  -8  -9-219.568 229.499   5
 -18   8   8 13634.7 1499.39   3
  18  -8  -8 13748.3 1672.90   5
 -18  -8   8 15232.2 1802.19   2
 -18  -8   7-167.648 262.335   2
 -18   8   7-45.9545 145.337   3
  18  -8  -7 22.2586 81.9718   5
 -18  -8   6-73.8844 258.209   2
 -18   8   6-51.5640 179.421   3
  18  -8  -6-25.0034 214.207   5
 -18  -8   5 193.746 283.443   2
 -18   8   5 93.5070 126.046   3
  18  -8  -5-186.832 201.262   5
 -18   8   4 10693.6 1345.80   3
  18  -8  -4 13007.3 1613.73   5
 -18  -8   4 10950.5 1559.68   2
 -18   8   3 157.931 132.144   3
  18  -8  -3 525.786 348.719   5
 -18  -8   3 315.603 259.663   2
 -18   8   2 4200.17 847.235   3
  18  -8  -2 3133.43 794.924   5
 -18  -8   2 3899.58 901.154   2
 -18   8   1 117.079 166.655   3
  18  -8  -1 225.233 151.665   5
 -18  -8   1 322.993 256.638   2
 -18   8   0 7676.64 1158.55   3
 -18  -8   0 7496.92 1252.59   2
  18  -8   0 6596.88 1135.63   5
 -18   8  -1-219.707 208.368   3
  18  -8   1-274.078 230.182   5
 -18  -8  -1 234.004 226.773   2
  18  -8   2 184.225 135.828   5
 -18  -8  -2 94.6431 135.560   2
 -18   8  -3 247.405 246.543   3
  18  -8   3-13.8365 234.454   5
 -18  -8  -3 136.942 166.253   2
 -18   8  -4 5627.76 1000.89   3
  18  -8   4 4738.40 948.331   5
 -18  -8  -4 6002.47 1112.88   2
 -18   8  -5 71.3179 235.536   3
  18  -8   5-201.482 203.322   5
 -18  -8  -5 194.899 288.613   2
 -18   8  -6 8074.27 1227.77   3
 -18  -8  -6 8444.60 1305.04   2
  18  -8   6 7154.25 1178.70   5
 -18  -8  -7 368.961 237.062   2
  18  -8   7-2.71959 170.288   5
  18  -8   8 3965.59 835.274   7
 -18  -8  -8 4323.84 913.136   2
  18  -8   8 3778.13 872.646   5
  18  -8   9 132.321 155.743   7
 -18  -8  -9 264.829 211.663   2
  18  -8   9 311.693 245.598   5
  18  -8  10 2421.35 668.020   7
  18   8  10 3121.04 684.106   7
  18  -8  10 2595.11 694.539   5
  18   8  11 389.606 259.708   7
 -19  -1  38 72.2887 179.688   1
 -19   1  37 4203.54 823.721   1
 -19  -1  37 4151.15 807.258   1
 -19   1  36-90.4421 66.6915   1
 -19  -1  36-37.6761 79.2340   1
 -19   1  35 13120.1 1381.58   1
 -19  -1  35 12421.8 1318.16   1
 -19   1  34-72.5972 114.766   1
 -19  -1  34 271.227 205.878   1
 -19   1  33 3067.84 650.484   1
 -19  -1  33 2680.16 588.574   1
  19  -1 -33 2737.06 597.269   4
 -19  -1  32 180.626 105.997   1
  19  -1 -32-13.6733 54.6840   4
 -19  -1  31 3832.05 672.790   1
 -19   1  31 4822.01 766.574   1
  19  -1 -31 5271.35 835.459   4
 -19  -1  31 3463.00 591.817   2
 -19   1  30 121.017 137.588   1
 -19  -1  30-27.6610 100.476   1
 -19  -1  30-43.1298 99.5039   2
  19  -1 -30-69.2249 115.180   4
 -19   1  29 8988.48 1025.33   1
 -19  -1  29 7680.39 918.801   1
  19  -1 -29 7451.54 987.635   4
 -19  -1  29 8562.15 905.037   2
 -19  -1  28 101.062 84.6837   1
 -19  -1  28-93.5096 106.580   2
  19  -1 -28-83.7866 172.639   4
 -19   1  28 105.771 159.977   1
 -19   1  27 14346.4 1243.09   1
 -19  -1  27 14739.6 1205.12   1
  19  -1 -27 13608.1 1333.77   4
 -19  -1  27 14500.0 1150.16   2
 -19  -1  26-99.8511 73.4155   1
 -19  -1  26 148.036 51.2261   2
 -19   1  26 17.6943 107.194   1
  19  -1 -26-54.5627 129.372   4
 -19   1  25 10701.1 1029.07   1
 -19  -1  25 9457.54 913.186   1
 -19   1  25 10053.5 660.089   2
  19  -1 -25 10194.3 1140.93   4
 -19  -1  25 10274.0 947.926   2
 -19  -1  24-49.3446 74.9207   1
 -19  -1  24-44.7495 109.413   2
 -19   1  24 61.1244 111.960   1
 -19   1  24 55.6346 18.7567   2
  19  -1 -24 3.55797 92.5371   4
 -19  -1  23 872.931 271.752   2
 -19   1  23 659.528 245.656   1
 -19   1  23 766.157 185.360   2
 -19  -1  23 768.776 246.565   1
  19  -1 -23 728.173 286.063   4
 -19  -1  22 21.6894 95.8459   2
 -19   1  22 128.491 96.9246   1
 -19   1  22 82.2647 78.4664   2
 -19  -1  22 141.369 108.223   1
 -19   1  21 10746.6 949.761   1
 -19  -1  21 11106.3 907.530   1
 -19   1  21 11265.3 714.872   2
 -19  -1  21 11573.8 976.314   2
 -19  -1  20-52.4947 72.9756   2
 -19   1  20-17.3648 107.804   1
 -19  -1  20 55.1892 88.4471   1
 -19   1  20 38.2997 63.4902   2
 -19   1  19 10106.1 903.511   1
 -19  -1  19 10210.4 835.413   1
  19  -1 -19 11730.0 782.637   2
 -19   1  19 10326.1 705.975   2
 -19  -1  19 10558.4 930.276   2
 -19  -1  18 107.241 98.9739   2
 -19   1  18 116.590 112.154   1
 -19  -1  18-12.4034 64.0215   1
 -19   1  18 52.4239 54.1358   2
  19  -1 -18 7.26465 64.9245   2
 -19   1  17 11520.8 937.547   1
 -19  -1  17 11376.5 856.546   1
  19  -1 -17 11721.9 805.553   2
 -19   1  17 11567.1 760.587   2
 -19  -1  17 11854.5 983.567   2
 -19  -1  16 214.038 126.151   2
 -19   1  16 329.585 182.141   1
 -19  -1  16 213.965 113.266   1
  19  -1 -16 8.06041 15.9377   2
 -19   1  16 103.673 63.9419   2
 -19  -1  15 927.114 286.794   2
 -19   1  15 1202.86 299.082   1
 -19  -1  15 1225.40 263.243   1
  19  -1 -15 50.4061 69.4341   2
 -19   1  15 1326.67 258.588   2
 -19   1  14 194.081 89.0908   1
 -19  -1  14 51.7209 74.4009   1
 -19   1  14 113.298 93.6647   2
 -19  -1  14 115.611 91.7895   2
 -19   1  13 30723.6 1496.04   1
 -19  -1  13 32572.3 1408.42   1
 -19   1  13 32871.9 1356.81   2
 -19   1  13 30901.7 1602.13   6
 -19  -1  13 34396.7 1678.58   2
 -19   1  12 24.3032 79.2512   2
 -19   1  12 45.5469 93.6180   6
 -19  -1  12-25.3981 56.1163   2
 -19   1  11 6333.98 726.442   6
 -19  -1  11 6497.58 721.654   2
 -19   1  10-10.4524 127.022   6
 -19  -1  10-218.990 155.386   6
 -19  -1  10-53.6289 117.153   2
 -19   1   9 19227.5 1225.05   6
 -19  -1   9 19789.2 1179.55   6
 -19  -1   9 19399.3 1267.00   2
  19  -1  -8 23.6093 42.3789   7
 -19   1   8 29.8268 74.2596   6
 -19  -1   8-4.52393 48.2713   6
  19  -1  -7 2597.12 379.628   7
 -19   1   7 2605.10 450.721   6
 -19  -1   7 2705.41 420.528   6
 -19  -1   7 2724.77 475.014   2
  19  -1  -6 117.088 71.8849   7
 -19   1   6-10.5587 52.5266   6
 -19  -1   6 33.5371 95.5519   6
 -19  -1   6 124.932 61.1539   2
  19  -1  -5 15271.6 985.161   7
 -19   1   5 15560.9 1098.27   6
 -19  -1   5 15225.7 1011.51   6
 -19  -1   5 14882.1 1135.21   2
  19  -1  -4-2.16356 53.6759   7
 -19   1   4 190.180 72.0840   6
 -19  -1   4 66.8341 77.0448   6
 -19  -1   4 289.192 166.305   2
  19  -1  -3 69.2711 86.7721   7
 -19   1   3 199.963 205.133   6
 -19  -1   3 257.499 113.531   6
 -19  -1   3 149.034 110.161   2
  19  -1  -2 62.2414 65.0110   7
 -19   1   2-47.3091 67.8150   6
 -19  -1   2-13.4883 83.6917   6
 -19  -1   2 85.6105 105.074   2
  19  -1  -1 32281.9 1535.84   7
 -19   1   1 32055.6 1372.17   3
 -19  -1   1 33395.8 1764.26   2
  19  -1  -1 36144.4 1958.28   4
  19  -1   0 110.231 50.0692   7
  19   1   0-111.400 126.410   7
 -19   1   0-5.91254 94.8432   3
  19  -1   0 132.440 195.163   4
  19  -1   1 8815.26 820.705   7
 -19   1  -1 8783.77 709.583   3
  19   1   1 9712.34 880.525   7
  19  -1   1 9445.48 986.757   4
  19  -1   2-104.048 107.435   7
  19   1   2-225.016 179.678   7
 -19   1  -2-30.6517 47.7909   3
 -19  -1  -2 59.9492 56.7671   3
  19  -1   2-148.979 167.317   4
  19  -1   3 22080.4 1370.16   7
 -19  -1  -3 23717.8 855.191   3
  19   1   3 21235.1 1342.93   7
 -19   1  -3 21778.9 1112.86   3
  19  -1   3 22054.0 1476.33   4
  19  -1   4 103.309 140.897   7
 -19   1  -4-61.9673 89.7901   3
 -19  -1  -4-1.72165 28.1522   3
  19   1   4-140.101 152.273   7
  19  -1   4 43.7232 105.898   4
 -19  -1  -5 203.316 77.1221   3
 -19   1  -5 143.928 92.2580   3
  19  -1   5 169.606 101.590   7
  19   1   5 390.693 210.618   7
  19  -1   5-157.093 177.107   4
 -19  -1  -6 18.5272 20.3930   3
 -19   1  -6 28.2608 108.250   3
  19  -1   6-115.963 134.795   7
  19   1   6 179.991 151.632   7
  19  -1   6 16.6422 129.877   4
 -19   1  -7 9043.77 717.746   3
  19  -1   7 8283.79 889.359   7
  19   1   7 7656.01 848.500   7
  19  -1   7 9347.66 906.564   4
 -19   1  -8 93.8877 95.9136   3
  19  -1   8-2.35322 103.346   7
  19   1   8-164.526 159.689   7
  19  -1   8-134.644 142.473   4
 -19   1  -9 19764.8 1026.50   3
  19  -1   9 16792.5 1330.65   7
  19   1   9 18333.8 1374.81   7
  19  -1   9 18257.7 1221.17   4
 -19   1 -10 40.6575 74.6354   3
  19  -1  10 71.0211 192.799   7
  19   1  10-221.733 208.754   7
  19  -1  10 130.103 141.984   4
 -19   1 -11 8392.96 659.279   3
  19  -1  11 8374.59 974.886   7
  19   1  11 8730.02 992.336   7
  19  -1  11 8875.67 832.827   4
  19  -1  12 296.164 245.730   7
  19   1  12-6.37886 67.0853   7
  19   1  12 172.581 103.446   4
  19  -1  13 5677.34 830.543   7
  19   1  13 6454.23 882.081   7
  19  -1  14-48.3689 140.525   7
  19   1  14 29.3594 122.250   7
  19  -1  15 5675.32 874.157   7
  19   1  15 4527.44 757.470   7
  19  -1  16 237.409 242.538   7
  19   1  16 226.122 166.238   7
  19  -1  17 18383.4 1615.67   7
  19   1  17 18044.7 1556.09   7
  19  -1  18 32.1848 204.672   7
  19   1  18 202.308 143.317   7
  19  -1  19 3111.37 683.307   7
  19   1  19 3342.25 696.390   7
  19  -1  20 263.317 211.796   7
  19   1  20-74.4205 68.3577   7
  19   1  21 5248.04 906.351   7
  19  -1  21 4836.13 882.760   7
  19  -1  22-263.971 197.429   7
  19   1  22 385.938 290.377   7
 -19  -3  38 28.0266 90.8939   1
 -19  -3  37 2400.49 577.744   1
 -19  -3  36 104.329 129.402   1
 -19  -3  35 11456.3 1353.37   2
 -19   3  35 15039.9 1508.87   1
 -19  -3  35 12469.7 1295.84   1
 -19  -3  34-61.6689 104.453   2
 -19  -3  34 205.557 191.075   1
 -19   3  34 339.047 239.008   1
 -19  -3  33 7513.90 1073.19   2
 -19   3  33 9343.75 1151.13   1
 -19  -3  33 7570.39 955.788   1
 -19  -3  32 471.374 264.895   2
 -19  -3  32-103.641 150.073   1
 -19   3  32 213.226 229.871   1
 -19   3  31 4632.46 785.471   1
 -19  -3  31 4824.60 827.121   2
 -19  -3  31 4165.63 678.956   1
 -19  -3  30-56.5432 141.606   2
 -19  -3  30 262.977 215.157   1
 -19   3  30 197.600 211.971   1
 -19  -3  29 6846.90 978.963   2
 -19   3  29 6946.85 939.319   1
 -19  -3  29 6539.30 800.374   1
  19  -3 -29 7717.02 1110.00   4
 -19  -3  28 9.79823 53.5818   1
 -19  -3  28-130.435 175.079   2
 -19   3  28 247.969 166.708   1
  19  -3 -28 235.855 147.005   4
 -19  -3  27 12555.1 1287.21   2
 -19   3  27 12589.4 1230.37   1
 -19  -3  27 12720.6 1072.46   1
  19  -3 -27 11432.5 1327.90   4
 -19  -3  26-80.0034 117.065   1
 -19  -3  26-54.0262 79.5234   2
 -19   3  26-115.934 122.420   1
  19  -3 -26-37.1308 138.710   4
 -19  -3  25 4052.92 696.021   2
 -19  -3  25 3905.66 559.262   1
 -19   3  25 3293.24 604.880   1
  19  -3 -25 4320.94 811.766   4
 -19  -3  24 283.567 119.336   1
 -19  -3  24 139.057 142.881   2
 -19   3  24 145.789 188.807   1
  19  -3 -24-8.35689 199.642   4
 -19  -3  23 680.894 294.201   2
 -19   3  23 926.329 318.768   1
  19  -3 -23 297.468 203.644   4
 -19  -3  23 354.198 147.758   1
 -19  -3  22-25.6475 105.259   2
 -19   3  22-89.8320 165.173   1
 -19  -3  22 92.2409 112.461   1
  19  -3 -22 334.579 266.321   4
 -19   3  21 12922.9 1146.82   1
 -19  -3  21 12926.0 908.576   1
  19  -3 -21 10440.0 1239.36   4
 -19  -3  21 13500.6 1245.45   2
 -19  -3  20 201.545 202.384   2
 -19   3  20 31.2311 133.619   1
 -19  -3  20 23.2739 63.3214   1
  19  -3 -20-5.97072 91.9020   4
 -19   3  19 6987.16 821.052   1
 -19  -3  19 7360.18 657.093   1
  19  -3 -19 6217.99 953.282   4
 -19  -3  19 6015.44 819.637   2
 -19  -3  18 202.340 144.989   2
 -19   3  18-30.3877 75.2777   1
 -19  -3  18 18.4885 42.6316   1
  19  -3 -18 92.4986 157.708   4
 -19   3  17 8771.42 891.976   1
 -19  -3  17 9176.99 712.405   1
  19  -3 -17 8444.12 368.088   7
 -19   3  17 8804.97 917.248   6
  19  -3 -17 8168.36 1067.93   4
 -19  -3  17 8612.04 968.881   2
 -19  -3  16 1103.91 339.397   2
 -19   3  16 1058.32 300.185   1
 -19  -3  16 1453.86 273.176   1
  19  -3 -16 1350.57 171.474   7
 -19   3  16 1338.05 334.615   6
  19  -3 -16 1733.11 514.099   4
 -19   3  15 688.563 240.608   1
 -19  -3  15 1180.65 357.257   2
 -19  -3  15 986.907 215.777   1
  19  -3 -15 882.786 152.699   7
 -19   3  15 826.830 283.919   6
  19  -3 -15 712.838 325.928   4
 -19  -3  14 334.422 100.347   2
  19  -3 -14 666.726 160.087   2
  19  -3 -14 649.862 141.940   7
 -19   3  14 657.144 214.120   6
  19  -3 -14 490.445 259.022   4
 -19  -3  14 605.978 168.301   1
  19  -3 -13 16609.3 751.072   7
 -19   3  13 15981.4 1207.86   6
 -19  -3  13 14984.4 1286.66   2
  19  -3 -13 14755.7 1392.53   4
  19  -3 -13 15580.7 831.955   2
 -19  -3  12 200.052 133.634   2
  19  -3 -12 196.669 96.1313   2
  19  -3 -12 92.5197 76.3050   7
 -19   3  12-142.762 144.376   6
  19  -3 -12 77.4700 143.609   4
  19  -3 -11 6904.28 531.655   7
 -19   3  11 6385.74 763.720   6
 -19  -3  11 6440.35 850.164   2
  19  -3 -11 4026.91 463.349   2
  19  -3 -11 6071.79 877.775   4
 -19  -3  10-135.065 135.615   2
  19  -3 -10 24.5442 62.3494   7
 -19   3  10 87.7669 127.673   6
 -19  -3  10-118.524 109.250   6
  19   3 -10-83.6598 57.7562   1
  19  -3 -10 59.2326 105.179   4
  19   3  -9 33001.2 1121.68   1
  19  -3  -9 34056.9 1295.79   7
 -19   3   9 32274.1 1723.11   6
 -19  -3   9 34157.1 1478.79   6
 -19  -3   9 32265.8 1890.49   2
  19  -3  -9 33169.0 2045.96   4
  19   3  -8-67.6775 51.0703   1
  19  -3  -8 149.757 133.350   7
 -19   3   8-61.2728 112.830   6
 -19  -3   8 17.7672 100.293   6
  19  -3  -8 116.104 160.316   4
 -19  -3   8-95.4321 45.5623   2
  19  -3  -7 4554.74 505.835   7
 -19   3   7 4160.49 621.046   6
 -19  -3   7 4710.46 517.157   6
 -19   3   7 3630.16 558.352   3
 -19  -3   7 4827.00 735.447   2
  19   3  -7 3873.48 370.974   1
  19  -3  -7 4074.67 720.588   4
  19  -3  -6 244.986 132.199   7
  19   3  -6 265.189 92.8439   1
 -19   3   6 134.813 96.9340   6
 -19   3   6-149.548 149.641   3
  19  -3  -6 166.210 139.826   4
 -19  -3   6 194.092 182.490   2
  19  -3  -5 20320.7 1130.86   7
  19   3  -5 21679.0 887.256   1
 -19   3   5 19809.1 1283.36   3
 -19   3   5 20631.3 1369.60   6
 -19  -3   5 22779.8 1117.75   6
 -19  -3   5 19982.5 1487.01   2
  19  -3  -5 20500.5 1574.74   4
  19  -3  -4 290.527 153.302   7
 -19   3   4 134.793 84.8299   6
 -19  -3   4 564.645 170.495   6
 -19   3   4 97.7492 79.7972   3
 -19  -3   4 300.171 53.2722   2
  19  -3  -4 41.3173 85.4768   4
  19   3  -4 382.961 113.621   1
 -19  -3   3-45.6818 47.6971   3
  19  -3  -3 70.2294 128.018   7
 -19  -3   3-24.3602 110.064   6
 -19   3   3-2.10461 123.980   6
 -19   3   3 112.559 108.797   3
  19   3  -3 54.5262 45.5849   1
 -19  -3   3-36.0040 100.690   2
  19  -3  -3-41.3068 68.5316   4
 -19  -3   2 74.6934 62.7707   3
  19  -3  -2 272.644 158.452   7
  19   3  -2 106.497 65.6052   1
 -19   3   2-99.7196 127.504   3
 -19  -3   2 63.3949 98.8617   2
  19  -3  -2 327.289 246.271   4
 -19  -3   1 12387.2 696.506   3
  19  -3  -1 12420.1 969.824   7
 -19   3   1 11749.7 975.213   3
 -19  -3   1 12890.6 1204.27   2
  19  -3  -1 12943.9 1211.38   4
  19  -3   0 321.953 160.954   7
 -19   3   0 204.792 140.307   3
 -19  -3   0 195.849 88.8587   2
  19  -3   0 112.045 55.4367   4
  19  -3   1 1567.14 359.872   7
 -19   3  -1 1961.48 405.784   3
 -19  -3  -1 1965.47 466.656   2
  19  -3   1 1499.75 421.970   4
  19  -3   2 131.863 164.401   7
 -19   3  -2 59.5561 114.138   3
 -19  -3  -2 93.9212 66.3721   2
  19  -3   2 273.440 145.614   4
 -19   3  -3 14883.8 1118.13   3
  19  -3   3 14235.1 1133.95   7
 -19  -3  -3 14393.3 1303.03   2
  19  -3   4 93.4635 120.656   7
 -19   3  -4-21.7140 125.692   3
 -19  -3  -4-35.4682 133.170   2
  19  -3   5 266.786 136.334   7
 -19   3  -5 108.245 107.530   3
  19   3   5 299.444 164.141   7
 -19  -3  -5 558.299 275.116   2
  19  -3   6 95.2709 103.053   7
 -19   3  -6 23.5934 65.4149   3
  19   3   6 160.998 131.136   7
 -19   3  -7 15533.4 1173.85   3
  19  -3   7 13591.5 1206.95   7
  19   3   7 14321.5 1216.75   7
 -19   3  -8-35.5702 96.0254   3
  19   3   8-66.5097 58.9704   7
 -19   3  -9 18797.5 1308.85   3
  19  -3   9 18542.1 1461.08   7
  19   3   9 19951.0 1470.83   7
 -19   3 -10 153.753 117.100   3
  19  -3  10-31.2845 73.0400   7
  19   3  10-73.2832 152.261   7
 -19   3 -11 6451.42 763.082   3
  19  -3  11 6235.77 872.556   7
  19   3  11 6374.97 845.407   7
 -19   3 -12 320.217 173.106   3
  19  -3  12 665.910 308.640   7
  19   3  12 333.605 133.354   7
 -19   3 -13 4057.16 609.711   3
  19  -3  13 4189.62 746.979   7
  19   3  13 4063.92 692.686   7
 -19   3 -14 58.4799 74.8385   3
  19  -3  14 29.2250 88.5239   7
  19   3  14-42.5743 106.358   7
  19  -3  15 4072.23 764.291   7
  19   3  15 3892.14 718.938   7
  19  -3  16 265.067 211.685   7
  19   3  16 167.823 231.706   7
  19  -3  17 16401.7 1606.80   7
  19   3  17 17004.0 1527.93   7
  19  -3  18-105.293 208.529   7
  19   3  18 99.3716 153.175   7
  19  -3  19 2124.69 600.587   7
  19   3  19 3185.81 678.573   7
  19  -3  20 70.1612 175.259   7
  19   3  20 292.408 232.296   7
  19   3  21 5867.93 950.247   7
 -19  -5  35 5310.91 1039.76   2
 -19  -5  34 398.111 303.245   2
 -19  -5  33 708.697 365.811   2
 -19  -5  32-23.3533 138.619   2
 -19   5  32-104.179 71.5814   1
 -19  -5  31 2977.39 739.121   2
 -19   5  31 3049.42 669.264   1
 -19  -5  30 154.145 76.4012   2
 -19   5  30-134.478 117.253   1
 -19   5  29 5608.14 887.649   1
 -19  -5  29 4053.40 850.826   2
 -19  -5  28-267.400 253.770   2
 -19   5  28 28.6758 57.4498   1
 -19  -5  27 10002.8 1304.72   2
 -19   5  27 11815.1 1254.98   1
 -19  -5  26-161.926 345.932   2
 -19   5  26-175.210 102.290   1
 -19  -5  25 8601.53 1179.54   2
 -19   5  25 10632.6 1162.47   1
 -19   5  25 9394.93 1108.41   6
 -19   5  24 144.899 153.920   1
 -19  -5  24-115.259 161.663   2
 -19   5  24-8.28392 78.1067   6
 -19   5  23 1070.09 382.752   1
 -19  -5  23 36.4856 181.467   2
 -19   5  23 599.330 284.692   6
 -19   5  22-155.485 135.936   1
 -19  -5  22-54.5104 128.056   2
 -19   5  22 217.603 200.791   6
 -19   5  21 5919.54 843.124   1
 -19   5  21 6547.37 889.724   6
 -19  -5  21 7051.02 1026.15   2
 -19   5  20-97.6792 111.867   1
 -19  -5  20 78.0931 250.378   2
 -19   5  20-241.618 189.804   6
 -19   5  19 8769.07 998.665   1
 -19   5  19 8539.39 992.573   6
 -19  -5  19 8389.83 1110.84   2
 -19  -5  18 303.549 258.292   2
 -19   5  18-59.8850 161.101   6
 -19   5  18-103.375 161.160   1
 -19   5  17 9897.03 1050.41   6
 -19  -5  17 9345.92 1161.46   2
 -19  -5  16 905.263 351.199   2
 -19   5  16 1413.55 411.886   6
 -19   5  16 1087.63 342.983   3
 -19  -5  15 1402.54 472.487   2
 -19   5  15 976.016 329.407   6
 -19   5  15 1183.86 383.302   3
 -19  -5  14 116.672 213.925   2
 -19   5  14-67.1911 155.056   6
 -19   5  14 177.029 205.522   3
 -19   5  13 17699.5 1455.83   3
 -19   5  13 16820.6 1367.89   6
 -19  -5  13 15742.8 1495.78   2
 -19  -5  12 69.4154 162.503   2
 -19   5  12 44.9643 134.351   3
 -19   5  12 303.538 300.554   6
 -19  -5  11 1191.69 379.381   2
 -19   5  11 904.510 332.452   3
 -19   5  11 1310.63 401.066   6
 -19  -5  11 1315.81 277.995   6
 -19  -5  10 315.954 221.765   2
  19  -5 -10 35.7384 53.6208   7
 -19   5  10 38.4726 59.8130   3
 -19   5  10 80.9692 119.581   6
 -19  -5  10 51.9600 54.3189   6
  19  -5  -9 8859.06 670.470   7
 -19   5   9 8963.93 1030.19   3
 -19   5   9 8071.70 925.883   6
 -19  -5   9 9760.58 678.341   6
 -19  -5   9 9380.21 1171.15   2
 -19  -5   8 2.03226 83.2847   2
  19  -5  -8-115.164 76.1453   7
 -19   5   8-92.7881 137.096   3
 -19  -5   8 9.78290 24.1441   6
 -19  -5   7 550.561 286.341   2
  19  -5  -7 1183.60 271.109   7
 -19   5   7 1037.61 324.263   3
 -19   5   7 1085.29 331.697   6
 -19  -5   7 1153.11 203.402   6
  19  -5  -6 592.457 223.173   7
 -19   5   6 261.089 168.789   3
 -19  -5   6 211.982 65.1566   2
  19  -5  -5 9330.56 821.011   7
 -19   5   5 9008.94 999.814   3
 -19  -5   5 7918.70 1082.82   2
  19  -5  -4 63.9120 78.7256   7
 -19   5   4 48.1763 112.995   3
 -19  -5   4 44.6271 174.576   2
  19  -5  -3-174.815 140.357   7
 -19   5   3-14.0248 98.4040   3
 -19  -5   3 68.1783 65.4668   2
  19  -5  -2 119.846 246.874   7
 -19   5   2 30.2929 118.784   3
 -19  -5   2 10.8248 74.3876   2
  19  -5  -1 31994.2 1709.14   7
 -19   5   1 29703.8 1840.47   3
 -19  -5   1 29629.7 2092.60   2
  19  -5   0 35.5310 73.6531   7
 -19   5   0-46.5366 68.2264   3
 -19  -5   0-63.8266 140.488   2
  19  -5   1 6319.39 796.176   7
 -19   5  -1 5202.24 774.796   3
 -19  -5  -1 7188.08 1026.90   2
  19  -5   2 182.096 65.7404   7
 -19   5  -2-158.952 192.981   3
 -19  -5  -2 129.941 133.559   2
 -19   5  -3 12756.1 1226.16   3
  19  -5   3 12065.9 1139.54   7
 -19  -5  -3 11847.2 1333.53   2
  19  -5   4 99.3306 139.595   7
 -19   5  -4-7.22719 58.0697   3
 -19  -5  -4 33.2926 78.9804   2
  19  -5   5 189.296 187.118   7
 -19   5  -5 71.2106 162.441   3
 -19  -5  -5 260.688 164.865   2
  19  -5   6-220.253 199.915   7
 -19   5  -6-72.4859 84.3793   3
 -19  -5  -6 186.601 99.2744   2
 -19   5  -7 6199.35 876.998   3
  19  -5   7 4960.37 787.619   7
 -19  -5  -7 6103.62 936.762   2
  19  -5   8-88.0637 199.938   7
 -19   5  -8 109.191 134.473   3
  19   5   8 27.9440 75.3073   7
 -19  -5  -8 127.045 180.808   2
  19  -5   8 393.248 228.755   5
 -19   5  -9 6511.84 924.996   3
  19  -5   9 5935.96 907.259   7
  19   5   9 5463.90 819.827   7
  19  -5   9 4997.26 810.897   5
 -19   5 -10-143.638 131.270   3
  19  -5  10-163.017 142.449   7
  19   5  10-25.3122 138.787   7
  19  -5  10-7.33948 76.6645   5
  19  -5  11 5690.80 915.494   7
 -19   5 -11 4584.63 759.358   3
  19   5  11 6732.60 918.700   7
  19  -5  11 5678.56 849.750   5
 -19   5 -12 821.609 335.924   3
  19  -5  12 632.651 281.978   7
  19   5  12 617.881 251.579   7
  19  -5  12 240.830 100.187   5
 -19   5 -13 4252.77 759.484   3
  19  -5  13 5140.25 894.210   7
  19   5  13 5625.84 857.451   7
 -19   5 -14-43.2427 77.6790   3
  19   5  14 59.9613 66.7068   7
 -19   5 -15 3255.22 667.094   3
  19  -5  15 3326.14 767.747   7
  19   5  15 2734.82 613.650   7
 -19   5 -16-39.7337 137.593   3
  19  -5  16-49.8533 148.178   7
  19   5  16 54.5074 64.1797   7
  19  -5  17 13256.6 1527.55   7
  19   5  17 12977.9 1374.14   7
  19   5  18 45.8054 110.922   7
  19   5  19 683.850 346.301   7
  19  -7 -29 3494.48 907.699   5
  19  -7 -28-148.900 243.919   5
 -19   7  27 6990.87 1034.70   1
 -19   7  27 7092.59 1145.16   3
 -19   7  27 6441.21 962.192   6
  19  -7 -27 7925.14 1365.44   5
 -19   7  26-25.8741 76.2201   1
 -19   7  26 129.189 105.217   3
 -19   7  26-340.431 227.012   6
  19  -7 -26-203.970 224.069   5
 -19  -7  25 3505.39 840.915   2
 -19   7  25 3897.70 825.370   3
 -19   7  25 3401.53 697.003   6
  19  -7 -25 3629.60 902.562   5
 -19   7  25 4013.79 773.476   1
 -19  -7  24 8.61611 81.5082   2
 -19   7  24 21.7152 91.3901   3
 -19   7  24-167.332 138.710   6
  19  -7 -24-214.488 359.331   5
 -19  -7  23 672.272 291.143   2
 -19   7  23 894.952 377.428   3
 -19   7  23 674.190 330.658   6
  19  -7 -23 276.780 245.068   5
 -19  -7  22-49.2677 67.3946   2
 -19   7  22 56.8704 107.663   3
 -19   7  22 27.1965 86.3342   6
  19  -7 -22-154.848 233.223   5
 -19  -7  21 5455.35 1041.47   2
 -19   7  21 7913.69 1148.89   3
 -19   7  21 6859.91 968.424   6
  19  -7 -21 6575.15 1202.85   5
 -19  -7  20-350.728 262.685   2
 -19   7  20-6.80093 132.499   3
 -19   7  20 55.2669 177.197   6
 -19  -7  19 2678.36 696.388   2
 -19   7  19 4622.05 861.059   3
 -19   7  19 4291.57 762.428   6
 -19  -7  18-43.6793 73.0471   2
 -19   7  18 634.730 351.814   3
 -19   7  18 525.692 346.616   6
 -19   7  17 7985.55 1114.61   3
 -19   7  17 8376.58 1049.14   6
 -19  -7  17 7990.84 1222.18   2
 -19  -7  16 589.814 379.163   2
 -19   7  16 407.512 225.320   3
 -19   7  16 555.144 313.126   6
 -19  -7  15 518.128 298.738   2
 -19   7  15 287.849 237.992   3
 -19   7  15 414.115 244.426   6
 -19  -7  14-19.2589 83.7393   2
 -19   7  14 66.2384 61.8774   3
 -19   7  14-129.706 120.202   6
 -19   7  13 8795.71 1166.11   3
 -19   7  13 8062.47 984.732   6
 -19  -7  13 8061.96 1260.13   2
 -19  -7  12 259.924 260.980   2
 -19   7  12 98.0325 49.0937   3
 -19   7  12-146.669 203.999   6
 -19  -7  11 1693.93 569.222   2
 -19   7  11 1375.92 448.309   3
 -19  -7  10-14.0812 112.103   2
 -19   7  10-150.875 182.138   3
 -19   7   9 16071.8 1543.46   3
 -19  -7   9 15844.8 1734.21   2
 -19  -7   8-302.706 242.811   2
 -19   7   8 37.1644 142.426   3
 -19  -7   7 1646.20 549.965   2
 -19   7   7 1372.00 478.331   3
  19  -7  -7 1296.88 506.159   5
 -19  -7   6 327.071 309.610   2
 -19   7   6-46.3163 131.340   3
  19  -7  -6 178.946 242.195   5
 -19   7   5 9400.42 1204.36   3
 -19  -7   5 10245.9 1400.11   2
  19  -7  -5 11522.5 1484.46   5
 -19   7   4-5.56794 115.569   3
  19  -7  -4 82.2888 129.870   5
 -19   7   3-52.5004 204.636   3
  19  -7  -3 277.100 282.386   5
 -19  -7   3 61.0021 66.8459   2
 -19   7   2 91.4039 97.9472   3
  19  -7  -2 393.402 301.030   5
 -19  -7   2 276.588 303.486   2
 -19   7   1 8047.71 1109.67   3
 -19  -7   1 10358.7 1401.03   2
  19  -7  -1 8135.84 1223.75   5
 -19   7   0 114.931 209.143   3
  19  -7   0 25.3928 106.104   5
 -19  -7   0-325.818 293.119   2
  19  -7   1 1597.14 440.248   7
 -19   7  -1 1188.96 438.365   3
  19  -7   1 1400.09 493.863   5
 -19  -7  -1 1673.60 558.671   2
  19  -7   2 16.3417 120.191   7
 -19   7  -2 263.278 173.115   3
  19  -7   2-101.261 233.754   5
 -19  -7  -2-66.6699 151.488   2
 -19   7  -3 7153.78 1063.34   3
  19  -7   3 8216.46 1047.35   7
 -19  -7  -3 7488.78 1190.45   2
  19  -7   3 6698.84 1091.97   5
  19  -7   4 34.7461 80.7699   7
 -19   7  -4 241.361 202.186   3
 -19  -7  -4 20.3415 222.893   2
  19  -7   4-80.3641 112.306   5
  19  -7   5 130.101 124.479   7
 -19   7  -5 295.377 209.313   3
 -19  -7  -5 520.036 246.731   2
  19  -7   5 483.393 316.191   5
  19  -7   6-321.703 221.657   7
 -19   7  -6-47.2513 224.597   3
 -19  -7  -6 121.996 128.978   2
  19  -7   6 172.585 160.417   5
 -19   7  -7 7846.47 1136.89   3
  19  -7   7 8853.27 1183.53   7
 -19  -7  -7 9403.72 1305.65   2
  19  -7   7 7747.74 1169.87   5
  19  -7   8 24.9719 96.0460   7
 -19   7  -8 25.4875 98.2372   3
 -19  -7  -8 109.267 144.068   2
  19  -7   8 148.860 110.067   5
 -19   7  -9 8737.35 1215.57   3
  19  -7   9 9233.22 1276.22   7
  19   7   9 9222.77 1158.49   7
 -19  -7  -9 9675.39 1316.25   2
  19  -7   9 6730.05 1080.38   5
  19  -7  10 120.236 176.454   7
 -19   7 -10-126.529 258.475   3
  19   7  10 61.0214 159.290   7
 -19  -7 -10-156.017 199.232   2
  19  -7  10 289.118 224.377   5
 -19   7 -11 4986.81 936.623   3
  19  -7  11 3675.26 815.546   7
  19   7  11 4781.48 835.556   7
  19  -7  11 3972.36 820.691   5
 -19   7 -12 114.873 139.403   3
  19  -7  12 411.369 284.357   7
  19   7  12 125.184 111.355   7
  19   7  13 3038.86 656.049   7
 -20   0  38 355.972 184.448   1
 -20   0  37-102.070 102.614   1
 -20   0  36 3921.56 759.488   1
 -20   0  35-58.5591 162.279   1
 -20   0  34 2799.90 610.999   1
 -20   0  33-25.4330 143.561   1
  20   0 -33 113.819 204.398   4
 -20   0  32 13610.4 1322.81   1
  20   0 -32 15820.1 1463.49   4
 -20   0  31 71.9422 103.491   1
  20   0 -31 131.605 113.150   4
 -20   0  30 207.174 154.731   1
 -20   0  29-29.8576 72.1651   1
 -20   0  28 6093.49 802.779   1
 -20   0  28 4998.52 594.887   2
 -20   0  27-77.1656 89.4548   2
 -20   0  27 95.5145 116.507   1
 -20   0  26 7870.73 881.365   1
 -20   0  26 7446.29 714.805   2
 -20   0  25 158.165 115.915   2
 -20   0  25 55.0093 67.3420   1
 -20   0  24 21674.6 1395.85   1
 -20   0  24 22426.3 1248.88   2
 -20   0  23 43.9324 71.1563   2
 -20   0  23 21.9875 82.0480   1
 -20   0  22 14723.4 1110.38   1
 -20   0  22 18021.8 1112.97   2
 -20   0  21-82.6612 55.8480   1
 -20   0  21 34.2625 38.6899   2
 -20   0  20 313.489 143.897   1
 -20   0  20 296.385 133.552   2
 -20   0  19-44.0861 74.1756   1
 -20   0  19 221.417 184.108   2
 -20   0  18 20230.6 1229.42   1
 -20   0  18 22717.1 1239.71   2
 -20   0  17-42.4743 49.2684   1
 -20   0  17-108.412 81.0320   2
 -20   0  16 4465.68 562.872   1
 -20   0  16 4429.28 551.343   2
 -20   0  15-75.1180 66.5407   1
 -20   0  15 91.5810 99.0831   2
 -20   0  14 18133.4 1128.06   1
 -20   0  14 20735.6 1218.33   2
 -20   0  13-18.6600 30.6612   2
 -20   0  13 51.4098 63.6322   1
 -20   0  12 76.5146 97.4334   6
 -20   0  12-15.8990 54.6083   2
 -20   0  11 103.068 130.686   6
 -20   0  11 179.362 130.296   2
 -20   0  10 28567.8 1526.82   6
 -20   0  10 29597.8 1485.27   2
 -20   0   9-37.6794 72.4394   6
 -20   0   9-56.3125 95.4861   2
 -20   0   8 124.201 123.855   6
 -20   0   8 189.854 141.110   2
 -20   0   7-19.3380 50.3840   6
 -20   0   7-25.8434 85.0317   2
 -20   0   6 20206.9 1267.94   6
 -20   0   6 21268.6 1310.52   2
 -20   0   5-82.8576 150.799   6
  20   0  -4 916.940 270.220   7
 -20   0   4 890.765 258.277   6
  20   0  -3 146.735 123.201   7
 -20   0   3 8.97098 57.0929   6
  20   0  -2 16816.7 1143.04   7
 -20   0   2 15247.0 1087.08   6
  20   0  -1 11.9110 104.374   7
  20   0   0 903.043 270.118   7
 -20   0   0 1391.27 260.123   3
  20   0   1-58.8611 128.872   7
 -20   0  -1 81.9957 80.9408   3
 -20   0  -2 27806.1 1145.68   3
  20   0   2 24762.7 1462.59   7
  20   0   3-50.5451 150.247   7
 -20   0  -3-57.4338 40.6622   3
 -20   0  -4 13738.0 782.267   3
  20   0   4 13343.8 1109.92   7
 -20   0  -5-12.0334 36.3885   3
  20   0   5 43.9287 89.0475   7
 -20   0  -6 9915.83 638.609   3
  20   0   6 8341.63 907.634   7
  20   0   6 8321.43 910.667   4
 -20   0  -7-13.5972 30.2359   3
  20   0   7-77.7136 44.8746   4
 -20   0  -8 672.448 151.821   3
  20   0   8 628.401 254.706   7
  20   0   8 724.281 251.265   4
  20   0   9 49.0042 98.8285   7
  20   0   9 123.906 112.399   4
  20   0  10 3960.40 666.392   7
  20   0  10 4583.89 605.565   4
  20   0  11-105.838 236.667   7
  20   0  11 11.4074 75.3760   4
  20   0  12 8067.68 979.894   7
  20   0  13 18.0304 89.4415   7
  20   0  14 6176.90 890.431   7
  20   0  15 244.667 211.506   7
  20   0  16 6055.24 917.338   7
  20   0  17-9.37717 74.7054   7
  20   0  18 4275.41 787.094   7
  20   0  19-124.306 183.958   7
  20   0  20 28769.1 2141.73   7
  20   0  21 169.681 234.991   7
 -20  -2  38 235.630 158.098   1
 -20  -2  37-77.5164 47.7872   1
 -20   2  36 5655.35 930.431   1
 -20  -2  36 4452.98 806.125   1
 -20  -2  35-66.5754 220.167   1
 -20   2  35 93.2322 121.225   1
 -20  -2  34 1359.94 422.427   1
 -20   2  34 1806.82 524.436   1
 -20  -2  33-199.658 160.704   2
 -20  -2  33-119.411 64.5918   1
  20  -2 -33-99.4496 127.492   4
 -20  -2  32 17865.6 1494.99   2
 -20   2  32 20890.4 1678.02   1
 -20  -2  32 18791.7 1501.33   1
  20  -2 -32 19790.6 1730.66   4
 -20  -2  31-147.489 124.712   1
 -20  -2  31-163.774 156.445   2
 -20   2  31-0.60628 147.278   1
  20  -2 -31 8.39944 47.1222   4
 -20   2  30 6388.75 894.137   1
 -20  -2  30 4632.01 707.597   1
  20  -2 -30 4668.57 837.467   4
 -20  -2  30 4751.54 755.470   2
 -20  -2  29 84.3688 74.9592   1
 -20  -2  29-44.0500 188.427   2
 -20   2  29-37.3403 82.4732   1
  20  -2 -29 167.120 172.429   4
 -20  -2  28 3453.70 619.077   2
 -20  -2  28 4004.70 623.593   1
 -20   2  28 3775.44 678.538   1
  20  -2 -28 3827.24 744.897   4
 -20  -2  27 48.1008 98.7276   1
 -20  -2  27-140.697 169.282   2
 -20   2  27 74.8804 116.419   1
  20  -2 -27-26.0839 65.2741   4
 -20   2  26 7743.44 914.800   1
 -20  -2  26 6764.03 774.848   1
  20  -2 -26 6183.19 941.756   4
 -20  -2  26 6885.97 874.005   2
 -20  -2  25 158.662 103.875   2
 -20   2  25-75.5879 147.170   1
  20  -2 -25 216.844 189.301   4
 -20  -2  25 128.263 139.403   1
 -20   2  24 19152.9 1406.80   1
 -20  -2  24 17297.7 1181.48   1
  20  -2 -24 17011.4 1545.53   4
 -20  -2  24 19555.1 1451.70   2
 -20  -2  23-111.839 80.0321   2
 -20   2  23 57.6207 140.015   1
 -20  -2  23-33.5120 77.7116   1
  20  -2 -23 132.717 137.764   4
 -20  -2  22 3898.56 538.059   1
 -20  -2  22 3419.60 594.313   2
 -20   2  22 3101.92 550.222   1
  20  -2 -22 2892.88 618.834   4
 -20   2  21-20.7238 169.771   1
 -20  -2  21-144.220 123.904   1
  20  -2 -21 36.8432 55.0586   4
 -20  -2  20 1034.42 324.030   2
 -20   2  20 743.790 232.551   1
 -20  -2  20 825.720 231.796   1
  20  -2 -20 1237.42 416.005   4
 -20  -2  19 2.80518 64.1254   2
 -20   2  19-44.6113 105.328   1
 -20  -2  19-95.4376 93.6187   1
 -20   2  18 21440.9 1386.28   1
 -20  -2  18 20636.2 1148.25   1
 -20  -2  18 21077.7 1459.42   2
  20  -2 -18 18309.9 1551.61   4
 -20  -2  17 64.9479 89.3226   2
 -20   2  17-40.5564 161.581   1
 -20  -2  17 29.2305 47.0468   1
  20  -2 -17-16.3471 50.6236   7
  20  -2 -17 41.4467 158.515   4
 -20  -2  16 1376.43 369.474   2
 -20   2  16 1532.62 350.470   1
 -20  -2  16 1205.62 258.413   1
  20  -2 -16 1532.33 250.922   7
  20  -2 -16 1565.73 279.210   2
  20  -2 -16 924.606 319.708   4
 -20  -2  15 138.802 77.3117   2
 -20   2  15-20.5323 103.513   1
 -20  -2  15 154.617 121.265   1
  20  -2 -15 45.3497 30.5054   2
  20  -2 -15-25.7688 46.9245   7
 -20   2  15-144.689 191.899   6
  20  -2 -15 323.420 185.296   4
 -20  -2  14 36921.9 1474.22   1
  20  -2 -14 38905.0 1317.79   7
 -20   2  14 35659.3 1825.10   6
 -20  -2  14 38069.9 1944.36   2
  20  -2 -14 36003.5 2163.23   4
 -20   2  14 34260.1 1697.43   1
 -20  -2  13 2.32804 75.1817   2
  20  -2 -13-18.8278 47.8115   7
 -20   2  13-48.6328 67.5437   6
  20  -2 -12 226.410 80.3348   7
 -20   2  12 104.552 79.6684   6
  20  -2 -12 409.177 287.856   4
 -20  -2  12 84.5726 108.264   2
  20  -2 -11-8.96838 29.1224   7
 -20   2  11-0.84906 84.1363   6
 -20  -2  11-22.4410 104.204   6
 -20  -2  11-0.46002 84.1125   2
  20  -2 -10 26708.9 1209.20   7
 -20   2  10 24281.4 1482.57   6
 -20  -2  10 23813.6 1318.25   6
 -20  -2  10 23541.3 1520.96   2
  20  -2 -10 22657.6 1701.85   4
  20  -2  -9 61.7005 33.7758   7
 -20   2   9 219.239 95.2574   6
 -20  -2   9-214.919 202.248   6
 -20  -2   9 174.034 179.660   2
  20  -2  -9 311.411 279.591   4
  20  -2  -8 2837.69 416.682   7
 -20   2   8 2831.39 508.147   6
 -20  -2   8 2669.71 421.505   6
 -20  -2   8 2792.27 535.052   2
  20  -2  -8 3425.27 643.253   4
  20  -2  -7 125.191 109.827   7
 -20   2   7 66.9907 95.5427   6
 -20  -2   7 25.9220 60.4813   6
 -20  -2   7 44.7556 44.7210   2
  20  -2  -7 157.223 194.643   4
  20  -2  -6 21171.4 1168.91   7
 -20   2   6 20406.2 1337.20   6
 -20  -2   6 21452.6 1201.51   6
 -20  -2   6 20288.8 1434.36   2
  20  -2  -6 22204.0 1636.54   4
  20  -2  -5-72.5792 44.0098   7
 -20   2   5-35.5845 77.8297   6
 -20  -2   5 97.6774 106.539   6
 -20  -2   5 215.053 156.142   2
  20  -2  -5 207.144 188.973   4
  20  -2  -4 1979.55 374.067   7
 -20   2   4 2678.65 491.996   6
 -20  -2   4 2446.27 401.479   6
 -20   2   4 2496.93 429.424   3
 -20  -2   4 2016.84 446.929   2
  20  -2  -4 2159.49 484.869   4
  20  -2  -3-88.5356 91.6372   7
 -20   2   3 23.9948 160.695   6
 -20  -2   3-19.8710 78.8367   6
 -20   2   3-13.4416 62.1987   3
 -20  -2   3 19.0031 113.646   2
  20  -2  -3-64.8634 96.2388   4
  20  -2  -2 13831.2 1035.67   7
 -20   2   2 14639.4 1042.48   3
 -20  -2   2 13565.1 1200.23   2
  20  -2  -2 15370.8 1316.76   4
 -20  -2   1 0.21894 39.4447   3
  20  -2  -1-33.6984 104.320   7
 -20   2   1 71.8964 106.933   3
 -20  -2   1 50.1506 104.691   2
  20  -2  -1 132.364 170.245   4
 -20  -2   0 196.325 96.8634   3
  20  -2   0 99.5421 55.8450   7
 -20   2   0 230.094 146.416   3
 -20  -2   0 154.288 60.9519   2
  20  -2   0 50.3102 130.275   4
  20  -2   1-80.2202 119.935   7
 -20  -2  -1 28.4820 82.5901   2
  20  -2   1 239.200 197.387   4
 -20   2  -2 12653.5 956.605   3
  20  -2   2 12771.3 1062.83   7
 -20  -2  -2 14079.7 612.101   3
  20   2   2 12255.5 1063.56   7
 -20  -2  -2 13345.5 1226.24   2
  20  -2   2 12843.2 1178.31   4
  20  -2   3 137.678 151.788   7
 -20   2  -3 51.5494 121.188   3
  20   2   3 31.7263 85.6579   7
 -20  -2  -3 136.730 51.1152   3
  20  -2   3 70.0914 45.5332   4
 -20   2  -4 4082.80 548.439   3
  20  -2   4 4079.99 622.982   7
  20   2   4 3795.36 591.246   7
  20  -2   4 3742.14 629.096   4
 -20   2  -5 444.102 186.040   3
  20  -2   5 478.024 185.442   7
  20   2   5 181.063 128.061   7
  20  -2   5 294.710 166.862   4
 -20   2  -6 9855.43 858.283   3
  20  -2   6 9445.38 989.453   7
  20   2   6 9752.33 995.267   7
  20  -2   6 9245.94 965.030   4
 -20   2  -7 213.776 130.027   3
  20  -2   7 469.524 212.822   7
  20   2   7 265.810 179.194   7
  20  -2   7 192.978 179.588   4
 -20   2  -8 1699.31 357.072   3
  20  -2   8 1311.20 364.739   7
  20   2   8 1536.43 394.352   7
 -20   2  -9 130.151 110.169   3
  20  -2   9-24.6810 69.3920   7
  20   2   9-66.9791 114.699   7
 -20   2 -10 9574.05 834.139   3
  20  -2  10 9704.56 1070.58   7
  20   2  10 9382.82 1036.32   7
 -20   2 -11-101.512 104.360   3
  20  -2  11-70.0503 97.2060   7
  20   2  11-125.464 218.005   7
 -20   2 -12 18026.7 1157.44   3
  20  -2  12 17842.7 1522.33   7
  20   2  12 17814.4 1474.98   7
  20  -2  13 109.052 134.510   7
  20   2  13 228.065 181.780   7
  20  -2  14 5314.76 865.962   7
  20   2  14 5429.16 848.751   7
  20  -2  15 180.318 194.433   7
  20   2  15 136.208 114.888   7
  20  -2  16 1773.51 504.009   7
  20   2  16 2127.45 544.109   7
  20  -2  17 10.7647 155.310   7
  20   2  17 750.534 424.038   7
  20  -2  18 2214.70 601.767   7
  20   2  18 2548.71 608.628   7
  20  -2  19-307.245 323.375   7
  20   2  19-80.6270 223.289   7
  20  -2  20 15066.5 1609.47   7
  20   2  20 15020.0 1532.28   7
  20   2  21 346.678 261.500   7
 -20  -4  36 3341.91 785.317   2
 -20  -4  35-106.535 118.097   2
 -20  -4  34 656.235 347.784   2
 -20   4  34 1131.09 412.889   1
 -20  -4  33 25.0328 71.2813   2
 -20   4  33 94.7086 131.122   1
 -20  -4  32 11048.8 1381.46   2
 -20   4  32 13010.2 1367.18   1
 -20  -4  32 11733.5 1128.70   1
 -20  -4  31 23.7467 87.8927   1
 -20  -4  31 290.725 169.127   2
 -20   4  31 378.084 252.739   1
 -20  -4  30 1862.55 427.499   1
 -20  -4  30 1497.75 494.463   2
 -20   4  30 2301.28 559.887   1
 -20  -4  29-214.380 164.819   1
 -20  -4  29-50.2386 196.738   2
 -20   4  29-14.4095 117.924   1
 -20  -4  28 3559.39 745.888   2
 -20  -4  28 3415.47 543.300   1
 -20   4  28 3840.15 709.428   1
 -20  -4  27-46.7048 86.2899   1
 -20  -4  27 64.0547 147.012   2
 -20   4  27-272.673 228.377   1
 -20  -4  26 5220.66 872.653   2
 -20   4  26 6970.09 922.038   1
 -20  -4  26 5895.81 672.558   1
 -20  -4  25-96.1335 100.751   2
 -20   4  25 135.417 166.759   1
 -20  -4  25-99.5278 82.9040   1
 -20   4  24 16926.5 1412.49   1
 -20  -4  24 16113.1 1046.97   1
 -20  -4  24 16017.1 1505.24   2
 -20  -4  23 153.700 85.3897   2
 -20   4  23 101.318 154.330   1
 -20  -4  23-103.081 83.5884   1
 -20   4  22 8897.08 1006.35   1
 -20  -4  22 9888.94 779.056   1
 -20  -4  22 10357.3 1199.18   2
 -20  -4  21 373.438 210.719   2
 -20   4  21 109.826 172.139   1
 -20  -4  21 153.828 82.6876   1
 -20   4  21 26.2111 61.3010   6
  20  -4 -21 303.877 178.005   4
 -20   4  20 1476.54 395.395   1
 -20  -4  20 1516.64 433.838   2
 -20  -4  20 1664.90 302.655   1
 -20   4  20 1234.33 357.101   6
  20  -4 -20 888.867 415.458   4
 -20   4  19-90.9328 51.3614   1
 -20  -4  19 69.0172 156.098   2
 -20  -4  19-14.1159 50.7686   1
 -20   4  19-205.012 185.670   6
  20  -4 -19-148.597 215.456   4
 -20   4  18 12388.1 1139.88   1
 -20  -4  18 14543.7 867.623   1
 -20   4  18 13313.8 1232.69   6
  20  -4 -18 12700.5 1431.13   4
 -20  -4  18 12832.7 1304.59   2
 -20  -4  17-76.4628 61.8853   1
 -20  -4  17 13.4444 82.4170   2
 -20   4  17-55.5568 76.8088   6
  20  -4 -17-55.6797 121.402   4
 -20   4  17 89.3867 45.0004   1
 -20  -4  16 2690.67 601.816   2
 -20   4  16 2590.94 534.965   6
  20  -4 -16 1911.46 540.854   4
 -20  -4  15 12.7528 122.614   2
 -20   4  15 173.938 167.813   6
  20  -4 -15 65.1795 194.463   4
 -20   4  14 20314.0 1483.81   6
  20  -4 -14 19105.7 1699.23   4
 -20  -4  14 18354.4 1543.12   2
 -20  -4  13-79.0273 151.458   2
  20  -4 -13 186.585 79.6527   7
 -20   4  13-56.6260 102.247   6
  20  -4 -13 19.6025 74.7904   4
 -20  -4  12-66.4574 70.6036   2
  20  -4 -12 34.8135 39.1060   7
 -20   4  12 16.1444 92.9719   6
  20  -4 -12 100.261 120.205   4
 -20  -4  11 81.3992 55.0240   2
  20  -4 -11 50.0381 70.1620   7
 -20   4  11 45.5218 94.5316   6
 -20   4  11-77.0295 164.616   3
 -20  -4  11-59.2871 117.168   6
  20  -4 -11 140.081 215.609   4
  20  -4 -10 20024.4 987.406   7
 -20   4  10 19570.3 1439.72   3
 -20   4  10 18342.0 1389.47   6
 -20  -4  10 20205.8 1129.93   6
 -20  -4  10 19649.0 1611.51   2
  20  -4 -10 18125.9 1630.46   4
 -20  -4   9 150.347 151.178   2
  20  -4  -9-21.2011 52.5809   7
 -20   4   9-233.377 167.468   6
 -20   4   9-125.913 137.724   3
 -20  -4   9-103.686 82.7085   6
  20  -4  -9-84.7927 174.311   4
  20  -4  -8 1220.35 257.188   7
 -20   4   8 1238.49 348.330   6
 -20   4   8 1398.25 386.476   3
 -20  -4   8 1366.98 278.786   6
  20  -4  -8 1212.17 400.458   4
 -20  -4   8 1429.88 438.735   2
  20  -4  -7 39.0192 62.1613   7
 -20   4   7-21.3373 78.3145   6
 -20   4   7-34.3339 61.7991   3
 -20  -4   7 98.3689 42.3775   6
  20  -4  -7 255.686 188.322   4
 -20  -4   7 243.247 221.180   2
  20  -4  -6 16080.6 1029.97   7
 -20   4   6 14769.6 1225.18   3
 -20   4   6 16163.6 1280.49   6
 -20  -4   6 17278.2 933.138   6
 -20  -4   6 16059.9 1434.89   2
  20  -4  -5 119.319 110.613   7
 -20   4   5 158.402 78.6473   6
 -20  -4   5-70.7815 81.6649   6
 -20   4   5-0.46562 94.4603   3
 -20  -4   5-199.211 134.310   2
  20  -4  -4 1470.99 326.868   7
 -20   4   4 875.623 301.897   3
 -20  -4   4 1130.70 380.781   2
  20  -4  -3 91.2480 111.828   7
 -20   4   3-45.8440 93.4028   3
 -20  -4   3-82.5569 117.368   2
  20  -4  -2 11386.0 970.483   7
 -20   4   2 10772.0 1029.50   3
 -20  -4   2 10851.9 1195.08   2
  20  -4  -1 135.435 139.420   7
 -20   4   1-145.546 172.646   3
 -20  -4   1 52.7319 112.288   2
  20  -4   0 12.1912 67.3674   7
 -20   4   0 266.168 199.810   3
 -20  -4   0 200.784 201.231   2
  20  -4   1-55.8322 69.7059   7
 -20   4  -1-77.8263 116.058   3
 -20  -4  -1-93.0982 153.797   2
  20  -4   2 17292.4 1301.52   7
 -20   4  -2 17112.3 1331.15   3
 -20  -4  -2 18469.3 1593.11   2
  20  -4   3 166.662 152.048   7
 -20   4  -3-150.414 172.022   3
 -20  -4  -3-122.594 139.023   2
 -20   4  -4 4338.09 683.143   3
  20  -4   4 5316.78 749.741   7
 -20  -4  -4 6029.12 903.084   2
  20  -4   5 39.9925 55.5747   7
 -20   4  -5 24.7419 64.8752   3
 -20  -4  -5-10.2440 95.1929   2
 -20   4  -6 8408.76 961.164   3
  20  -4   6 8939.88 1028.05   7
  20   4   6 8858.72 1002.44   7
 -20  -4  -6 10042.9 1169.32   2
 -20   4  -7 236.294 184.096   3
  20  -4   7 177.902 66.5713   7
  20   4   7 209.116 68.4361   7
 -20   4  -8 581.939 247.422   3
  20  -4   8 528.245 270.642   7
  20   4   8 399.925 168.189   7
 -20   4  -9 57.5691 118.190   3
  20  -4   9-111.333 164.799   7
  20   4   9-99.8229 134.101   7
 -20   4 -10 5235.06 766.313   3
  20  -4  10 4867.77 794.451   7
  20   4  10 4699.33 768.423   7
 -20   4 -11-107.927 162.112   3
  20  -4  11 43.6432 75.1222   7
  20   4  11-134.020 63.2993   7
 -20   4 -12 9199.48 1025.35   3
  20  -4  12 9654.60 1186.35   7
  20   4  12 8513.70 1050.35   7
 -20   4 -13 218.261 220.537   3
  20  -4  13 221.509 224.823   7
  20   4  13 9.68506 120.936   7
 -20   4 -14 3752.31 661.478   3
  20  -4  14 5008.50 882.508   7
  20   4  14 4214.20 759.632   7
  20  -4  15 80.3023 150.507   7
  20   4  15 145.455 188.734   7
  20  -4  16 3650.16 787.675   7
  20   4  16 3216.85 695.672   7
  20  -4  17 120.629 143.470   7
  20   4  17 107.230 204.464   7
  20  -4  18 2902.15 727.871   7
  20   4  18 3540.01 751.786   7
  20   4  19-262.958 255.666   7
 -20   6  32 7044.50 1064.51   6
 -20   6  31-126.081 95.9900   6
 -20  -6  30 1134.11 501.333   2
 -20   6  30 703.374 339.942   6
 -20   6  29 2.83181 74.3823   1
 -20  -6  29 83.2095 169.696   2
 -20   6  29-200.026 235.350   3
 -20   6  29 189.932 192.721   6
 -20   6  28 2959.46 661.735   1
 -20  -6  28 2588.24 689.665   2
 -20   6  28 2925.41 720.180   3
 -20   6  28 2738.56 642.845   6
 -20   6  27 150.940 199.269   1
 -20  -6  27-244.151 205.837   2
 -20   6  27 138.198 225.767   3
 -20   6  27-171.038 137.640   6
 -20   6  26 6140.35 935.997   1
 -20  -6  26 5785.58 1049.43   2
 -20   6  26 6333.02 1043.27   3
 -20   6  26 4960.28 847.330   6
 -20   6  25 24.2206 136.574   1
 -20  -6  25 89.7241 160.922   2
 -20   6  25 411.827 299.970   3
 -20   6  25 98.7800 186.384   6
 -20   6  24 13844.7 1375.73   1
 -20   6  24 13168.4 1479.54   3
 -20   6  24 12178.1 1302.60   6
 -20  -6  24 12101.8 1485.21   2
 -20   6  23 249.495 248.382   1
 -20  -6  23-167.263 199.063   2
 -20   6  23-477.837 280.100   3
 -20   6  23 177.052 207.303   6
 -20   6  22 11535.4 1363.45   3
 -20   6  22 10611.4 1187.93   6
 -20  -6  22 10535.2 1378.22   2
 -20  -6  21 327.099 235.769   2
 -20   6  21 317.680 246.995   3
 -20   6  21 76.0114 198.919   6
 -20  -6  20 1203.89 459.664   2
 -20   6  20 1013.29 389.767   3
 -20   6  20 914.108 328.825   6
 -20  -6  19-34.5967 187.101   2
 -20   6  19 47.2452 209.473   3
 -20   6  19 224.983 268.227   6
 -20   6  18 9674.20 1218.70   3
 -20   6  18 9886.75 1140.06   6
 -20  -6  18 9258.20 1254.49   2
 -20  -6  17 139.627 323.777   2
 -20   6  17-165.224 160.169   3
 -20   6  17-225.634 62.1269   6
 -20  -6  16 2061.90 620.322   2
 -20   6  16 2503.35 594.695   3
 -20   6  16 3511.06 673.150   6
 -20  -6  15 265.561 319.473   2
 -20   6  15 50.3016 149.298   3
 -20   6  15 106.484 137.625   6
 -20   6  14 12820.3 1358.70   3
 -20   6  14 10380.4 1142.45   6
 -20  -6  14 11940.5 1421.51   2
 -20  -6  13 371.863 324.903   2
 -20   6  13 337.122 169.113   3
 -20   6  13 9.07842 242.178   6
 -20  -6  12 312.684 204.520   2
 -20   6  12-80.7252 55.8499   3
 -20   6  12 129.985 157.652   6
 -20  -6  11 283.459 247.941   2
 -20   6  11 95.8699 74.4271   3
 -20   6  11 168.665 191.562   6
 -20   6  10 15039.9 1424.99   3
 -20   6  10 14046.0 1293.83   6
 -20  -6  10 13980.4 1558.35   2
 -20  -6   9 365.874 264.559   2
 -20   6   9 60.9412 123.731   3
 -20   6   9 0.54638 216.799   6
 -20  -6   8 753.489 394.266   2
 -20   6   8 870.427 320.883   3
 -20  -6   7-143.506 193.933   2
 -20   6   7-68.7811 176.869   3
 -20   6   6 11323.4 1234.18   3
 -20  -6   6 11290.8 1389.77   2
 -20   6   5 371.197 254.118   3
 -20  -6   5 297.289 294.272   2
  20  -6  -4 1002.25 296.132   7
 -20   6   4 833.652 333.220   3
 -20  -6   4 653.213 342.911   2
  20  -6  -3 26.9121 83.5031   7
 -20   6   3-149.050 180.240   3
 -20  -6   3 158.232 120.994   2
  20  -6  -2 9523.98 973.799   7
 -20   6   2 8767.96 1092.14   3
 -20  -6   2 9116.20 1253.21   2
  20  -6  -1 114.952 116.024   7
 -20   6   1-50.4403 202.055   3
 -20  -6   1-23.2055 126.152   2
  20  -6   0-14.3771 121.543   7
 -20   6   0-47.6416 153.745   3
 -20  -6   0-28.9979 128.674   2
  20  -6   1 10.6978 49.0735   7
 -20   6  -1-252.125 221.457   3
 -20  -6  -1-20.2700 187.795   2
  20  -6   2 16394.7 1403.02   7
 -20   6  -2 14842.8 1437.50   3
 -20  -6  -2 15286.0 1635.07   2
  20  -6   3 308.934 249.471   7
 -20   6  -3-131.017 162.524   3
 -20  -6  -3-190.341 261.944   2
  20  -6   3 441.892 314.188   5
 -20   6  -4 5308.09 877.055   3
  20  -6   4 5450.23 837.265   7
  20  -6   4 5535.91 953.359   5
 -20  -6  -4 5350.99 960.044   2
  20  -6   5-78.9394 46.1313   7
 -20   6  -5-144.089 140.421   3
 -20  -6  -5-57.0268 119.935   2
  20  -6   5 144.372 189.358   5
 -20   6  -6 7241.05 1035.51   3
  20  -6   6 8661.71 1109.82   7
 -20  -6  -6 8491.04 1209.89   2
  20  -6   6 7702.30 1103.67   5
  20  -6   7-212.865 170.829   7
 -20   6  -7 140.517 152.851   3
 -20  -6  -7-283.663 271.436   2
  20  -6   7 347.704 274.751   5
  20  -6   8 58.5963 110.637   7
 -20   6  -8 439.762 278.311   3
  20   6   8 786.216 296.723   7
 -20  -6  -8 598.250 304.288   2
  20  -6   8 397.902 252.606   5
 -20   6  -9 469.268 273.884   3
  20  -6   9 116.931 172.781   7
  20   6   9-28.7943 67.4021   7
 -20  -6  -9 155.924 166.619   2
  20  -6   9 269.383 212.066   5
 -20   6 -10 3519.49 728.294   3
  20  -6  10 3043.03 706.031   7
  20   6  10 3938.72 742.992   7
  20  -6  10 2435.72 594.245   5
 -20   6 -11-304.112 248.619   3
  20  -6  11-227.229 72.3284   7
  20   6  11-21.6214 129.354   7
  20  -6  11 185.424 171.011   5
 -20   6 -12 5526.58 930.363   3
  20  -6  12 4582.27 882.167   7
  20   6  12 5585.91 900.432   7
 -20   6 -13-176.677 168.787   3
  20  -6  13 375.263 289.706   7
  20   6  13-106.193 213.570   7
 -20   6 -14 2301.01 599.040   3
  20  -6  14 3057.01 751.206   7
  20   6  14 2432.19 598.691   7
 -20   6 -15 125.479 144.933   3
  20   6  15-139.582 172.792   7
 -20   8  19-386.928 236.782   6
 -20   8  18 10424.5 1374.13   3
 -20   8  18 7961.02 1056.60   6
  20  -8 -18 8699.34 1451.36   5
 -20   8  17 332.416 290.760   3
 -20   8  17 220.081 178.170   6
  20  -8 -17-162.487 221.064   5
 -20  -8  16 1351.78 528.043   2
 -20   8  16 1642.87 543.899   3
 -20   8  16 1232.82 416.423   6
  20  -8 -16 1960.08 675.664   5
 -20  -8  15-96.3761 206.822   2
 -20   8  15 470.349 322.706   3
  20  -8 -15 60.8477 186.503   5
 -20   8  14 13285.6 1545.56   3
  20  -8 -14 12478.5 1696.74   5
 -20  -8  14 11829.0 1604.66   2
 -20  -8  13 146.735 112.124   2
 -20   8  13-1.63526 93.7295   3
  20  -8 -13-218.894 206.640   5
 -20   8  12 297.421 269.805   3
  20  -8 -12-183.511 255.948   5
 -20   8  11-37.3872 119.766   3
  20  -8 -11 80.5624 170.658   5
 -20   8  10 10943.4 1394.80   3
  20  -8 -10 8147.01 1321.34   5
 -20  -8  10 11395.0 1584.05   2
 -20  -8   9-63.1060 190.912   2
 -20   8   9-156.324 197.598   3
  20  -8  -9-232.550 232.748   5
 -20  -8   8 2505.55 747.550   2
 -20   8   8 2316.89 628.096   3
  20  -8  -8 2682.27 794.063   5
 -20  -8   7-175.085 135.275   2
 -20   8   7 134.603 145.501   3
  20  -8  -7-147.597 321.435   5
 -20   8   6 9288.80 1275.45   3
  20  -8  -6 9881.10 1474.08   5
 -20  -8   6 8083.35 1334.13   2
 -20   8   5 79.2194 93.4373   3
 -20  -8   5-37.0502 99.8920   2
 -20   8   4 1676.34 551.048   3
  20  -8  -4 1822.10 649.699   5
 -20  -8   4 1364.90 545.040   2
 -20   8   3 76.2634 149.446   3
  20  -8  -3-39.0173 66.9037   5
 -20  -8   3-39.9539 237.530   2
 -20   8   2 6993.24 1126.73   3
 -20  -8   2 6969.78 1237.50   2
  20  -8  -2 7781.59 1302.57   5
 -20   8   1-50.5564 118.881   3
  20  -8  -1 20.7243 237.428   5
 -20  -8   1 189.975 180.530   2
 -20   8   0 284.527 273.739   3
  20  -8   0-15.7088 77.4611   5
 -20  -8   0 324.029 280.345   2
 -20   8  -1-89.0225 49.0430   3
  20  -8   1-126.306 151.827   5
 -20  -8  -1-113.124 110.717   2
 -20  -8  -2 7193.56 1263.10   2
  20  -8   2 5872.70 1093.62   5
  20  -8   3 96.0738 90.6173   5
 -20  -8  -3 181.970 202.553   2
 -20  -8  -4 1775.88 610.364   2
  20  -8   4 1127.87 410.301   5
  20  -8   5 316.094 231.975   5
  20  -8   6 5890.45 1099.38   5
  20  -8   7-84.4090 235.382   5
 -21  -1  38 427.496 227.550   1
 -21   1  37 21262.4 1821.94   1
 -21  -1  37 19885.2 1728.86   1
 -21  -1  36 135.455 108.850   1
 -21   1  36-21.9569 152.894   1
 -21  -1  35 138.964 95.2259   1
 -21   1  35 49.2452 120.240   1
 -21  -1  34 48.8785 70.9367   1
  21  -1 -34 148.772 158.466   4
 -21   1  34 7.89273 56.8821   1
 -21   1  33 6048.93 905.119   1
 -21  -1  33 4804.70 786.693   1
  21  -1 -33 6450.55 973.416   4
 -21  -1  32-57.4814 100.562   1
 -21   1  32-212.457 181.440   1
  21  -1 -32-110.825 129.743   4
 -21  -1  31 2040.65 481.786   1
 -21   1  31 2306.47 526.170   1
  21  -1 -31 2876.55 631.647   4
 -21  -1  30-214.329 157.970   1
 -21  -1  30-9.12424 75.0756   2
 -21   1  30 89.0273 103.172   1
 -21   1  29 12196.1 1196.51   1
 -21  -1  29 9882.28 1023.53   1
  21  -1 -29 12516.7 1337.38   4
 -21  -1  29 11355.0 1041.92   2
 -21  -1  28 66.3934 96.8408   2
 -21   1  28 133.833 172.566   1
 -21  -1  28 40.6034 98.8784   1
  21  -1 -28 121.134 187.538   4
 -21   1  27 4385.72 687.576   1
 -21  -1  27 4719.45 682.602   1
  21  -1 -27 4990.11 848.701   4
 -21  -1  26-70.3463 82.4109   2
 -21   1  26 256.514 173.696   1
 -21  -1  26-21.8664 67.0751   1
  21  -1 -26 55.7449 133.104   4
 -21  -1  25 2569.45 486.314   2
 -21   1  25 2736.65 523.591   1
 -21  -1  25 3074.02 523.766   1
  21  -1 -25 3213.91 682.200   4
 -21  -1  24 24.5681 72.5114   2
 -21   1  24 117.961 133.606   1
 -21  -1  24 168.988 136.870   1
 -21   1  24-19.7327 34.7898   2
  21  -1 -24 262.054 259.332   4
 -21   1  23 5379.16 717.967   1
 -21  -1  23 5428.61 671.821   1
 -21   1  23 5496.93 518.601   2
 -21  -1  23 5924.32 724.402   2
  21  -1 -23 5892.19 909.383   4
 -21  -1  22-68.9186 109.821   2
 -21   1  22-10.3531 44.6826   1
 -21  -1  22-82.4365 85.0495   1
 -21   1  22-20.2761 29.8826   2
 -21   1  21 13351.9 1100.38   1
 -21  -1  21 15151.5 1073.20   1
 -21   1  21 16699.3 932.043   2
 -21  -1  21 16361.6 1213.59   2
 -21  -1  20 14.0646 103.559   2
 -21   1  20-28.2916 65.8339   1
 -21  -1  20-49.1826 86.0967   1
 -21   1  20 36.3647 53.7486   2
 -21   1  19 13236.2 1066.16   1
 -21  -1  19 14416.7 1023.89   1
 -21   1  19 15770.9 927.441   2
 -21  -1  19 16333.1 1206.30   2
 -21   1  18-15.8029 84.5696   1
 -21  -1  18-130.018 116.353   1
 -21   1  18 95.9407 69.7200   2
 -21  -1  18 7.81322 60.9926   2
 -21   1  17 2027.51 405.278   1
 -21  -1  17 2180.15 385.851   1
 -21   1  17 2303.13 362.127   2
 -21  -1  17 1799.20 381.236   2
 -21   1  16 97.7166 53.4044   1
 -21  -1  16 45.4507 67.8457   1
 -21   1  16 106.146 95.9052   2
 -21  -1  16 293.281 177.871   2
 -21   1  15 15154.2 1105.98   1
 -21  -1  15 16439.0 1060.00   1
 -21   1  15 15948.1 1222.65   6
 -21   1  15 17791.7 1033.74   2
 -21  -1  15 15437.6 1163.00   2
 -21   1  14 59.3183 104.627   2
 -21  -1  14 188.697 151.481   2
 -21   1  13 1622.54 387.690   6
 -21  -1  13 1991.43 403.702   2
 -21   1  12-13.1375 112.687   6
 -21  -1  12 36.2974 87.0490   2
 -21   1  11 20201.6 1342.83   6
 -21  -1  11 19644.6 1268.97   6
 -21  -1  11 19910.2 1340.49   2
  21  -1 -10 101.161 34.8874   7
 -21   1  10 173.696 161.300   6
 -21  -1  10 21.8593 93.0970   6
 -21  -1  10 13.0867 94.9394   2
  21  -1  -9-52.5746 104.951   7
 -21   1   9 10.0236 86.4152   6
 -21  -1   9-53.2439 61.4034   6
 -21  -1   9 17.4968 123.672   2
  21  -1  -8-64.9554 62.4389   7
 -21   1   8-135.622 104.996   6
 -21  -1   8 27.7480 86.3752   6
 -21  -1   8 69.0299 69.1813   2
  21  -1  -7 21756.7 1231.28   7
 -21   1   7 22975.1 1420.85   6
 -21  -1   7 22625.9 1336.86   6
 -21  -1   7 21067.4 1401.55   2
  21  -1  -6-85.1914 90.2389   7
 -21   1   6 114.834 77.3603   6
 -21  -1   6 130.245 112.516   6
 -21  -1   6 124.948 118.943   2
  21  -1  -5 843.334 249.010   7
 -21   1   5 354.431 216.711   6
 -21  -1   5 492.258 176.899   6
 -21  -1   5 522.692 222.973   2
  21  -1  -4-29.9110 69.0685   7
 -21   1   4-101.156 135.455   6
 -21  -1   4-73.8288 71.7313   6
 -21  -1   4-92.8898 117.683   2
  21  -1  -3 34096.4 1644.72   7
 -21   1   3 32913.3 1710.64   6
 -21  -1   3 32444.4 1556.61   6
 -21  -1   3 34090.4 1830.00   2
  21  -1  -2 100.040 134.307   7
 -21   1   2 27.0819 77.5921   3
 -21  -1   2-50.2999 125.309   2
  21  -1  -2-38.1451 127.208   4
  21  -1  -1 2290.60 429.587   7
  21   1  -1 2203.30 444.212   7
 -21   1   1 2038.00 366.904   3
  21  -1  -1 2498.00 558.881   4
  21  -1   0 118.289 145.711   7
  21   1   0-119.685 133.789   7
 -21   1   0 53.3653 93.9318   3
  21  -1   0-32.3089 93.1414   4
  21  -1   1 9873.23 942.939   7
 -21   1  -1 10307.0 801.568   3
  21   1   1 9563.57 943.318   7
 -21  -1  -1 10359.7 655.875   3
  21  -1   1 11345.4 1141.17   4
  21  -1   2 87.8350 122.100   7
  21   1   2-43.9497 124.584   7
 -21   1  -2-36.6518 63.2656   3
 -21  -1  -2 23.7120 37.7882   3
  21  -1   2 56.7435 118.398   4
 -21   1  -3 2462.83 386.244   3
 -21  -1  -3 2645.33 302.257   3
  21  -1   3 2696.77 506.493   7
  21   1   3 2583.78 493.853   7
  21  -1   3 2714.67 537.692   4
 -21  -1  -4-1.90684 19.6383   3
  21  -1   4 130.820 109.307   7
 -21   1  -4 0.85399 58.0237   3
  21   1   4-55.7853 163.635   7
  21  -1   4-120.687 143.159   4
 -21   1  -5 13695.5 914.447   3
  21  -1   5 12891.9 1150.91   7
  21   1   5 13094.8 1155.36   7
  21  -1   5 14455.3 1228.16   4
 -21   1  -6 149.475 112.989   3
  21  -1   6-18.7180 91.8864   7
  21   1   6 142.375 145.901   7
  21  -1   6-90.7980 168.871   4
 -21   1  -7 9938.27 770.853   3
  21  -1   7 8613.92 971.964   7
  21   1   7 8131.43 934.214   7
  21  -1   7 8288.20 904.597   4
 -21   1  -8 115.732 100.472   3
  21  -1   8 146.243 155.351   7
  21   1   8 8.76892 114.363   7
  21  -1   8 0.44654 47.3817   4
 -21   1  -9 10275.3 762.245   3
  21  -1   9 9326.57 1046.45   7
  21   1   9 9265.67 1033.30   7
  21  -1   9 10007.6 963.178   4
  21  -1  10-64.2637 95.0913   7
  21   1  10-185.545 169.219   7
  21  -1  10 144.724 110.530   4
  21  -1  11 725.898 279.150   7
  21   1  11 1239.11 377.607   7
  21  -1  11 790.012 245.076   4
  21   1  11 997.248 283.071   4
  21  -1  12 333.486 257.959   7
  21   1  12 375.622 222.370   7
  21  -1  13 7442.93 1011.19   7
  21   1  13 7903.88 1016.61   7
  21  -1  14 31.8670 58.7848   7
  21   1  14-89.5992 154.469   7
  21  -1  15 13324.3 1398.95   7
  21   1  15 12337.1 1312.28   7
  21  -1  16 185.431 220.908   7
  21   1  16-128.665 175.531   7
  21  -1  17 3582.95 747.420   7
  21   1  17 4082.08 769.155   7
  21  -1  18-58.9471 183.004   7
  21   1  18-56.6570 62.3222   7
  21  -1  19 3890.15 808.538   7
  21   1  19 3787.38 778.065   7
  21  -1  20 0.79735 129.762   7
  21   1  20-74.2252 126.408   7
 -21  -3  38 391.574 239.851   1
 -21  -3  37 18526.4 1613.17   1
 -21  -3  36-130.875 105.901   1
 -21  -3  35 272.401 153.032   1
 -21   3  35 461.709 294.812   1
 -21  -3  34-89.3697 108.933   1
 -21  -3  34 19.9625 68.1329   2
 -21   3  34 141.952 172.913   1
 -21   3  33 8198.13 1095.49   1
 -21  -3  33 6807.29 900.403   1
 -21  -3  33 6942.81 1027.40   2
 -21  -3  32-46.7158 90.3051   1
 -21  -3  32-174.602 163.911   2
 -21   3  32 86.9825 85.7149   1
 -21  -3  31 2567.73 535.174   1
 -21  -3  31 1850.45 497.670   2
 -21   3  31 2057.85 549.966   1
  21  -3 -31 1770.44 546.073   4
 -21  -3  30 76.9342 75.5887   1
 -21  -3  30-84.6241 47.8675   2
 -21   3  30 19.1907 103.548   1
  21  -3 -30-144.847 194.993   4
 -21   3  29 12434.0 1267.34   1
 -21  -3  29 11232.4 1041.69   1
  21  -3 -29 10345.3 1319.32   4
 -21  -3  29 10426.6 1200.17   2
 -21  -3  28-555.564 275.240   2
 -21   3  28-447.433 238.308   1
  21  -3 -28-218.594 158.353   4
 -21  -3  28-165.468 93.9441   1
 -21  -3  27 3218.50 663.286   2
 -21   3  27 2567.86 574.893   1
  21  -3 -27 2235.85 592.916   4
 -21  -3  27 2790.55 486.681   1
 -21  -3  26 63.7639 91.0367   2
 -21   3  26 90.7675 118.785   1
 -21  -3  26-17.3758 69.9801   1
  21  -3 -26 105.498 100.769   4
 -21  -3  25 1276.10 405.499   2
 -21   3  25 1300.29 381.131   1
 -21  -3  25 995.447 281.609   1
  21  -3 -25 730.807 302.519   4
 -21  -3  24-141.343 164.770   2
 -21   3  24 84.5170 86.3898   1
 -21  -3  24-33.6711 83.9548   1
  21  -3 -24-210.872 170.997   4
 -21   3  23 4804.55 728.087   1
 -21  -3  23 4779.89 585.277   1
  21  -3 -23 4385.80 814.017   4
 -21  -3  23 4619.87 767.561   2
 -21  -3  22-31.2198 76.7181   2
 -21   3  22 43.1356 82.2044   1
 -21  -3  22 84.4320 100.829   1
  21  -3 -22-72.0906 81.3303   4
 -21   3  21 15445.8 1277.65   1
 -21  -3  21 14860.4 990.747   1
  21  -3 -21 13981.6 1456.70   4
 -21  -3  21 15064.4 1355.09   2
 -21  -3  20 58.2034 202.333   2
 -21   3  20-11.0561 133.004   1
 -21  -3  20-2.39282 74.4203   1
  21  -3 -20 59.9909 186.462   4
 -21   3  19 10371.8 1024.97   1
 -21  -3  19 11934.4 858.891   1
 -21   3  19 10688.1 1099.50   6
  21  -3 -19 9712.38 1213.76   4
 -21  -3  19 11715.0 1198.90   2
 -21  -3  18-164.651 140.172   2
 -21   3  18 16.7412 52.1064   1
 -21  -3  18 154.114 109.042   1
 -21   3  18-112.111 103.133   6
  21  -3 -18-108.041 151.652   4
 -21  -3  17 2852.51 412.421   1
 -21   3  17 2417.60 465.720   1
 -21  -3  17 2550.04 552.667   2
  21  -3 -17 2472.47 260.057   7
 -21   3  17 2250.50 491.832   6
  21  -3 -17 2439.58 623.170   4
 -21  -3  16-111.103 108.838   2
  21  -3 -16 207.520 85.4874   7
 -21   3  16 251.378 134.139   6
  21  -3 -16 112.581 163.525   4
 -21  -3  16 203.217 125.196   1
  21  -3 -15 19468.8 837.834   7
 -21   3  15 17579.7 1359.29   6
 -21  -3  15 19034.8 1499.61   2
  21  -3 -15 18559.8 1656.45   4
 -21  -3  14 144.735 144.654   2
  21  -3 -14 55.5057 60.2266   7
 -21   3  14-89.3588 74.7981   6
  21  -3 -14 151.265 189.471   4
 -21  -3  13 2557.22 559.374   2
  21  -3 -13 2461.65 329.742   7
 -21   3  13 2292.20 484.465   6
  21  -3 -13 2097.84 543.006   4
 -21  -3  12-83.6587 85.0980   2
  21  -3 -12 62.0334 101.917   7
 -21   3  12 25.1716 81.9795   6
 -21  -3  12-125.127 134.159   6
  21  -3 -12-241.780 211.530   4
  21  -3 -11 25636.9 1159.30   7
 -21   3  11 23522.6 1553.88   6
 -21  -3  11 24056.9 1350.13   6
 -21  -3  11 23601.6 1674.54   2
  21  -3 -11 21826.6 1772.77   4
  21  -3 -10 634.585 195.367   7
 -21   3  10 406.324 261.010   6
 -21  -3  10 681.624 239.920   6
  21  -3 -10 594.938 305.694   4
 -21  -3  10 727.818 299.335   2
  21  -3  -9 76.7580 52.0059   7
 -21   3   9 277.404 120.873   6
 -21  -3   9 88.5791 40.9477   6
  21  -3  -9-179.679 105.045   4
 -21  -3   9 204.590 220.040   2
  21  -3  -8 109.320 150.967   7
 -21   3   8 440.258 260.682   6
 -21  -3   8-52.0786 113.880   6
 -21  -3   8-221.490 119.391   2
  21  -3  -8 220.996 171.662   4
  21  -3  -7 24253.6 1273.00   7
 -21   3   7 23765.0 1490.60   3
 -21   3   7 24313.2 1549.67   6
 -21  -3   7 25953.2 1325.00   6
 -21  -3   7 24813.2 1713.31   2
  21  -3  -7 23125.0 1780.84   4
  21  -3  -6 102.150 78.6361   7
 -21   3   6 59.7347 93.4703   6
 -21  -3   6 14.4558 68.1720   6
 -21   3   6 8.16076 80.8111   3
 -21  -3   6 200.633 92.9336   2
  21  -3  -6 200.436 218.304   4
  21  -3  -5 1998.67 388.419   7
 -21   3   5 1522.54 396.762   6
 -21  -3   5 2377.80 382.132   6
 -21   3   5 1831.48 419.504   3
 -21  -3   5 2405.46 530.954   2
  21  -3  -5 2237.69 537.818   4
  21  -3  -4 118.396 110.249   7
 -21   3   4-130.163 186.185   6
 -21  -3   4-62.7433 105.018   6
 -21   3   4 67.5771 88.4987   3
 -21  -3   4-140.421 212.112   2
  21  -3  -3 19087.5 1231.79   7
 -21   3   3 16645.5 1209.58   3
 -21  -3   3 18007.9 1490.90   2
  21  -3  -3 18664.1 1569.21   4
  21  -3  -2 16.3219 92.9393   7
 -21   3   2 68.8870 77.2824   3
 -21  -3   2 140.406 46.5919   2
  21  -3  -2 116.836 225.257   4
  21  -3  -1 2726.14 477.141   7
 -21   3   1 2704.92 482.808   3
 -21  -3   1 2608.64 557.606   2
  21  -3  -1 2738.54 591.571   4
  21  -3   0 38.9089 117.400   7
 -21   3   0 89.1639 122.069   3
 -21  -3   0 120.314 85.0960   2
  21  -3   0 45.5413 90.0519   4
  21  -3   1 7313.23 834.863   7
 -21   3  -1 7387.95 816.420   3
 -21  -3  -1 7341.70 957.290   2
  21  -3   1 6926.98 928.641   4
  21  -3   2 324.217 204.668   7
 -21   3  -2 144.184 76.1634   3
 -21  -3  -2-222.193 210.960   2
  21  -3   2 116.767 153.060   4
  21  -3   3 1967.10 454.074   7
 -21   3  -3 1935.78 418.180   3
 -21  -3  -3 1113.77 381.192   2
  21  -3   4 34.6591 143.948   7
 -21   3  -4-71.7458 117.285   3
  21   3   4-98.7625 185.208   7
 -21  -3  -4-52.6566 95.2132   2
 -21   3  -5 14206.9 1144.54   3
  21  -3   5 14549.2 1264.23   7
  21   3   5 14737.6 1275.38   7
 -21   3  -6 10.0219 83.0238   3
  21  -3   6 180.105 205.859   7
  21   3   6 251.363 190.030   7
 -21   3  -7 11406.2 1042.20   3
  21  -3   7 10241.9 1093.42   7
  21   3   7 9264.00 1028.61   7
 -21   3  -8 71.3790 131.227   3
  21  -3   8-94.0948 106.926   7
  21   3   8-79.7494 122.716   7
 -21   3  -9 13233.6 1123.03   3
  21  -3   9 12667.6 1272.51   7
  21   3   9 13736.6 1276.50   7
 -21   3 -10 352.997 203.978   3
  21  -3  10 51.1239 113.891   7
  21   3  10 262.842 153.040   7
 -21   3 -11 916.809 287.830   3
  21  -3  11 1279.11 439.612   7
  21   3  11 475.537 250.189   7
 -21   3 -12 203.602 149.813   3
  21  -3  12 76.0839 168.718   7
  21   3  12 115.088 141.916   7
  21  -3  13 6356.55 967.546   7
  21   3  13 6169.83 907.592   7
  21  -3  14-56.1228 158.285   7
  21   3  14 110.261 85.9362   7
  21  -3  15 12472.2 1408.39   7
  21   3  15 13087.9 1368.71   7
  21  -3  16-218.490 183.177   7
  21   3  16 185.169 108.854   7
  21  -3  17 3660.86 773.594   7
  21   3  17 3239.37 694.229   7
  21  -3  18-242.854 290.247   7
  21   3  18 328.421 191.133   7
  21   3  19 1852.12 536.970   7
 -21  -5  34-196.078 201.301   2
 -21  -5  33 1801.99 560.701   2
 -21  -5  32 120.460 80.3550   2
 -21  -5  31 1314.86 497.847   2
 -21   5  31 1625.46 494.688   1
 -21  -5  30-78.0909 215.278   2
 -21   5  30 101.121 189.453   1
 -21   5  29 12236.2 1329.54   1
 -21  -5  29 9084.08 1273.41   2
 -21  -5  28-120.664 266.378   2
 -21   5  28-11.9748 73.2251   1
 -21   5  28-172.408 153.641   6
 -21  -5  27 3454.14 770.742   2
 -21   5  27 3407.64 674.019   1
 -21   5  27 3857.44 749.014   6
 -21   5  26-46.3202 72.8212   1
 -21  -5  26-14.3558 218.414   2
 -21   5  26 64.0150 103.929   6
 -21   5  25 3054.75 643.473   1
 -21  -5  25 3188.53 724.224   2
 -21   5  25 3120.09 649.477   6
 -21   5  24-15.8464 53.9519   1
 -21  -5  24-44.0217 116.603   2
 -21   5  24 159.373 221.947   6
 -21   5  23 6613.62 918.211   1
 -21   5  23 5474.78 849.969   6
 -21  -5  23 6382.75 1024.84   2
 -21   5  22-43.8760 97.2785   1
 -21  -5  22 303.776 171.940   2
 -21   5  22-15.8230 154.336   6
 -21   5  21 14146.3 1324.49   1
 -21   5  21 13362.5 1311.54   6
 -21  -5  21 13843.2 1485.91   2
 -21  -5  20 307.588 302.857   2
 -21   5  20 90.0993 311.436   6
 -21   5  19 9787.70 1117.15   6
 -21  -5  19 9948.27 1245.26   2
 -21  -5  18 78.5289 126.899   2
 -21   5  18-58.9346 234.155   6
 -21  -5  17 492.394 270.443   2
 -21   5  17 667.538 306.807   6
 -21   5  17 968.416 366.555   3
 -21  -5  16 553.069 275.235   2
 -21   5  16 93.8511 82.3722   6
 -21   5  16 240.281 204.875   3
 -21   5  15 17636.6 1528.12   3
 -21   5  15 16311.7 1416.60   6
 -21  -5  15 16269.9 1568.65   2
 -21  -5  14 280.037 170.852   2
 -21   5  14 129.005 179.669   6
 -21   5  14 113.351 168.971   3
 -21   5  13 6156.28 904.507   3
 -21   5  13 6576.59 892.758   6
 -21  -5  13 6997.60 698.636   6
 -21  -5  13 6994.49 1037.13   2
 -21  -5  12 25.1106 174.684   2
 -21   5  12-225.692 203.515   6
 -21   5  12-126.825 173.008   3
 -21  -5  12 12.1731 85.4342   6
 -21   5  11 8894.80 1054.74   3
 -21   5  11 8576.89 1001.75   6
 -21  -5  11 9946.17 784.984   6
 -21  -5  11 9504.97 1219.67   2
 -21  -5  10 193.135 236.582   2
 -21   5  10 186.037 91.0256   6
 -21   5  10 413.509 256.224   3
 -21  -5   9 167.658 180.692   2
 -21   5   9 56.3286 94.5389   3
 -21   5   9-71.4016 146.754   6
  21  -5  -8 98.4719 90.0188   7
 -21   5   8 12.3975 102.562   3
 -21   5   8 9.07095 128.269   6
 -21  -5   8-192.310 225.225   2
  21  -5  -7 18048.2 1126.64   7
 -21   5   7 15853.6 1380.59   3
 -21   5   7 16772.0 1393.26   6
 -21  -5   7 14968.5 1517.78   2
  21  -5  -6 3.86031 82.2483   7
 -21   5   6 145.239 58.7739   3
  21  -5  -5 277.758 104.356   7
 -21   5   5 841.852 326.954   3
 -21  -5   5 794.236 336.506   2
  21  -5  -4 28.4393 85.7656   7
 -21   5   4-47.7966 73.8588   3
 -21  -5   4-99.8259 125.322   2
  21  -5  -3 24248.4 1475.73   7
 -21   5   3 22838.9 1664.62   3
 -21  -5   3 22432.9 1865.13   2
  21  -5  -2 339.393 167.477   7
 -21   5   2 197.710 154.395   3
 -21  -5   2 130.069 163.119   2
  21  -5  -1 3692.92 604.858   7
 -21   5   1 3219.17 627.597   3
 -21  -5   1 3107.46 692.942   2
  21  -5   0 385.965 223.175   7
 -21   5   0-19.7800 169.201   3
 -21  -5   0-119.300 173.584   2
  21  -5   1 16029.7 1322.83   7
 -21   5  -1 13592.5 1296.48   3
 -21  -5  -1 15204.4 1557.72   2
  21  -5   2 160.764 171.902   7
 -21   5  -2 51.0820 159.747   3
 -21  -5  -2 124.890 197.679   2
  21  -5   3 749.099 308.744   7
 -21   5  -3 168.623 138.202   3
 -21  -5  -3 541.665 282.496   2
  21  -5   4 134.739 124.370   7
 -21   5  -4 4.71751 95.0484   3
 -21  -5  -4-59.7190 162.410   2
 -21   5  -5 6659.36 925.704   3
  21  -5   5 6485.28 901.489   7
 -21  -5  -5 6439.05 1006.53   2
  21  -5   6-89.0484 50.2325   7
 -21   5  -6-51.0224 102.638   3
 -21  -5  -6 95.7961 143.686   2
 -21   5  -7 7391.83 989.831   3
  21  -5   7 7746.92 1028.98   7
  21   5   7 8659.20 1064.92   7
 -21  -5  -7 9130.88 1205.91   2
 -21   5  -8-51.8983 140.647   3
  21  -5   8-191.799 127.255   7
  21   5   8 98.4923 143.663   7
  21  -5   8 36.2361 68.8089   5
 -21   5  -9 8490.59 1054.79   3
  21  -5   9 6826.37 999.373   7
  21   5   9 8385.88 1062.66   7
  21  -5   9 7054.42 993.960   5
 -21   5 -10 123.443 176.337   3
  21  -5  10 22.7315 86.9065   7
  21   5  10-140.684 182.467   7
  21  -5  10-174.097 108.702   5
 -21   5 -11 297.483 206.390   3
  21  -5  11 168.853 67.9185   7
  21   5  11 542.433 264.628   7
 -21   5 -12-76.9432 52.2868   3
  21   5  12 72.6832 88.3899   7
 -21   5 -13 5614.36 882.520   3
  21  -5  13 6905.95 1076.52   7
  21   5  13 6628.82 987.344   7
 -21   5 -14 187.458 162.714   3
  21  -5  14 317.382 257.876   7
  21   5  14 295.868 229.970   7
  21  -5  15 7930.61 1194.53   7
  21   5  15 6877.92 1026.96   7
  21   5  16-284.741 248.735   7
 -21   7  28-144.748 106.509   6
 -21   7  27 1994.03 579.607   6
  21  -7 -27 2423.98 758.757   5
 -21   7  26 48.2957 107.211   6
  21  -7 -26 262.755 330.734   5
 -21   7  25 1075.74 443.710   3
 -21   7  25 1245.83 438.922   6
  21  -7 -25 1015.89 456.767   5
 -21  -7  24 186.716 286.200   2
 -21   7  24 0.86012 117.815   3
 -21   7  24 291.053 212.914   6
 -21  -7  23 3883.63 873.808   2
 -21   7  23 4081.51 854.870   3
 -21   7  23 3883.21 779.945   6
 -21  -7  22 144.834 189.757   2
 -21   7  22 233.095 256.695   3
 -21   7  22-207.247 191.818   6
 -21   7  21 15326.7 1653.59   3
 -21   7  21 11137.9 1309.00   6
 -21  -7  21 12361.1 1585.48   2
 -21  -7  20 20.7130 83.3855   2
 -21   7  20-11.3403 99.1735   3
 -21  -7  19 4745.91 978.873   2
 -21   7  19 5936.02 1009.00   3
 -21   7  19 5470.10 898.798   6
 -21  -7  18 42.6667 156.344   2
 -21   7  18 93.7813 170.721   3
 -21   7  18-122.971 201.377   6
 -21  -7  17 1641.71 569.876   2
 -21   7  17 1279.23 453.052   3
 -21   7  17 916.642 358.635   6
 -21  -7  16-175.885 154.938   2
 -21   7  16 212.810 190.003   3
 -21   7  16 6.49705 181.442   6
 -21   7  15 12853.5 1442.56   3
 -21   7  15 12726.7 1348.10   6
 -21  -7  15 13070.6 1602.95   2
 -21  -7  14 92.0342 67.7224   2
 -21   7  14-201.957 216.869   3
 -21   7  14-35.4183 325.501   6
 -21  -7  13 5515.40 1034.53   2
 -21   7  13 5524.41 939.738   3
 -21   7  13 4140.95 745.309   6
 -21  -7  12 427.190 320.825   2
 -21   7  12 763.845 373.553   3
 -21   7  11 10932.9 1329.58   3
 -21  -7  11 12978.6 1609.64   2
 -21  -7  10-27.8066 164.369   2
 -21   7  10 107.632 136.381   3
 -21  -7   9 104.254 106.270   2
 -21   7   9 6.61626 178.442   3
 -21  -7   8 327.909 252.022   2
 -21   7   8 303.276 308.284   3
 -21   7   7 15623.5 1575.21   3
 -21  -7   7 16690.7 1820.61   2
 -21   7   6-181.455 149.164   3
 -21  -7   6-101.666 113.171   2
 -21   7   5 1393.99 444.917   3
 -21  -7   5 1537.54 546.025   2
 -21   7   4-505.510 283.382   3
  21  -7  -4 206.387 218.885   5
 -21   7   3 9388.34 1224.71   3
 -21  -7   3 9987.06 1418.74   2
  21  -7  -3 10093.5 1407.35   5
 -21   7   2 84.1126 192.187   3
  21  -7  -2-118.730 146.379   5
 -21  -7   2 164.289 208.474   2
 -21   7   1 1944.71 551.985   3
  21  -7  -1 3105.88 765.800   5
 -21  -7   1 2329.02 692.252   2
 -21   7   0 129.552 264.637   3
  21  -7   0 116.575 95.5245   5
 -21  -7   0 221.273 282.245   2
 -21   7  -1 8389.16 1176.05   3
 -21  -7  -1 8980.16 1343.90   2
  21  -7   1 7875.73 1214.40   5
 -21   7  -2 155.518 178.165   3
 -21  -7  -2 213.695 187.538   2
  21  -7   2-21.3748 213.473   5
 -21  -7  -3 758.120 401.427   2
  21  -7   3 129.191 130.586   5
  21  -7   4 58.6969 148.281   7
 -21   7  -4-130.324 90.2412   3
 -21  -7  -4-218.018 211.829   2
  21  -7   4 70.3580 74.4627   5
 -21   7  -5 7685.50 1141.52   3
  21  -7   5 7608.84 1078.28   7
 -21  -7  -5 10242.2 1423.50   2
  21  -7   5 7482.36 1204.05   5
  21  -7   6 5.96257 141.212   7
 -21   7  -6 404.938 316.016   3
 -21  -7  -6 116.638 134.891   2
  21  -7   6 37.3227 140.793   5
 -21   7  -7 6961.28 1109.93   3
  21  -7   7 6481.06 1035.07   7
 -21  -7  -7 7634.39 1233.22   2
  21  -7   7 5445.00 1012.24   5
  21  -7   8-68.6713 109.400   7
 -21   7  -8 137.480 233.372   3
  21   7   8-125.938 138.352   7
 -21  -7  -8-94.2401 90.8537   2
  21  -7   8 225.858 185.667   5
 -21   7  -9 7448.42 1143.15   3
  21  -7   9 8471.45 1225.83   7
  21   7   9 8624.06 1167.32   7
  21  -7   9 8105.97 1201.50   5
  21  -7  10 370.666 321.053   7
 -22   0  37 186.854 218.750   1
 -22   0  36 1985.72 533.084   1
 -22   0  35 38.6360 47.8427   1
 -22   0  34 12701.7 1313.73   1
  22   0 -34 11702.8 1323.99   4
 -22   0  33 40.0170 56.8967   1
  22   0 -33 250.330 180.436   4
 -22   0  32 576.994 276.694   1
  22   0 -32 960.388 389.621   4
 -22   0  31 49.4775 72.2380   1
 -22   0  30 2853.54 576.199   1
 -22   0  29 138.320 167.057   1
 -22   0  28 1919.52 451.058   1
 -22   0  27 27.2091 111.748   1
 -22   0  26 22730.3 1499.59   1
 -22   0  26 22503.1 1282.32   2
 -22   0  25 73.6355 150.166   1
 -22   0  25 181.234 138.828   2
 -22   0  24 12675.2 1088.85   1
 -22   0  24 13820.1 1006.65   2
 -22   0  23-121.142 121.370   1
 -22   0  23 30.7607 61.1691   2
 -22   0  22 4592.84 634.408   1
 -22   0  22 4883.52 589.915   2
 -22   0  21 2.80821 84.9014   1
 -22   0  21-56.2717 76.3726   2
 -22   0  20 11157.4 958.598   1
 -22   0  20 12173.6 941.900   2
 -22   0  19 50.1194 60.8535   1
 -22   0  19 177.515 124.416   2
 -22   0  18 12234.0 989.190   1
 -22   0  18 12892.7 980.375   2
 -22   0  17-48.9305 114.384   1
 -22   0  17-2.47363 42.3956   2
 -22   0  16 2787.92 467.503   1
 -22   0  16 3354.64 514.325   2
 -22   0  15-4.70617 60.7817   2
 -22   0  14 1325.15 347.670   6
 -22   0  14 1148.37 297.517   2
 -22   0  13 293.636 189.738   6
 -22   0  13 51.6564 86.8494   2
 -22   0  12 8260.30 856.688   6
 -22   0  12 8195.56 815.489   2
 -22   0  11-6.75645 82.6787   6
 -22   0  11 135.549 86.6514   2
 -22   0  10 2541.12 490.295   6
 -22   0  10 3137.64 509.805   2
 -22   0   9 36.8834 120.727   6
 -22   0   9-197.430 172.314   2
 -22   0   8 16415.6 1233.78   6
 -22   0   8 17366.3 1228.33   2
 -22   0   7 14.8490 49.2572   6
 -22   0   6 168.106 187.424   6
  22   0  -5 66.8176 77.4026   7
 -22   0   5 55.9777 100.854   6
  22   0  -4 15066.8 1116.33   7
 -22   0   4 17005.5 1220.14   6
  22   0  -3-77.2577 126.719   7
 -22   0   3-44.0646 85.5107   6
  22   0  -2 1296.15 337.956   7
  22   0  -1-158.512 110.479   7
 -22   0   1 49.6684 42.2491   3
  22   0   0 28880.1 1636.29   7
 -22   0   0 29501.8 1293.68   3
  22   0   1 149.632 146.445   7
 -22   0  -1 8.83760 61.6217   3
 -22   0  -2 4477.79 482.246   3
  22   0   2 4084.25 628.799   7
  22   0   3 53.0022 79.7855   7
 -22   0  -3-33.5392 66.6340   3
 -22   0  -4 29521.3 1204.32   3
  22   0   4 26207.3 1650.67   7
 -22   0  -5 3.26802 19.9547   3
  22   0   5 84.4767 159.305   7
  22   0   5-67.5411 63.0301   4
 -22   0  -6 395.037 127.768   3
  22   0   6 234.768 117.908   7
  22   0   6 585.361 215.780   4
  22   0   7 163.215 146.355   7
  22   0   7 19.7242 96.2396   4
  22   0   8 8057.59 994.460   7
  22   0   8 7563.80 872.354   4
  22   0   9 217.589 231.240   7
  22   0   9 13.5737 124.283   4
  22   0  10 7348.72 966.806   7
  22   0  10 6521.57 782.476   4
  22   0  11-301.472 229.469   7
  22   0  12 8587.73 1074.63   7
  22   0  13 150.210 219.362   7
  22   0  14 2480.74 587.443   7
  22   0  15-33.5433 123.722   7
  22   0  16 7363.95 1071.08   7
  22   0  17 187.881 176.990   7
  22   0  18 18391.4 1736.25   7
  22   0  19 231.749 272.728   7
 -22  -2  38 3452.19 729.014   1
 -22  -2  37 110.069 181.853   1
 -22  -2  36 640.683 314.911   1
 -22   2  36 26.2500 67.0517   1
 -22  -2  35 231.790 177.153   1
 -22   2  35-38.1185 95.4902   1
 -22   2  34 19750.9 1693.89   1
 -22  -2  34 16175.8 1447.53   1
  22  -2 -34 16546.5 1647.80   4
 -22  -2  33 10.8644 80.6276   1
  22  -2 -33-326.977 231.097   4
 -22  -2  32 1855.25 457.557   1
 -22  -2  32 1326.68 421.638   2
 -22   2  32 2210.29 543.777   1
  22  -2 -32 1926.69 550.311   4
 -22  -2  31 62.5277 169.208   2
 -22   2  31 25.3698 120.560   1
  22  -2 -31-52.8841 127.343   4
 -22  -2  31 16.1517 87.8904   1
 -22   2  30 5093.43 806.916   1
 -22  -2  30 5725.05 773.512   1
 -22  -2  30 5034.32 775.225   2
  22  -2 -30 4026.08 806.244   4
 -22  -2  29-251.255 174.959   2
 -22   2  29 149.577 176.059   1
 -22  -2  29 46.4005 113.807   1
  22  -2 -29 193.385 170.688   4
 -22   2  28 4376.88 738.395   1
 -22  -2  28 3908.45 678.114   2
 -22  -2  28 3632.67 589.845   1
  22  -2 -28 3445.90 739.730   4
 -22  -2  27 94.4735 87.3118   2
 -22   2  27 127.455 178.083   1
 -22  -2  27 132.049 151.880   1
  22  -2 -27-87.0917 136.959   4
 -22   2  26 15433.6 1328.79   1
 -22  -2  26 13538.6 1094.23   1
  22  -2 -26 14133.0 1470.33   4
 -22  -2  26 16020.9 1362.23   2
 -22  -2  25 162.810 150.426   2
 -22   2  25-56.1700 96.3615   1
 -22  -2  25-1.98284 52.0182   1
  22  -2 -25 153.193 159.900   4
 -22  -2  24 2739.92 557.432   2
 -22   2  24 2238.22 487.025   1
 -22  -2  24 2243.90 424.792   1
  22  -2 -24 1994.04 538.538   4
 -22  -2  23-3.11027 37.2265   2
 -22   2  23-100.680 134.350   1
 -22  -2  23-78.8375 111.189   1
  22  -2 -23-218.337 218.741   4
 -22  -2  22 1435.62 399.330   2
 -22   2  22 2031.89 459.204   1
 -22  -2  22 2063.08 396.538   1
  22  -2 -22 1646.47 516.718   4
 -22  -2  21 157.728 104.584   2
 -22   2  21-27.6674 102.583   1
 -22  -2  21-17.9450 54.2414   1
  22  -2 -21 23.5427 166.262   4
 -22   2  20 7992.59 882.831   1
 -22  -2  20 8368.08 781.781   1
  22  -2 -20 9088.99 610.693   7
 -22  -2  20 8528.73 972.422   2
  22  -2 -20 8639.99 1136.85   4
 -22  -2  19 148.988 165.351   2
 -22   2  19 168.022 141.073   1
 -22  -2  19 86.8744 72.7737   1
  22  -2 -19 307.666 119.081   7
  22  -2 -19 155.552 174.665   4
 -22   2  18 17128.0 1277.68   1
 -22  -2  18 16503.0 1078.42   1
  22  -2 -18 18596.7 910.403   7
 -22   2  18 17165.9 1364.19   6
 -22  -2  18 17844.3 1396.60   2
  22  -2 -18 17109.4 1588.84   4
 -22  -2  17-3.02551 57.9203   2
 -22   2  17 76.6543 173.663   1
 -22  -2  17 93.9063 97.4434   1
  22  -2 -17-35.8578 30.0181   7
 -22   2  17-25.6459 124.700   6
  22  -2 -17 270.753 232.791   4
  22  -2 -16 18491.2 954.411   7
 -22   2  16 15948.1 1294.07   6
 -22  -2  16 17016.6 1357.46   2
  22  -2 -16 16540.4 1557.81   4
 -22  -2  16 16792.2 1061.11   1
  22  -2 -15-20.0743 65.8861   7
 -22   2  15-33.1788 105.091   6
  22  -2 -15 275.863 282.702   4
 -22  -2  15 46.7270 111.954   2
  22  -2 -14 1196.59 253.025   7
 -22   2  14 977.678 314.172   6
 -22  -2  14 833.739 296.658   2
  22  -2 -14 1572.44 506.805   4
  22  -2 -13 104.778 93.9884   7
 -22   2  13 114.681 151.545   6
 -22  -2  13-158.776 187.379   6
 -22  -2  13-109.665 111.306   2
  22  -2 -13 53.0951 212.848   4
  22  -2 -12 10203.3 780.294   7
 -22   2  12 9952.76 1013.51   6
 -22  -2  12 9610.75 890.214   6
 -22  -2  12 9223.65 991.540   2
  22  -2 -12 8737.81 1102.12   4
  22  -2 -11 20.2870 85.5697   7
 -22   2  11-86.9931 78.9484   6
 -22  -2  11-103.583 169.814   6
 -22  -2  11-33.2468 147.341   2
  22  -2 -11 175.725 196.933   4
  22  -2 -10 3688.45 480.489   7
 -22   2  10 2713.25 514.125   6
 -22  -2  10 2357.88 431.856   6
 -22  -2  10 3082.56 568.316   2
  22  -2 -10 2654.16 615.932   4
  22  -2  -9-38.3404 44.2224   7
 -22   2   9 97.4999 81.1798   6
 -22  -2   9 46.5977 85.8617   6
 -22  -2   9-25.6533 96.1435   2
  22  -2  -9 74.3107 114.047   4
  22  -2  -8 8933.66 793.711   7
 -22   2   8 9535.76 962.775   6
 -22  -2   8 10352.2 900.828   6
 -22  -2   8 8310.60 947.907   2
  22  -2  -8 9101.30 1112.65   4
  22  -2  -7 70.6988 93.8212   7
 -22   2   7 242.635 192.175   6
 -22  -2   7 49.7488 137.767   6
 -22  -2   7 90.4848 69.6511   2
  22  -2  -7-166.815 165.358   4
  22  -2  -6-67.0834 116.766   7
 -22   2   6-78.7044 87.8194   6
 -22  -2   6 49.8523 132.012   6
 -22  -2   6-50.8557 122.574   2
  22  -2  -6 120.462 107.528   4
  22  -2  -5 124.834 130.168   7
 -22   2   5 219.006 160.730   6
 -22  -2   5 24.1726 78.0010   6
 -22   2   5 61.7338 37.0518   3
 -22  -2   5-87.2973 44.0881   2
  22  -2  -5-24.3673 138.120   4
  22  -2  -4 21779.0 1342.62   7
 -22   2   4 19115.0 1259.42   3
 -22   2   4 20883.1 1432.46   6
 -22  -2   4 21533.7 1261.03   6
 -22  -2   4 19279.3 1471.91   2
  22  -2  -4 23178.0 1756.24   4
  22  -2  -3 228.142 175.767   7
 -22   2   3 78.0575 120.428   3
 -22  -2   3-60.9203 89.2931   2
  22  -2  -3-174.058 180.412   4
  22  -2  -2 933.322 280.622   7
 -22   2   2 715.513 266.898   3
 -22  -2   2 800.978 296.427   2
  22  -2  -2 501.812 267.911   4
  22  -2  -1-150.509 123.887   7
 -22   2   1 21.7299 118.768   3
 -22  -2   1-218.675 163.369   2
  22  -2  -1-122.954 188.309   4
  22  -2   0 20473.9 1383.47   7
 -22   2   0 20821.2 1288.93   3
 -22  -2   0 22110.7 1629.71   2
  22  -2   0 21257.7 1629.87   4
  22  -2   1 47.8261 143.015   7
 -22   2  -1 8.76766 63.0666   3
  22   2   1-30.9846 60.4413   7
  22  -2   1 89.1715 111.200   4
 -22   2  -2 3447.57 520.974   3
  22  -2   2 3160.45 566.719   7
  22   2   2 3303.17 587.624   7
  22  -2   2 2747.14 569.851   4
  22  -2   3-73.4898 122.182   7
 -22   2  -3 21.2555 60.4605   3
  22   2   3-172.261 154.881   7
  22  -2   3 113.793 141.315   4
 -22   2  -4 17355.0 1170.40   3
  22  -2   4 15728.5 1298.61   7
  22   2   4 15415.6 1294.25   7
  22  -2   4 16817.4 1402.03   4
 -22   2  -5 127.932 62.2487   3
  22  -2   5 90.6716 112.398   7
  22   2   5 183.253 118.224   7
  22  -2   5 297.341 175.634   4
 -22   2  -6 660.442 233.156   3
  22  -2   6 186.138 193.602   7
  22   2   6 338.350 200.793   7
  22  -2   6 276.030 223.752   4
 -22   2  -7 51.4894 57.9338   3
  22  -2   7 79.9899 118.307   7
  22   2   7 97.8843 125.471   7
  22  -2   7 13.3437 53.7725   4
 -22   2  -8 20569.3 1273.30   3
  22  -2   8 19298.0 1539.56   7
  22   2   8 19296.0 1523.22   7
 -22   2  -9 106.459 126.339   3
  22   2   9-29.4333 123.972   7
  22  -2  10 12967.0 1309.29   7
  22   2  10 13096.3 1281.46   7
  22  -2  11 37.0766 121.176   7
  22   2  11 157.329 165.312   7
  22  -2  12 11360.4 1274.12   7
  22   2  12 11635.5 1256.23   7
  22  -2  13 180.767 208.126   7
  22   2  13 381.395 286.795   7
  22  -2  14 2547.91 630.113   7
  22   2  14 1976.08 520.195   7
  22  -2  15 19.0020 87.5235   7
  22   2  15-43.2367 140.693   7
  22  -2  16 3233.23 741.906   7
  22   2  16 3151.37 679.003   7
  22  -2  17-32.0124 134.702   7
  22   2  17 80.6267 79.1566   7
  22  -2  18 7772.90 1160.62   7
  22   2  18 7746.92 1103.11   7
 -22  -4  35-84.7894 167.236   2
 -22  -4  34 10583.7 1377.76   2
 -22  -4  33-259.981 213.719   2
 -22   4  33-9.33952 71.7989   1
 -22  -4  32 1180.45 417.457   2
 -22   4  32 701.870 304.897   1
 -22  -4  31-428.045 268.181   2
 -22   4  31 49.1784 194.611   1
 -22   4  30 4894.88 835.290   1
 -22  -4  30 3998.07 819.650   2
 -22  -4  29-47.6443 261.984   2
 -22   4  29-14.2789 134.783   1
 -22  -4  28 2277.89 611.475   2
 -22   4  28 2144.47 531.731   1
 -22  -4  27 229.181 142.107   2
 -22   4  27 247.273 226.791   1
 -22   4  26 18075.4 1545.44   1
 -22  -4  26 15493.5 1541.54   2
 -22  -4  25 137.095 156.689   2
 -22   4  25 149.784 195.078   1
 -22   4  24 5558.35 822.106   1
 -22   4  24 5277.81 840.776   6
 -22  -4  24 5852.83 939.215   2
 -22  -4  23-122.480 153.307   2
 -22   4  23 52.7457 138.847   1
 -22  -4  23 74.8831 37.7328   1
 -22   4  23-106.739 82.1471   6
  22  -4 -23-315.498 303.784   4
 -22   4  22 1563.47 441.838   1
 -22  -4  22 1562.86 464.353   2
 -22  -4  22 1580.95 319.812   1
 -22   4  22 1689.28 460.164   6
  22  -4 -22 1293.35 529.996   4
 -22   4  21-157.915 150.799   1
 -22  -4  21-89.9396 171.680   2
 -22  -4  21-34.3924 75.4151   1
 -22   4  21-172.044 132.832   6
  22  -4 -21 34.8970 127.576   4
 -22   4  20 10754.4 1127.76   1
 -22  -4  20 11475.2 824.246   1
 -22   4  20 11096.4 1180.26   6
  22  -4 -20 10850.4 1380.76   4
 -22  -4  20 10307.1 1214.84   2
 -22  -4  19 118.398 49.0643   1
 -22  -4  19 37.0211 107.960   2
 -22   4  19-81.5814 90.6990   6
  22  -4 -19-24.4476 149.088   4
 -22   4  18 13661.0 1289.62   6
  22  -4 -18 13922.1 1556.02   4
 -22  -4  18 13456.3 1368.42   2
 -22  -4  17-91.2683 142.225   2
 -22   4  17 100.234 228.404   6
  22  -4 -17 247.913 233.859   4
 -22   4  16 7873.09 966.898   6
 -22  -4  16 8873.19 1115.97   2
  22  -4 -16 7671.39 1144.59   4
 -22  -4  15 56.3431 71.5331   2
  22  -4 -15-54.7187 113.928   4
 -22  -4  14 1594.18 485.844   2
 -22   4  14 1254.81 387.381   6
  22  -4 -14 1018.98 357.690   4
 -22  -4  13 291.107 243.425   2
 -22   4  13 26.1529 151.574   6
 -22  -4  13 112.982 153.291   6
  22  -4 -13 319.072 205.686   4
  22  -4 -12 9165.02 657.737   7
 -22   4  12 8845.54 1013.58   6
 -22  -4  12 10286.7 875.802   6
 -22   4  12 8849.06 1030.35   3
 -22  -4  12 9178.42 1134.63   2
  22  -4 -12 9066.93 1216.48   4
  22  -4 -11-1.24222 36.1733   7
 -22   4  11-24.0442 117.798   6
 -22   4  11 93.9761 83.7179   3
 -22  -4  11 1.03531 108.332   6
  22  -4 -11-50.4355 176.178   4
 -22  -4  11 7.16682 135.393   2
  22  -4 -10 2940.24 415.116   7
 -22  -4  10 2641.76 442.488   6
 -22   4  10 2354.83 511.248   6
 -22   4  10 2801.35 571.513   3
  22  -4 -10 2967.98 679.530   4
 -22  -4  10 3297.47 668.160   2
  22  -4  -9 29.8515 72.7928   7
 -22   4   9-95.7992 125.293   6
 -22   4   9-242.539 222.280   3
 -22  -4   9 58.5419 91.9008   6
  22  -4  -9-143.084 211.029   4
 -22  -4   9 39.5536 151.460   2
  22  -4  -8 12635.7 926.339   7
 -22   4   8 11922.8 1164.68   3
 -22   4   8 12470.3 1198.54   6
 -22  -4   8 13589.3 926.214   6
 -22  -4   8 12710.4 1339.79   2
  22  -4  -8 12502.5 1408.37   4
  22  -4  -7 102.737 92.5159   7
 -22   4   7-108.021 150.061   6
 -22  -4   7-96.4295 69.8249   6
 -22   4   7-129.898 137.583   3
  22  -4  -7-90.8563 73.8540   4
 -22  -4   7-4.54614 182.498   2
  22  -4  -6 245.105 128.086   7
 -22   4   6-281.206 252.002   6
 -22  -4   6 2.14906 81.9563   6
 -22   4   6 52.7319 79.8682   3
  22  -4  -6 104.807 169.097   4
 -22  -4   6 91.1713 178.715   2
  22  -4  -5 417.728 182.754   7
 -22   4   5 419.488 226.390   3
 -22  -4   5 267.476 230.545   2
  22  -4  -4 18072.9 1239.56   7
 -22   4   4 15447.7 1290.98   3
 -22  -4   4 17185.8 1563.28   2
  22  -4  -3 285.155 175.951   7
 -22   4   3 148.103 168.417   3
 -22  -4   3-83.5126 187.887   2
  22  -4  -2 1438.18 406.191   7
 -22   4   2 1018.80 301.378   3
 -22  -4   2 945.725 311.247   2
  22  -4  -1 105.615 65.1542   7
 -22   4   1 54.0616 86.2148   3
 -22  -4   1 13.5354 142.625   2
  22  -4   0 19412.1 1406.34   7
 -22   4   0 17840.8 1392.21   3
 -22  -4   0 21340.5 1765.61   2
  22  -4   1-80.2822 119.229   7
 -22   4  -1 275.798 220.077   3
 -22  -4  -1 95.0316 121.690   2
  22  -4   2 3048.56 577.250   7
 -22   4  -2 3052.40 575.404   3
 -22  -4  -2 2852.74 654.665   2
  22  -4   3 160.388 192.021   7
 -22   4  -3-208.776 163.186   3
 -22  -4  -3 22.1851 72.7321   2
 -22   4  -4 14671.2 1285.76   3
  22  -4   4 13834.7 1285.95   7
 -22  -4  -4 16398.7 1564.97   2
  22  -4   5 338.386 183.636   7
 -22   4  -5 39.4862 83.6326   3
  22   4   5 114.369 128.828   7
 -22  -4  -5 116.309 174.024   2
  22  -4   6 713.706 298.386   7
 -22   4  -6 967.562 338.621   3
  22   4   6 1002.05 341.509   7
 -22   4  -7 153.278 178.889   3
  22  -4   7 123.843 137.325   7
  22   4   7-201.441 233.316   7
 -22   4  -8 14029.5 1275.75   3
  22  -4   8 13325.6 1361.99   7
  22   4   8 14308.5 1361.06   7
 -22   4  -9 408.095 263.715   3
  22  -4   9-90.5041 142.063   7
  22   4   9 70.5367 161.512   7
 -22   4 -10 6601.84 879.708   3
  22  -4  10 6767.93 1004.02   7
  22   4  10 7010.89 975.838   7
 -22   4 -11 36.7142 38.9119   3
  22   4  11 125.195 67.2017   7
 -22   4 -12 8022.41 969.339   3
  22  -4  12 7696.09 1109.43   7
  22   4  12 8934.01 1127.92   7
  22  -4  13 136.799 141.173   7
  22   4  13-106.457 234.643   7
  22  -4  14 2350.63 623.858   7
  22   4  14 2783.88 645.685   7
  22  -4  15 42.3610 87.2108   7
  22   4  15-261.136 222.552   7
  22   4  16 10301.3 1264.70   7
 -22   6  30 3982.34 796.942   6
 -22  -6  29 629.368 312.048   2
 -22   6  29 9.63296 173.329   6
 -22   6  28 810.179 331.860   1
 -22  -6  28 1423.21 559.578   2
 -22   6  28 928.273 369.099   3
 -22   6  28 1110.49 437.707   6
 -22   6  27-119.191 129.075   1
 -22  -6  27 345.378 263.880   2
 -22   6  27 654.557 344.002   3
 -22   6  27 155.154 203.230   6
 -22   6  26 13000.6 1385.24   1
 -22   6  26 14656.6 1625.45   3
 -22   6  26 13830.5 1443.92   6
 -22  -6  26 13302.7 1617.26   2
 -22  -6  25 172.935 226.159   2
 -22   6  25-192.968 255.741   3
 -22   6  25 177.065 250.377   6
 -22   6  25-38.9476 128.731   1
 -22  -6  24 4906.46 974.210   2
 -22   6  24 6502.33 1066.24   3
 -22   6  24 4782.55 838.266   6
 -22  -6  23-173.813 229.078   2
 -22   6  23 171.323 120.825   3
 -22   6  23 71.9903 115.739   6
 -22  -6  22 2364.71 656.944   2
 -22   6  22 2015.20 601.760   3
 -22   6  22 1793.96 505.960   6
 -22   6  21 188.612 84.3214   3
 -22   6  21 524.230 311.512   6
 -22   6  20 10504.5 1319.08   3
 -22   6  20 10842.5 1252.24   6
 -22  -6  20 9052.99 1278.49   2
 -22  -6  19-294.225 233.515   2
 -22   6  19-47.0367 149.361   3
 -22   6  19-106.124 81.1720   6
 -22   6  18 10586.0 1299.36   3
 -22   6  18 13531.4 1378.16   6
 -22  -6  18 12559.0 1503.72   2
 -22  -6  17-35.0750 79.3324   2
 -22   6  17 260.752 223.171   3
 -22  -6  16 5919.11 1022.82   2
 -22   6  16 5615.12 935.555   3
 -22   6  16 5845.50 907.290   6
 -22  -6  15 68.3046 197.237   2
 -22   6  15 98.6469 139.439   3
 -22   6  15 316.779 216.397   6
 -22  -6  14 1091.61 443.906   2
 -22   6  14 496.219 284.888   3
 -22   6  14 649.363 277.592   6
 -22  -6  13 409.339 330.094   2
 -22   6  13 215.426 226.466   3
 -22   6  13 388.553 264.138   6
 -22   6  12 9434.94 1169.64   3
 -22   6  12 8913.74 1085.47   6
 -22  -6  12 9834.12 1329.30   2
 -22  -6  11 261.465 225.291   2
 -22   6  11 68.2131 193.966   3
 -22   6  11 69.7336 173.800   6
 -22  -6  10 1627.60 520.742   2
 -22   6  10 2331.32 591.450   3
 -22   6  10 1845.25 480.365   6
 -22   6   9 207.363 171.884   3
 -22  -6   9-125.361 187.772   2
 -22   6   8 10870.4 1266.42   3
 -22  -6   8 11469.8 1445.45   2
 -22   6   7 17.2721 85.7728   3
 -22  -6   7 8.32278 90.0720   2
 -22   6   6 15.2515 79.5227   3
 -22  -6   6-61.7501 108.191   2
 -22   6   5 82.1410 80.6741   3
 -22  -6   5 82.5033 88.6391   2
 -22   6   4 13387.0 1381.80   3
 -22  -6   4 13559.8 1563.74   2
 -22   6   3-134.146 292.121   3
 -22  -6   3-345.474 251.564   2
  22  -6  -2 1119.73 356.207   7
 -22   6   2 788.781 340.992   3
 -22  -6   2 1338.98 452.095   2
  22  -6  -1 226.867 160.930   7
 -22   6   1 290.241 187.140   3
 -22  -6   1 414.896 297.878   2
  22  -6   0 15320.8 1352.02   7
 -22   6   0 14819.7 1470.25   3
 -22  -6   0 15746.5 1704.81   2
  22  -6   1 207.668 197.413   7
 -22   6  -1-91.1543 165.717   3
 -22  -6  -1 46.7623 70.4984   2
  22  -6   2 2839.19 601.595   7
 -22   6  -2 2210.99 579.120   3
 -22  -6  -2 2753.59 735.239   2
  22  -6   3 270.328 224.224   7
 -22   6  -3-64.0961 144.268   3
 -22  -6  -3-77.8749 78.9313   2
 -22   6  -4 11529.0 1317.89   3
  22  -6   4 12066.7 1305.18   7
  22  -6   4 10552.9 1344.94   5
  22  -6   5-57.9662 59.0597   7
 -22   6  -5 131.540 93.7193   3
 -22  -6  -5 290.747 249.989   2
  22  -6   5-16.0741 214.288   5
  22  -6   6 690.806 278.941   7
 -22   6  -6 438.056 215.987   3
 -22  -6  -6 1099.96 447.467   2
  22  -6   6 900.018 381.907   5
  22  -6   7 92.7940 77.7094   7
 -22   6  -7 113.941 195.459   3
  22   6   7 152.770 197.528   7
 -22  -6  -7-11.1433 211.040   2
  22  -6   7-89.7769 239.043   5
 -22   6  -8 8607.25 1168.56   3
  22  -6   8 9034.79 1215.24   7
  22   6   8 8832.36 1164.44   7
  22  -6   8 8544.39 1193.95   5
 -22   6  -9 13.8193 130.591   3
  22  -6   9 144.178 218.007   7
  22   6   9 200.748 218.767   7
  22  -6   9 199.294 195.736   5
 -22   6 -10 3465.87 741.711   3
  22  -6  10 4169.01 833.594   7
  22   6  10 3836.54 766.383   7
 -22   6 -11 132.757 105.057   3
  22  -6  11 255.005 242.407   7
  22   6  11 602.647 306.029   7
 -22   6 -12 5616.57 949.358   3
  22  -6  12 5733.07 1026.94   7
 -22   6 -13 33.9674 81.4795   3
 -22   8  20 4189.66 815.485   6
 -22   8  19-93.6422 171.992   6
 -22   8  18 9578.35 1212.44   6
 -22   8  17 195.390 259.135   6
 -23  -1  37-53.4099 61.4747   1
 -23   1  36 0.71219 119.155   1
 -23  -1  36 280.439 166.008   1
 -23   1  35 2666.41 624.762   1
 -23  -1  35 2195.63 548.980   1
 -23   1  34 240.641 198.848   1
 -23  -1  34 233.098 187.135   1
  23  -1 -34-75.4650 78.6051   4
 -23   1  33 1705.04 479.457   1
 -23  -1  33 1522.58 436.538   1
  23  -1 -33 2098.04 576.493   4
 -23   1  32 128.223 145.544   1
 -23  -1  32 15.8967 96.1799   1
  23  -1 -32 183.279 183.536   4
 -23   1  31 19183.9 1567.52   1
 -23  -1  31 18767.5 1477.78   1
  23  -1 -31 17764.4 1676.17   4
 -23   1  30-59.5171 85.5111   1
 -23  -1  30 31.4024 155.349   1
  23  -1 -30-166.675 145.842   4
 -23  -1  29 2163.39 474.779   2
 -23   1  29 2231.94 513.063   1
 -23  -1  29 2134.02 486.118   1
  23  -1 -29 2478.91 636.920   4
 -23  -1  28-49.4202 117.050   2
 -23   1  28-109.964 73.8215   1
 -23  -1  28-19.2651 62.3176   1
 -23   1  27 8226.28 962.923   1
 -23  -1  27 7961.40 889.442   1
 -23  -1  27 7882.39 880.931   2
  23  -1 -27 8576.40 1153.91   4
 -23  -1  26 130.435 144.130   2
 -23   1  26-21.8024 55.6100   1
 -23  -1  26 88.7186 82.9901   1
  23  -1 -26 83.6962 168.355   4
 -23   1  25 4312.77 678.099   1
 -23  -1  25 3689.30 581.422   1
 -23  -1  25 4568.22 665.087   2
  23  -1 -25 5501.69 927.884   4
 -23  -1  24-25.6788 90.5150   2
 -23   1  24-159.571 104.074   1
 -23  -1  24-64.5499 125.116   1
  23  -1 -24 147.385 193.674   4
 -23   1  23 20766.0 1443.54   1
 -23  -1  23 20099.4 1322.31   1
 -23   1  23 19928.8 1041.97   2
 -23  -1  23 20710.8 1417.17   2
  23  -1 -23 20533.4 1760.81   4
 -23   1  22-198.811 166.936   1
 -23  -1  22 8.65193 85.7113   1
 -23   1  22-60.8820 57.0267   2
 -23   1  21 8371.46 899.933   1
 -23  -1  21 8976.87 857.616   1
 -23   1  21 10782.0 790.599   2
 -23  -1  21 10467.0 993.243   2
 -23   1  20 68.8176 138.365   1
 -23  -1  20-25.3001 75.3155   1
 -23   1  20 33.5545 63.8473   2
 -23  -1  20 76.0865 157.177   2
 -23   1  19 845.077 264.308   1
 -23  -1  19 921.379 262.301   1
 -23   1  19 941.591 237.763   2
 -23  -1  19 708.197 254.562   2
 -23   1  18 43.4017 53.0490   1
 -23  -1  18 47.8537 64.9778   1
 -23   1  18 126.404 56.4726   2
 -23   1  17 6160.18 744.090   1
 -23  -1  17 7497.32 758.321   1
 -23   1  17 5640.82 775.534   6
 -23   1  17 8076.66 727.316   2
 -23  -1  17 8025.66 870.855   2
 -23   1  16-13.0586 131.136   6
 -23  -1  16 60.1398 80.5982   2
 -23   1  15 16446.0 1283.28   6
 -23  -1  15 17475.3 1292.70   2
 -23   1  14-59.2147 150.440   6
 -23  -1  14-235.207 185.563   6
 -23  -1  14-95.5001 73.5506   2
 -23   1  13 5280.02 738.893   6
 -23  -1  13 5301.14 711.294   6
 -23  -1  13 6327.88 782.804   2
  23  -1 -12 134.681 85.9333   7
 -23   1  12 359.573 253.330   6
 -23  -1  12-24.8241 113.369   6
 -23  -1  12-61.5606 145.872   2
  23  -1 -11 2160.81 402.372   7
 -23   1  11 1650.05 407.769   6
 -23  -1  11 2069.71 433.867   6
 -23  -1  11 3015.73 530.335   2
  23  -1 -10 247.948 154.603   7
 -23   1  10 210.836 255.741   6
 -23  -1  10-43.4616 90.3103   6
 -23  -1  10-4.66178 94.7906   2
  23  -1  -9 17306.2 1142.19   7
 -23   1   9 18081.0 1352.96   6
 -23  -1   9 18376.2 1285.58   6
 -23  -1   9 18881.5 1385.26   2
  23  -1  -8-54.7129 39.7112   7
 -23   1   8 5.56171 71.4036   6
 -23  -1   8 101.877 133.024   6
 -23  -1   8 7.57219 96.4426   2
  23  -1  -7 2363.68 435.644   7
 -23   1   7 2680.26 524.551   6
 -23  -1   7 2054.96 404.151   6
 -23  -1   7 2437.25 501.547   2
  23  -1  -6 35.6670 47.4107   7
 -23   1   6-64.1332 137.532   6
 -23  -1   6 28.6047 101.223   6
 -23  -1   6-113.469 167.531   2
  23  -1  -5 19090.2 1261.85   7
 -23   1   5 18525.3 1346.19   6
 -23  -1   5 19275.5 1288.42   6
 -23  -1   5 18732.7 1406.28   2
  23  -1  -4 43.8358 91.7482   7
 -23   1   4-34.3896 78.1845   6
 -23  -1   4-1.20038 134.082   6
 -23  -1   4-102.061 110.979   2
  23  -1  -4-60.0944 109.468   4
  23  -1  -3 2840.27 498.881   7
 -23   1   3 2647.69 437.323   3
  23  -1  -3 2453.69 573.517   4
  23  -1  -2 87.8516 132.220   7
  23   1  -2-24.0775 81.2343   7
 -23   1   2-18.9175 82.9909   3
  23  -1  -2 117.388 200.828   4
  23  -1  -1 17546.9 1291.88   7
 -23   1   1 17140.6 1108.26   3
  23   1  -1 16054.4 1257.89   7
  23  -1  -1 16523.6 1470.38   4
  23  -1   0-19.7502 85.2408   7
 -23   1   0-20.1433 39.5831   3
 -23  -1   0-38.7709 50.6102   3
  23  -1   0-184.154 202.938   4
  23  -1   1 704.276 279.397   7
  23   1   1 372.786 170.312   7
 -23   1  -1 952.573 256.977   3
 -23  -1  -1 793.057 191.374   3
  23  -1   1 489.300 250.910   4
  23  -1   2 123.396 158.316   7
 -23   1  -2 138.136 155.729   3
  23   1   2-44.1417 133.883   7
 -23  -1  -2 115.859 72.9937   3
  23  -1   2 98.1664 157.454   4
 -23   1  -3 15834.0 1032.43   3
  23  -1   3 13072.3 1196.25   7
  23   1   3 13615.2 1216.38   7
  23  -1   3 15500.0 1383.58   4
 -23   1  -4 160.461 120.031   3
  23  -1   4 186.977 159.118   7
  23   1   4-75.8023 87.2860   7
  23  -1   4 143.616 152.227   4
 -23   1  -5 1629.23 319.480   3
  23  -1   5 1979.47 464.915   7
  23   1   5 1570.98 416.515   7
  23  -1   5 1657.34 430.001   4
 -23   1  -6 254.555 124.311   3
  23  -1   6 20.3721 174.958   7
  23   1   6-118.828 142.363   7
  23  -1   6-19.4763 97.1383   4
  23  -1   7 10187.2 1122.52   7
  23   1   7 10290.3 1110.79   7
  23  -1   7 10753.1 1094.02   4
  23  -1   8 189.119 165.259   7
  23   1   8-18.9987 78.8555   7
  23  -1   8-23.9788 89.7247   4
  23  -1   9 503.195 276.960   7
  23   1   9 139.610 60.5859   7
  23  -1   9 380.291 220.776   4
  23   1   9 333.122 144.280   4
  23  -1  10-22.5144 106.083   7
  23   1  10 184.545 184.144   7
  23  -1  10-154.532 126.719   4
  23  -1  11 5872.81 904.154   7
  23   1  11 8099.98 1048.97   7
  23  -1  12 43.4298 134.382   7
  23   1  12 68.6064 156.727   7
  23  -1  13 4577.40 831.989   7
  23   1  13 3627.04 716.299   7
  23  -1  14 82.0690 247.328   7
  23   1  14 227.566 258.702   7
  23  -1  15 9193.54 1206.69   7
  23   1  15 6826.89 1021.24   7
  23  -1  16-154.647 107.350   7
  23   1  16-151.019 207.742   7
  23  -1  17 2008.05 575.524   7
  23   1  17 1679.65 525.562   7
 -23  -3  37 865.194 338.875   1
 -23  -3  36-78.2075 76.2133   1
 -23  -3  35 2847.96 597.082   1
 -23   3  34-3.58027 57.1552   1
 -23  -3  34 9.50895 123.496   1
 -23  -3  33 540.535 268.908   2
 -23   3  33 1271.33 442.982   1
 -23  -3  33 878.873 318.016   1
 -23  -3  32-175.016 164.752   2
 -23   3  32-185.579 104.163   1
  23  -3 -32-78.1833 264.609   4
 -23  -3  32 44.4243 54.3085   1
 -23   3  31 19225.0 1648.48   1
 -23  -3  31 17107.7 1338.52   1
  23  -3 -31 16265.6 1740.08   4
 -23  -3  31 16843.8 1578.02   2
 -23  -3  30 89.3112 95.3199   2
 -23   3  30 92.3197 171.187   1
 -23  -3  30 61.9616 49.5263   1
  23  -3 -30-189.700 241.087   4
 -23  -3  29 1620.09 499.046   2
 -23   3  29 1006.78 351.607   1
 -23  -3  29 1327.10 354.985   1
  23  -3 -29 981.141 422.637   4
 -23  -3  28-151.312 194.621   2
 -23   3  28-120.291 165.512   1
 -23  -3  28-118.862 133.002   1
  23  -3 -28 79.7868 166.054   4
 -23   3  27 6449.71 905.382   1
 -23  -3  27 6399.99 742.149   1
  23  -3 -27 6537.00 1060.69   4
 -23  -3  27 6879.98 982.944   2
 -23  -3  26 94.2147 57.5617   2
 -23   3  26 142.750 175.702   1
 -23  -3  26 56.4086 68.6797   1
  23  -3 -26-47.0022 95.8299   4
 -23   3  25 6947.12 914.478   1
 -23  -3  25 6079.78 696.965   1
  23  -3 -25 5607.97 992.181   4
 -23  -3  25 6510.66 953.562   2
 -23  -3  24 98.8761 88.0642   2
 -23   3  24 3.31789 76.2447   1
 -23  -3  24 33.5836 87.5539   1
  23  -3 -24-34.1994 77.8238   4
 -23   3  23 12307.2 1190.35   1
 -23  -3  23 11719.6 936.468   1
  23  -3 -23 10343.2 1325.16   4
 -23  -3  23 12191.1 1276.35   2
 -23  -3  22-268.543 242.082   2
 -23   3  22 28.1063 113.232   1
 -23  -3  22 14.9105 59.3371   1
 -23   3  22-221.411 195.518   6
  23  -3 -22-14.0846 120.775   4
 -23   3  21 5898.76 804.997   1
 -23  -3  21 5881.61 653.341   1
 -23   3  21 5493.21 833.245   6
 -23  -3  21 5510.76 839.233   2
  23  -3 -21 4399.73 856.332   4
 -23  -3  20-73.3533 133.761   2
 -23   3  20 145.044 187.061   1
 -23  -3  20-75.1893 110.132   1
 -23   3  20-54.8511 129.462   6
  23  -3 -20-140.277 145.132   4
 -23   3  19 1700.04 438.773   1
 -23  -3  19 1357.11 298.124   1
 -23   3  19 970.594 313.746   6
  23  -3 -19 1576.12 498.927   4
 -23  -3  18-86.1737 148.789   2
 -23   3  18-197.009 190.383   6
  23  -3 -18 156.772 185.078   4
 -23   3  17 5052.88 773.951   6
 -23  -3  17 5241.86 843.813   2
  23  -3 -17 5164.04 905.884   4
 -23  -3  16 17.3965 128.965   2
  23  -3 -16 87.3154 55.7373   7
 -23   3  16 197.641 185.084   6
  23  -3 -16 424.172 262.259   4
  23  -3 -15 15063.9 833.562   7
 -23   3  15 14848.3 1303.88   6
 -23  -3  15 16082.5 1443.97   2
  23  -3 -15 13041.6 1451.48   4
  23  -3 -14 242.776 108.344   7
 -23   3  14 636.893 270.961   6
 -23  -3  14 195.520 143.237   6
  23  -3 -14 146.399 156.323   4
 -23  -3  14 173.150 112.063   2
  23  -3 -13 21170.4 1075.10   7
 -23   3  13 18022.5 1440.72   6
 -23  -3  13 18250.7 1256.40   6
 -23  -3  13 18046.8 1512.01   2
  23  -3 -13 20363.3 1798.42   4
  23  -3 -12 618.748 186.912   7
 -23   3  12 687.885 278.073   6
 -23  -3  12 551.459 202.749   6
  23  -3 -12 633.666 331.651   4
 -23  -3  12 607.977 288.816   2
  23  -3 -11 631.946 193.976   7
 -23   3  11 905.978 320.443   6
 -23  -3  11 353.083 173.965   6
  23  -3 -11 279.556 175.414   4
 -23  -3  11 550.081 254.756   2
  23  -3 -10 919.149 249.308   7
 -23   3  10 568.811 234.600   6
 -23  -3  10 1096.75 320.225   6
 -23  -3  10 514.825 226.808   2
  23  -3 -10 1105.61 617.108   4
  23  -3  -9 20184.7 1185.42   7
 -23   3   9 18459.5 1438.74   6
 -23  -3   9 20122.9 1264.88   6
 -23  -3   9 17799.3 1492.58   2
  23  -3  -9 18411.8 1688.74   4
  23  -3  -8 84.4814 63.7950   7
 -23   3   8-97.9525 111.767   6
 -23  -3   8-0.36154 63.1971   6
 -23   3   8 215.377 100.261   3
 -23  -3   8 25.5985 167.171   2
  23  -3  -8 32.8067 202.728   4
  23  -3  -7 3180.02 496.366   7
 -23  -3   7 3099.03 489.820   6
 -23   3   7 2583.38 527.007   6
 -23   3   7 2896.64 541.120   3
 -23  -3   7 2473.59 563.915   2
  23  -3  -7 2572.28 620.866   4
  23  -3  -6 74.0649 74.0428   7
 -23   3   6 53.2111 99.5304   6
 -23  -3   6-4.43100 61.2381   6
 -23   3   6 67.6159 40.4560   3
 -23  -3   6 22.4368 92.6833   2
  23  -3  -6 66.4764 194.888   4
  23  -3  -5 6830.41 754.341   7
 -23   3   5 7005.34 830.460   3
 -23   3   5 7547.48 906.282   6
 -23  -3   5 7561.31 719.622   6
 -23  -3   5 7217.59 962.873   2
  23  -3  -5 7051.30 1006.27   4
  23  -3  -4 23.6771 73.1948   7
 -23   3   4 108.517 114.240   3
 -23  -3   4-60.8137 158.718   2
  23  -3  -4 384.570 267.766   4
  23  -3  -3 392.304 173.032   7
 -23   3   3 513.257 235.504   3
 -23  -3   3 232.143 180.826   2
  23  -3  -3 260.099 173.352   4
  23  -3  -2 133.090 122.868   7
 -23   3   2 267.309 190.647   3
 -23  -3   2-56.8103 117.290   2
  23  -3  -2 78.5924 145.648   4
  23  -3  -1 14090.7 1172.72   7
 -23   3   1 13000.3 1119.93   3
 -23  -3   1 15217.9 1428.59   2
  23  -3  -1 14394.4 1431.22   4
  23  -3   0-88.9518 94.7536   7
 -23   3   0-30.4343 112.640   3
 -23  -3   0-18.3386 177.852   2
  23  -3   0 291.490 257.704   4
  23  -3   1 106.802 98.5264   7
 -23   3  -1-74.5217 107.088   3
 -23  -3  -1 30.0315 53.3911   2
  23  -3   1-87.5482 204.498   4
  23  -3   2 240.261 184.203   7
 -23   3  -2 299.459 186.634   3
  23   3   2 311.966 186.241   7
 -23  -3  -2 319.002 178.915   2
  23  -3   2-26.4971 120.755   4
 -23   3  -3 19973.9 1395.56   3
  23  -3   3 17843.1 1437.51   7
  23   3   3 19201.4 1526.42   7
  23  -3   4 140.241 156.675   7
 -23   3  -4 74.2117 120.592   3
  23   3   4 249.055 104.568   7
  23  -3   5 2707.83 576.499   7
 -23   3  -5 2451.44 489.173   3
  23   3   5 1759.08 458.174   7
 -23   3  -6 88.4184 125.684   3
  23  -3   6 421.108 261.405   7
  23   3   6-6.40826 149.821   7
 -23   3  -7 7614.87 877.386   3
  23  -3   7 8074.72 1017.01   7
  23   3   7 9105.95 1080.70   7
 -23   3  -8-97.8939 144.021   3
  23  -3   8-352.568 245.443   7
  23   3   8 38.0028 136.413   7
 -23   3  -9 170.743 132.613   3
  23  -3   9-148.984 82.4310   7
  23   3   9 4.91674 138.090   7
  23  -3  10 143.200 180.843   7
  23   3  10 96.1990 84.8568   7
  23  -3  11 8867.78 1159.55   7
  23   3  11 7502.66 1018.35   7
  23  -3  12-27.5646 122.481   7
  23   3  12 156.928 186.867   7
  23  -3  13 6363.38 1014.14   7
  23   3  13 7175.04 1020.73   7
  23  -3  14-222.473 141.567   7
  23   3  14 164.148 250.245   7
  23  -3  15 9031.70 1245.00   7
  23   3  15 6488.14 1021.19   7
  23   3  16 143.257 119.785   7
 -23  -5  33 1063.58 448.716   2
 -23  -5  32-221.484 210.832   2
 -23   5  32 202.563 243.868   6
 -23   5  31 14109.6 1523.60   6
 -23  -5  31 11555.5 1483.62   2
 -23  -5  30-330.209 277.225   2
 -23   5  30-201.615 186.805   1
 -23   5  30 169.390 234.568   6
 -23  -5  29 2032.37 605.344   2
 -23   5  29 2786.02 649.398   1
 -23   5  29 2817.73 661.633   6
 -23   5  28 13.1158 69.6505   1
 -23   5  28 156.979 183.832   6
 -23   5  27 6393.28 969.154   1
 -23   5  27 6728.11 1012.00   6
 -23  -5  27 5867.89 1032.37   2
 -23   5  26-51.7952 189.375   1
 -23   5  26 13.8629 120.110   6
 -23   5  25 2716.73 628.093   1
 -23  -5  25 2262.21 620.877   2
 -23   5  25 2414.05 596.710   6
 -23   5  24 14.6979 203.446   1
 -23  -5  24 309.034 231.977   2
 -23   5  24-200.391 191.372   6
 -23   5  23 16208.2 1507.59   6
 -23  -5  23 16370.3 1661.02   2
 -23   5  23 16851.9 1503.23   1
 -23  -5  22-134.661 187.433   2
 -23   5  22 44.5098 189.103   6
 -23   5  21 10277.2 1202.47   6
 -23  -5  21 10457.8 1314.89   2
 -23  -5  20 195.189 211.943   2
 -23   5  20-84.3184 116.504   6
 -23  -5  19 638.913 328.340   2
 -23   5  19 651.421 326.087   6
 -23  -5  18-118.945 214.238   2
 -23   5  18 20.8972 158.090   6
 -23   5  18-210.235 290.332   3
 -23   5  17 6705.17 1011.77   3
 -23   5  17 7040.34 980.282   6
 -23  -5  17 7176.39 1083.35   2
 -23  -5  16 489.637 288.323   2
 -23   5  16 98.0777 277.329   6
 -23   5  16 526.928 294.300   3
 -23   5  15 6107.03 929.765   3
 -23   5  15 5527.87 864.853   6
 -23  -5  15 6152.74 720.183   6
 -23  -5  15 6040.60 995.836   2
 -23  -5  14-48.0310 163.588   2
 -23   5  14 239.556 210.053   6
 -23   5  14 303.482 214.934   3
 -23  -5  13 4382.25 850.381   2
 -23   5  13 5266.54 830.035   6
 -23   5  13 3851.38 731.536   3
 -23  -5  12 214.852 238.402   2
 -23   5  12 319.263 213.537   6
 -23   5  12-85.7236 136.308   3
 -23   5  11 1128.17 388.827   6
 -23   5  11 1611.85 471.292   3
 -23  -5  11 1632.70 484.021   2
 -23   5  10 192.856 184.678   6
 -23   5  10 801.111 328.941   3
 -23  -5  10 745.870 352.184   2
 -23   5   9 16653.9 1474.82   3
 -23   5   9 15558.1 1400.30   6
 -23  -5   9 15641.5 1607.98   2
 -23   5   8-228.699 148.797   6
 -23   5   8-27.2817 80.2303   3
 -23  -5   8-118.248 85.5685   2
  23  -5  -7 2204.86 417.455   7
 -23   5   7 2539.62 575.853   3
 -23  -5   7 1614.75 523.917   2
  23  -5  -6 352.269 185.194   7
 -23   5   6 416.217 216.946   3
 -23  -5   6-191.093 218.277   2
  23  -5  -5 22678.2 1418.44   7
 -23   5   5 20151.8 1609.20   3
 -23  -5   5 18870.3 1761.39   2
  23  -5  -4 206.366 103.453   7
 -23   5   4-151.269 204.958   3
 -23  -5   4 76.9496 123.748   2
  23  -5  -3 2009.31 443.141   7
 -23   5   3 1828.83 469.018   3
 -23  -5   3 1362.47 490.079   2
  23  -5  -2 247.324 194.764   7
 -23   5   2-40.6306 127.532   3
 -23  -5   2 34.4265 109.687   2
  23  -5  -1 10604.8 1077.18   7
 -23   5   1 9241.18 1072.43   3
 -23  -5   1 9057.53 1253.19   2
  23  -5   0-134.461 163.352   7
 -23   5   0-94.6400 63.7067   3
 -23  -5   0-38.7257 128.039   2
  23  -5   1 379.446 249.832   7
 -23   5  -1 374.075 247.920   3
 -23  -5  -1 331.304 199.669   2
  23  -5   2 118.513 110.035   7
 -23   5  -2-8.55059 114.970   3
 -23  -5  -2 298.010 246.168   2
 -23   5  -3 8557.70 1066.69   3
  23  -5   3 10019.3 1140.93   7
 -23  -5  -3 11473.8 1392.54   2
  23  -5   4 80.7619 63.3515   7
 -23   5  -4 296.881 155.246   3
 -23  -5  -4 9.62808 150.391   2
  23  -5   5 898.558 344.942   7
 -23   5  -5 905.311 366.680   3
  23   5   5 1038.86 390.481   7
 -23  -5  -5 941.078 446.973   2
  23  -5   6 180.749 161.260   7
 -23   5  -6 110.098 69.1235   3
  23   5   6-96.3653 82.1748   7
 -23  -5  -6 201.522 189.789   2
 -23   5  -7 7912.81 1040.36   3
  23  -5   7 7267.31 1044.69   7
  23   5   7 8049.46 1067.16   7
 -23   5  -8 202.174 182.925   3
  23  -5   8-158.577 195.721   7
  23   5   8 71.6690 107.835   7
 -23   5  -9 704.888 338.274   3
  23  -5   9 895.944 401.441   7
  23   5   9 1230.36 454.228   7
  23  -5   9 409.668 259.792   5
 -23   5 -10 147.812 88.5495   3
  23  -5  10 486.724 276.606   7
  23   5  10 471.595 269.315   7
 -23   5 -11 4680.19 809.979   3
  23  -5  11 5029.09 914.047   7
  23   5  11 5502.74 909.131   7
  23  -5  12-181.884 231.588   7
  23   5  12 243.137 215.586   7
 -23   7  26-166.987 173.299   6
 -23   7  25 2985.75 720.287   6
 -23   7  24 234.006 374.518   6
 -23   7  23 8180.08 1165.72   6
 -23   7  22 333.216 255.220   6
 -23  -7  21 3747.30 897.612   2
 -23   7  21 2943.33 729.950   3
 -23   7  21 4418.11 844.041   6
 -23  -7  20 21.5519 62.0178   2
 -23   7  20-12.1444 175.656   3
 -23   7  20-17.5991 107.396   6
 -23  -7  19 1223.19 510.033   2
 -23   7  19 627.661 324.219   3
 -23   7  19 659.413 353.679   6
 -23  -7  18 2.91473 57.9809   2
 -23   7  18 264.502 301.026   3
 -23   7  18 97.0046 185.715   6
 -23  -7  17 5300.87 1051.77   2
 -23   7  17 5215.27 960.605   3
 -23   7  17 5260.29 912.141   6
 -23  -7  16 666.242 416.070   2
 -23   7  16 331.734 200.765   3
 -23   7  16 398.671 224.941   6
 -23  -7  15 5813.92 1093.93   2
 -23   7  15 7737.03 1156.60   3
 -23   7  15 7273.89 1039.47   6
 -23  -7  14 77.4532 242.300   2
 -23   7  14 422.427 300.930   3
 -23   7  14 19.3095 74.9645   6
 -23   7  13 13662.7 1528.21   3
 -23  -7  13 11634.5 1546.15   2
 -23  -7  12-182.283 191.391   2
 -23   7  12 104.766 169.167   3
 -23  -7  11 364.441 343.708   2
 -23   7  11 334.432 228.959   3
 -23   7  10 108.340 234.711   3
 -23  -7  10-19.3203 193.844   2
 -23   7   9 13132.2 1484.38   3
 -23  -7   9 13767.4 1680.72   2
 -23   7   8 139.843 204.215   3
 -23  -7   8-8.64179 75.7209   2
 -23   7   7 2428.91 625.708   3
 -23  -7   7 2529.35 715.507   2
 -23   7   6 262.156 186.402   3
 -23  -7   6 183.224 195.282   2
 -23   7   5 5688.13 968.367   3
 -23  -7   5 5845.62 1091.28   2
 -23   7   4-151.592 221.212   3
 -23  -7   4 223.558 222.576   2
 -23   7   3 62.6874 116.810   3
  23  -7  -3 96.3701 178.044   5
 -23  -7   3-2.92618 167.378   2
 -23   7   2 73.0601 68.3834   3
  23  -7  -2-363.261 309.606   5
 -23  -7   2-238.121 225.565   2
 -23   7   1 8761.48 1207.74   3
 -23  -7   1 8778.31 1354.27   2
  23  -7  -1 7716.38 1255.69   5
 -23   7   0 322.381 283.770   3
 -23  -7   0-212.463 214.872   2
  23  -7   0 120.527 124.389   5
 -23   7  -1 98.3067 215.598   3
 -23  -7  -1 182.911 203.243   2
 -23   7  -2 306.392 244.622   3
 -23  -7  -2-195.547 207.240   2
 -23   7  -3 10593.6 1360.46   3
 -23  -7  -3 12776.2 1641.68   2
  23  -7   3 9433.17 1380.11   5
 -23   7  -4-21.3766 135.580   3
  23  -7   4-34.5148 146.486   5
 -23   7  -5 1341.88 496.325   3
  23  -7   5 738.387 322.128   5
  23  -7   6 131.598 66.1736   5
  23  -7   7 5565.22 1037.01   5
 -24   0  37 89.4513 69.2311   1
 -24   0  36 10993.2 1273.33   1
 -24   0  35-124.762 167.230   1
  24   0 -35 38.8901 141.439   4
 -24   0  34 241.084 173.659   1
  24   0 -34 319.184 297.974   4
 -24   0  33-172.707 179.191   1
  24   0 -33 78.7683 92.9324   4
 -24   0  32 6903.33 932.446   1
  24   0 -32 5198.57 916.717   4
 -24   0  31-120.244 155.375   1
 -24   0  30 187.425 106.096   1
 -24   0  29 20.8376 88.3009   1
 -24   0  28 15487.7 1307.59   1
 -24   0  27 13.4984 126.472   1
 -24   0  26 6076.19 798.109   1
 -24   0  25 134.946 108.213   1
 -24   0  25-262.486 142.247   2
 -24   0  24 7077.06 831.837   1
 -24   0  24 7813.09 775.622   2
 -24   0  23 46.3943 77.1934   1
 -24   0  23 9.46876 64.3623   2
 -24   0  22 5380.85 705.595   1
 -24   0  22 5599.01 672.312   2
 -24   0  21 57.8026 120.353   1
 -24   0  21 65.5158 66.8980   2
 -24   0  20 23574.2 1464.83   1
 -24   0  20 26990.0 1481.93   2
 -24   0  19 99.6849 121.031   1
 -24   0  19-25.5086 66.6482   2
 -24   0  18 5929.51 721.564   1
 -24   0  18 6537.26 742.895   2
 -24   0  17-116.953 118.170   6
 -24   0  17 56.3339 84.4641   2
 -24   0  16 340.604 168.745   6
 -24   0  16 753.389 274.292   2
 -24   0  15-66.6351 151.339   6
 -24   0  15 41.6110 35.9714   2
 -24   0  14 15770.2 1255.34   6
 -24   0  14 16687.4 1204.79   2
 -24   0  13 16.0935 180.531   6
 -24   0  13-34.4205 81.5192   2
 -24   0  12 10645.8 1062.85   6
 -24   0  12 11877.2 1033.30   2
 -24   0  11-127.830 150.351   6
 -24   0  11 123.034 115.505   2
 -24   0  10 19988.4 1440.78   6
 -24   0  10 21840.1 1429.09   2
 -24   0   9 119.815 113.701   6
 -24   0   8 660.436 278.687   6
  24   0  -7 23.6842 90.3878   7
 -24   0   7-60.0819 116.950   6
  24   0  -6 18691.5 1291.90   7
 -24   0   6 20829.3 1431.61   6
  24   0  -5 67.0064 165.566   7
 -24   0   5-12.8206 95.0241   6
  24   0  -4 2015.42 429.501   7
 -24   0   4 2626.55 501.182   6
  24   0  -3-5.47168 68.3580   7
  24   0  -2 14396.0 1195.14   7
 -24   0   2 14138.7 963.004   3
  24   0  -1-77.8395 209.241   7
 -24   0   1-11.0140 65.6263   3
  24   0   0 1887.20 451.218   7
 -24   0   0 1765.64 328.555   3
  24   0   1 39.4993 118.197   7
 -24   0  -1 53.2724 27.6818   3
 -24   0  -2 11050.7 793.326   3
  24   0   2 10903.8 1103.49   7
 -24   0  -3-34.1834 105.354   3
  24   0   3 228.373 204.380   7
  24   0   4 502.358 254.267   7
  24   0   4 1383.43 413.236   4
  24   0   5 12.9275 105.387   7
  24   0   5-8.74032 129.443   4
  24   0   6 10229.2 1129.67   7
  24   0   6 10808.4 1137.53   4
  24   0   7 29.8460 106.432   7
  24   0   7-3.26788 122.544   4
  24   0   8 1096.89 369.732   7
  24   0   8 1316.59 375.585   4
  24   0   9-135.683 174.703   7
  24   0   9 25.0715 99.0285   4
  24   0  10 9190.31 1143.43   7
  24   0  11 166.109 238.556   7
  24   0  12 3199.07 686.498   7
  24   0  13 213.636 195.153   7
  24   0  14 9763.36 1238.78   7
  24   0  15 242.789 218.990   7
  24   0  16 6923.20 1056.09   7
 -24  -2  37 514.750 262.835   1
 -24  -2  36 11386.9 1242.00   1
 -24   2  35 139.844 122.994   1
 -24  -2  35 74.4734 119.170   1
 -24   2  34 438.215 240.945   1
 -24  -2  34 266.155 212.213   1
  24  -2 -34 217.008 212.218   4
 -24   2  33 265.265 214.890   1
 -24  -2  33 50.6274 132.315   1
 -24   2  32 6911.77 975.462   1
 -24  -2  32 5989.80 830.590   1
  24  -2 -32 6768.90 1085.33   4
 -24   2  31 178.060 210.538   1
 -24  -2  31 132.276 156.046   1
 -24  -2  30-181.833 172.367   2
 -24   2  30 184.136 64.3148   1
 -24  -2  30 68.3063 67.7419   1
 -24  -2  29-72.7523 141.148   2
 -24   2  29-86.9955 177.116   1
 -24  -2  29-78.8661 60.2214   1
  24  -2 -29-6.28694 107.787   4
 -24   2  28 14678.6 1358.88   1
 -24  -2  28 14459.2 1187.55   1
 -24  -2  28 12965.0 1260.03   2
  24  -2 -28 13320.0 1495.98   4
 -24  -2  27 48.4376 109.697   2
 -24   2  27 269.010 186.847   1
 -24  -2  27 290.885 188.390   1
  24  -2 -27-51.2093 92.4660   4
 -24  -2  26 1602.86 442.950   2
 -24   2  26 1635.92 446.174   1
 -24  -2  26 1623.23 388.740   1
  24  -2 -26 1855.24 551.820   4
 -24  -2  25 98.0714 112.067   2
 -24   2  25 236.721 186.419   1
 -24  -2  25-22.9596 48.1705   1
  24  -2 -25 42.9947 86.0459   4
 -24  -2  24 3651.37 553.035   1
 -24   2  24 3888.24 665.213   1
 -24  -2  24 3962.64 683.214   2
  24  -2 -24 3964.24 806.197   4
 -24  -2  23 120.127 139.283   2
 -24   2  23-81.1452 117.191   1
 -24  -2  23 91.3335 114.398   1
  24  -2 -23-192.275 253.662   4
 -24   2  22 4590.77 703.660   1
 -24  -2  22 4942.63 629.642   1
 -24  -2  22 5075.69 775.101   2
  24  -2 -22 4059.17 809.771   4
 -24  -2  21 22.4421 70.4678   2
 -24   2  21 109.695 75.0855   1
 -24  -2  21-24.0590 82.0493   1
  24  -2 -21 165.142 139.457   4
 -24   2  20 21216.2 1497.76   1
 -24  -2  20 20806.4 1268.35   1
  24  -2 -20 20909.3 1006.95   7
 -24   2  20 19539.6 1538.04   6
 -24  -2  20 21178.9 1562.88   2
  24  -2 -20 20209.5 1812.80   4
 -24   2  19 43.9837 65.0480   1
 -24  -2  19 197.630 130.649   1
  24  -2 -19 204.546 78.2359   7
 -24   2  19 94.0722 207.735   6
  24  -2 -19 205.714 237.528   4
 -24  -2  19 144.591 135.212   2
  24  -2 -18 13780.9 861.674   7
 -24   2  18 11975.9 1188.02   6
 -24  -2  18 12055.4 1181.00   2
  24  -2 -18 11189.5 1337.26   4
  24  -2 -17-72.4056 35.1116   7
 -24   2  17-46.0641 118.600   6
 -24  -2  17 135.197 165.732   2
  24  -2 -17 210.823 243.942   4
  24  -2 -16 2235.30 354.901   7
 -24   2  16 1805.59 439.302   6
 -24  -2  16 2697.41 551.485   2
  24  -2 -16 2223.66 583.909   4
  24  -2 -15-45.3695 53.6592   7
 -24   2  15-13.7274 173.122   6
 -24  -2  15-88.4431 91.7185   6
 -24  -2  15-139.780 176.648   2
  24  -2 -15-37.5169 131.907   4
  24  -2 -14 20610.3 1138.94   7
 -24   2  14 18131.9 1431.06   6
 -24  -2  14 17685.2 1290.35   6
 -24  -2  14 17015.4 1395.69   2
  24  -2 -14 17358.8 1657.29   4
  24  -2 -13 4.59775 63.3362   7
 -24   2  13-108.389 113.175   6
 -24  -2  13-158.036 172.467   6
 -24  -2  13-78.9286 152.227   2
  24  -2 -13 97.5788 189.237   4
  24  -2 -12 13864.4 973.949   7
 -24   2  12 14730.6 1294.99   6
 -24  -2  12 11780.4 1047.44   6
 -24  -2  12 13391.1 1243.31   2
  24  -2 -12 12516.1 1404.14   4
  24  -2 -11 248.996 128.182   7
 -24   2  11 83.0357 151.685   6
 -24  -2  11 229.663 177.252   6
 -24  -2  11 45.4459 110.733   2
  24  -2 -11 293.407 282.492   4
  24  -2 -10 18064.9 1161.44   7
 -24   2  10 17924.5 1432.02   6
 -24  -2  10 16841.8 1243.17   6
 -24  -2  10 17502.1 1438.94   2
  24  -2 -10 17394.2 1649.54   4
  24  -2  -9 384.716 192.232   7
 -24   2   9 86.6219 116.468   6
 -24  -2   9 37.5171 110.422   6
 -24  -2   9 139.939 183.611   2
  24  -2  -9 338.799 302.924   4
  24  -2  -8-44.6507 75.3322   7
 -24   2   8-191.065 132.596   6
 -24  -2   8 249.003 173.521   6
 -24  -2   8 32.1411 94.6061   2
  24  -2  -8 314.247 300.644   4
  24  -2  -7 311.755 192.164   7
 -24   2   7-58.3171 77.4468   6
 -24  -2   7-75.0848 130.560   6
 -24  -2   7-45.4025 132.204   2
  24  -2  -7-23.7866 112.555   4
  24  -2  -6 17239.8 1225.70   7
 -24   2   6 15293.8 1186.23   3
 -24   2   6 15852.6 1327.51   6
 -24  -2   6 18594.4 1264.46   6
 -24  -2   6 16991.8 1437.97   2
  24  -2  -6 19399.6 1691.96   4
  24  -2  -5-56.7851 53.7086   7
 -24   2   5-134.864 207.036   6
 -24  -2   5-15.3594 113.885   6
 -24   2   5 134.877 164.550   3
 -24  -2   5-106.378 80.1693   2
  24  -2  -5 198.582 222.408   4
  24  -2  -4 3120.30 546.114   7
 -24   2   4 4376.52 631.780   3
 -24  -2   4 2913.82 579.032   2
  24  -2  -4 3505.11 728.353   4
  24  -2  -3-185.039 135.745   7
 -24   2   3 60.8496 106.001   3
 -24  -2   3-89.6464 137.848   2
  24  -2  -3 67.4699 112.381   4
  24  -2  -2 9161.32 951.348   7
 -24   2   2 8954.25 888.161   3
 -24  -2   2 8697.47 1044.09   2
  24  -2  -2 9809.00 1194.14   4
  24  -2  -1 46.4569 118.901   7
 -24  -2   1 34.6441 99.9557   2
  24  -2  -1 41.4459 90.8614   4
  24  -2   0 455.898 254.382   7
 -24   2   0 446.522 188.395   3
  24   2   0 545.898 297.076   7
  24  -2   0 605.083 313.535   4
  24  -2   1-75.3933 119.647   7
 -24   2  -1 206.185 143.498   3
  24   2   1 155.740 143.462   7
  24  -2   1 31.2082 84.1603   4
 -24   2  -2 12406.3 1031.70   3
  24  -2   2 11254.2 1124.31   7
  24   2   2 11685.2 1169.20   7
  24  -2   2 11320.0 1236.00   4
  24  -2   3-44.5248 155.014   7
 -24   2  -3 16.6474 87.2232   3
  24   2   3 127.440 154.047   7
  24  -2   3 133.551 201.498   4
 -24   2  -4-65.9844 88.8226   3
  24  -2   4-104.265 131.001   7
  24   2   4-73.3974 117.808   7
  24  -2   4 47.6782 89.3312   4
 -24   2  -5 11.4621 35.0690   3
  24  -2   5 253.332 173.757   7
  24   2   5 75.7752 198.240   7
  24  -2   5 180.911 99.4219   4
 -24   2  -6 15955.9 1163.18   3
  24  -2   6 15397.4 1403.55   7
  24   2   6 15920.7 1416.37   7
  24  -2   6 15832.6 1397.39   4
 -24   2  -7 289.001 157.300   3
  24  -2   7-97.0549 134.724   7
  24   2   7 279.085 149.153   7
  24  -2   7-175.461 167.449   4
  24  -2   8 3501.82 694.344   7
  24   2   8 3778.21 695.827   7
  24  -2   9 71.2773 61.1876   7
  24   2   9 101.549 121.387   7
  24  -2  10 11002.9 1274.47   7
  24   2  10 10677.7 1213.35   7
  24  -2  11-35.1977 123.817   7
  24   2  11 83.3258 106.910   7
  24  -2  12 1477.92 474.779   7
  24   2  12 1045.30 410.666   7
  24  -2  13 173.244 142.537   7
  24   2  13 121.950 191.522   7
  24   2  14 5234.17 914.668   7
  24  -2  14 4248.31 834.172   7
  24  -2  15 74.9006 97.3138   7
  24   2  15-87.1104 105.642   7
 -24  -4  34 21.9102 72.4333   2
 -24  -4  33-81.4837 126.664   2
 -24  -4  32 4289.04 880.095   2
 -24  -4  31-38.7509 243.466   2
 -24   4  31-29.0355 84.5746   1
 -24  -4  30 590.896 323.189   2
 -24   4  30 520.697 292.146   1
 -24  -4  29-15.6644 142.727   2
 -24   4  29 229.593 269.133   1
 -24   4  28 14785.7 1440.10   1
 -24  -4  28 11967.4 1411.01   2
 -24  -4  27-134.467 205.376   2
 -24   4  27-10.3471 89.6072   1
 -24   4  27 283.612 141.039   6
 -24  -4  26 3190.37 734.986   2
 -24   4  26 3676.37 704.010   1
 -24   4  26 2884.08 648.374   6
 -24  -4  25 106.760 120.576   2
 -24   4  25-45.4346 81.6735   1
 -24   4  25 137.989 209.687   6
  24  -4 -25-74.9136 188.758   4
 -24  -4  24 4872.52 874.618   2
 -24   4  24 5955.53 928.207   6
  24  -4 -24 4515.04 926.274   4
 -24   4  23 67.6869 160.865   1
 -24   4  23-55.6863 103.531   6
  24  -4 -23-210.561 145.470   4
 -24  -4  22 3073.60 683.817   2
 -24   4  22 3531.10 689.276   6
  24  -4 -22 3541.33 820.971   4
 -24   4  22 3793.40 704.907   1
 -24  -4  21 58.6429 72.6588   2
 -24   4  21 28.2139 232.449   6
  24  -4 -21 181.543 262.871   4
 -24   4  20 15819.5 1454.68   6
 -24  -4  20 17427.5 1627.26   2
  24  -4 -20 14927.3 1694.18   4
 -24  -4  19 220.809 218.996   2
 -24   4  19-102.196 255.884   6
  24  -4 -19 6.99233 131.774   4
 -24   4  18 6880.14 947.848   6
 -24  -4  18 6615.46 988.135   2
  24  -4 -18 6394.17 1072.29   4
 -24  -4  17 141.909 213.579   2
 -24   4  17 75.7764 186.733   6
  24  -4 -17 136.090 186.881   4
 -24  -4  16 500.537 381.231   2
 -24   4  16 383.024 175.257   6
  24  -4 -16 217.538 195.874   4
 -24  -4  15-217.967 203.591   2
 -24   4  15 70.1047 129.708   6
 -24  -4  15 78.5475 75.8980   6
  24  -4 -15-193.437 228.486   4
 -24   4  14 15016.0 1407.36   6
 -24  -4  14 15396.2 1154.55   6
 -24  -4  14 14625.4 1468.17   2
  24  -4 -14 14248.0 1618.96   4
 -24   4  13 124.506 295.554   6
 -24   4  13 92.6384 79.8561   3
 -24  -4  13 102.614 59.0180   6
 -24  -4  13 3.47240 83.4794   2
 -24   4  12 9402.82 1102.15   3
 -24   4  12 10665.1 1163.15   6
 -24  -4  12 10490.1 950.998   6
 -24  -4  12 10032.5 1203.04   2
  24  -4 -12 9150.64 1285.13   4
  24  -4 -11 314.344 134.051   7
 -24   4  11 527.611 289.270   6
 -24   4  11 384.542 238.013   3
 -24  -4  11 616.789 219.533   6
  24  -4 -11 747.797 371.973   4
 -24  -4  11 277.061 238.429   2
  24  -4 -10 16430.0 1049.11   7
 -24   4  10 15651.3 1397.56   3
 -24   4  10 15918.3 1420.68   6
 -24  -4  10 17321.8 1170.73   6
 -24  -4  10 14508.8 1461.52   2
  24  -4 -10 14598.9 1610.61   4
  24  -4  -9 292.222 170.936   7
 -24   4   9-267.534 227.615   6
 -24  -4   9 299.281 124.164   6
 -24   4   9 237.917 186.983   3
  24  -4  -9 488.168 334.763   4
 -24  -4   9-30.3864 259.754   2
  24  -4  -8 132.675 101.276   7
 -24   4   8 187.966 160.549   6
 -24  -4   8 133.538 113.009   6
 -24   4   8 70.0322 43.8798   3
  24  -4  -8 354.801 281.784   4
 -24  -4   8 29.7991 159.748   2
  24  -4  -7 19.8951 64.5548   7
 -24   4   7-140.703 211.686   6
 -24  -4   7-18.7688 122.187   6
 -24   4   7-53.5166 114.396   3
 -24  -4   7 70.5944 107.915   2
  24  -4  -7-72.4081 272.646   4
  24  -4  -6 18111.6 1253.07   7
 -24   4   6 15399.6 1341.57   3
 -24  -4   6 15710.9 1555.05   2
  24  -4  -6 17551.2 1734.42   4
  24  -4  -5 184.968 135.589   7
 -24   4   5-5.94927 44.1524   3
 -24  -4   5-9.20162 171.383   2
  24  -4  -5 196.616 206.252   4
  24  -4  -4 1255.55 348.018   7
 -24   4   4 1636.72 442.626   3
 -24  -4   4 1602.15 502.277   2
  24  -4  -3-62.4491 109.544   7
 -24  -4   3-86.8771 156.545   2
  24  -4  -2 11434.6 1099.31   7
 -24   4   2 10315.7 1100.69   3
 -24  -4   2 9865.23 1228.56   2
  24  -4  -1 204.035 156.397   7
 -24   4   1 101.099 136.125   3
 -24  -4   1-34.9177 166.351   2
  24  -4   0 970.358 335.769   7
 -24   4   0 979.274 340.190   3
 -24  -4   0 978.210 358.800   2
  24  -4   1 120.018 121.212   7
 -24   4  -1-67.2239 160.189   3
 -24  -4  -1-81.5175 215.213   2
 -24   4  -2 9989.85 1084.76   3
  24  -4   2 9475.82 1078.68   7
 -24  -4  -2 10761.8 1318.29   2
  24  -4   3-277.407 222.001   7
 -24   4  -3-68.5700 170.700   3
  24   4   3-21.7903 67.7007   7
 -24  -4  -3-156.726 204.320   2
  24  -4   4 211.425 181.740   7
 -24   4  -4 596.484 239.676   3
  24   4   4 633.275 254.783   7
  24  -4   5 26.7861 81.5274   7
 -24   4  -5-69.6651 129.772   3
  24   4   5-10.8270 106.984   7
 -24   4  -6 8705.33 1027.98   3
  24  -4   6 7590.14 1038.49   7
  24   4   6 8443.85 1082.19   7
 -24   4  -7 325.527 156.410   3
  24  -4   7 69.6783 123.651   7
  24   4   7 224.790 171.845   7
 -24   4  -8 3061.35 610.441   3
  24  -4   8 3361.58 710.061   7
  24   4   8 2728.29 647.115   7
 -24   4  -9 123.333 139.884   3
  24  -4   9-6.56573 124.007   7
  24   4   9-8.82369 218.090   7
  24  -4  10 8164.21 1152.97   7
  24   4  10 8257.20 1101.12   7
  24  -4  11-179.237 269.781   7
  24   4  11-184.166 69.0391   7
  24  -4  12 1955.27 593.492   7
  24   4  12 1326.53 417.589   7
  24  -4  13 8.28487 130.437   7
  24   4  13-111.744 123.605   7
 -24   6  28 11408.7 1377.60   6
 -24  -6  27 42.2304 185.350   2
 -24   6  27-175.050 212.501   6
 -24  -6  26 3005.07 765.272   2
 -24   6  26 2982.54 746.875   3
 -24   6  26 3211.16 725.374   6
 -24   6  25 438.083 268.502   3
 -24   6  25 287.242 229.248   6
 -24  -6  24 5316.44 1030.16   2
 -24   6  24 4793.14 948.880   3
 -24   6  24 4761.97 872.477   6
 -24  -6  23 79.5799 97.8988   2
 -24   6  23-178.038 56.1338   3
 -24   6  23-104.487 140.213   6
 -24  -6  22 3716.05 855.823   2
 -24   6  22 3341.38 784.326   3
 -24   6  22 3251.85 718.428   6
 -24  -6  21-270.130 225.688   2
 -24   6  21 182.536 270.096   3
 -24   6  21-129.715 261.009   6
 -24   6  20 14497.9 1600.99   3
 -24   6  20 13092.7 1421.41   6
 -24  -6  20 12034.6 1527.12   2
 -24  -6  19-38.2757 55.3299   2
 -24   6  19 171.451 264.973   3
 -24   6  19 12.8017 290.093   6
 -24  -6  18 4182.57 900.124   2
 -24   6  18 3869.20 806.090   3
 -24   6  18 4930.23 855.423   6
 -24  -6  17-67.2374 126.055   2
 -24   6  17-106.035 230.926   3
 -24   6  17-71.6911 90.0134   6
 -24  -6  16 463.226 333.295   2
 -24   6  16 233.116 228.478   3
 -24   6  16 203.321 219.910   6
 -24  -6  15 140.143 148.057   2
 -24   6  15 477.649 316.522   3
 -24   6  15 304.410 218.772   6
 -24   6  14 11482.8 1359.70   3
 -24   6  14 10070.0 1233.73   6
 -24  -6  14 10799.7 1442.62   2
 -24  -6  13 15.9316 135.041   2
 -24   6  13 50.1783 72.3074   3
 -24   6  13-50.5970 301.766   6
 -24   6  12 6884.52 1039.36   3
 -24   6  12 6627.83 981.306   6
 -24  -6  12 5638.12 1026.69   2
 -24   6  11 492.768 323.609   3
 -24   6  11 353.327 301.353   6
 -24  -6  11-72.7371 64.9197   2
 -24   6  10 13920.2 1470.15   3
 -24  -6  10 12138.4 1498.68   2
 -24   6   9 250.275 239.584   3
 -24  -6   9 406.937 331.542   2
 -24   6   8 76.1174 49.6265   3
 -24  -6   8 276.045 253.160   2
 -24   6   7 101.255 140.949   3
 -24  -6   7 7.86083 104.495   2
 -24   6   6 12531.4 1383.20   3
 -24  -6   6 15373.2 1702.75   2
 -24   6   5 84.0310 92.9360   3
 -24  -6   5 307.392 294.601   2
 -24   6   4 1024.46 372.492   3
 -24  -6   4 858.466 310.400   2
 -24   6   3 91.1251 135.863   3
 -24  -6   3 100.436 158.911   2
 -24   6   2 11040.3 1300.69   3
 -24  -6   2 11356.2 1478.55   2
 -24   6   1 90.1211 80.2249   3
 -24  -6   1-118.103 76.4356   2
  24  -6   0 636.024 268.471   7
 -24   6   0 758.488 337.138   3
 -24  -6   0 1654.65 543.150   2
  24  -6   1 135.759 182.529   7
 -24   6  -1-79.3563 220.627   3
 -24  -6  -1-45.8892 138.874   2
 -24   6  -2 8473.58 1142.81   3
  24  -6   2 7394.83 1018.90   7
 -24  -6  -2 10589.1 1436.47   2
  24  -6   3-86.5274 165.001   7
 -24   6  -3-48.6296 67.9151   3
 -24  -6  -3-21.9909 147.145   2
  24  -6   4 389.290 263.062   7
 -24   6  -4 649.920 338.426   3
 -24  -6  -4 632.162 348.507   2
  24  -6   4 709.196 348.579   5
  24  -6   5 182.591 221.384   7
 -24   6  -5 376.650 263.246   3
  24   6   5 216.823 209.881   7
 -24  -6  -5-151.371 175.867   2
  24  -6   5 194.327 191.789   5
 -24   6  -6 5487.78 935.358   3
  24  -6   6 5409.00 939.488   7
  24   6   6 5971.52 973.484   7
 -24  -6  -6 6812.83 1153.37   2
  24  -6   6 4942.22 928.672   5
  24  -6   7-116.021 178.442   7
  24   6   7-89.1638 154.246   7
  24  -6   7-110.536 207.301   5
 -24   6  -8 2661.06 664.589   3
  24  -6   8 2538.33 666.601   7
 -24   6  -9-228.675 193.847   3
  24  -6   9-40.1805 187.838   7
 -24   6 -10 5414.69 937.135   3
 -24   8  18 7476.10 1120.99   6
 -25  -1  37 9471.02 1182.58   1
 -25  -1  36-54.4221 116.018   1
 -25   1  35 690.671 328.433   1
 -25  -1  35 864.838 344.582   1
  25  -1 -35 305.421 224.536   4
 -25   1  34 105.130 58.2306   1
 -25  -1  34 95.3542 179.948   1
  25  -1 -34 96.2862 104.837   4
 -25   1  33 21430.6 1725.57   1
 -25  -1  33 19125.8 1557.88   1
  25  -1 -33 18840.5 1790.06   4
 -25   1  32 96.0310 172.898   1
 -25  -1  32 88.3842 159.864   1
  25  -1 -32-133.242 160.434   4
 -25  -1  31 9.33013 56.8187   1
  25  -1 -31 249.751 233.552   4
 -25   1  30-1.78250 56.8332   1
 -25  -1  30-4.22428 37.8418   1
  25  -1 -30 144.823 131.945   4
 -25   1  29 7000.57 924.752   1
 -25  -1  29 6400.05 828.664   1
  25  -1 -29 6342.08 1035.09   4
 -25   1  28 65.4258 113.912   1
 -25  -1  28 243.805 165.660   1
  25  -1 -28 195.931 240.114   4
 -25   1  27 2668.00 535.955   1
 -25  -1  27 2251.00 477.911   1
 -25  -1  27 2355.44 486.671   2
  25  -1 -27 2180.06 597.508   4
 -25   1  26-18.5223 58.2894   1
 -25  -1  26-25.8768 93.8792   1
 -25  -1  26 169.555 132.127   2
  25  -1 -26 277.948 314.799   4
 -25   1  25 15787.9 1324.83   1
 -25  -1  25 14723.9 1186.88   1
 -25  -1  25 16042.0 1268.59   2
  25  -1 -25 14503.7 1557.23   4
 -25   1  24-119.809 126.038   1
 -25  -1  24-67.0421 98.0567   1
 -25  -1  24-93.7278 86.8081   2
  25  -1 -24 54.0610 121.478   4
 -25  -1  23 3499.50 563.117   1
 -25   1  23 3035.17 564.695   1
 -25  -1  23 3522.46 600.381   2
  25  -1 -23 3622.81 764.605   4
  25  -1 -22-111.816 125.794   4
 -25   1  22 16.4787 47.1701   1
 -25  -1  22 39.8251 71.9255   1
 -25   1  22 16.2109 56.1210   2
 -25  -1  22-54.5738 120.130   2
 -25   1  21 4078.10 646.695   1
 -25  -1  21 3835.11 580.427   1
 -25   1  21 4293.63 526.764   2
 -25  -1  21 3886.66 620.827   2
 -25   1  20-132.615 73.7299   1
 -25  -1  20-63.8595 115.409   1
 -25  -1  20 132.064 90.7947   2
 -25   1  19 7563.19 935.219   6
 -25  -1  19 7070.73 842.683   2
 -25   1  19 6199.36 788.414   1
 -25  -1  19 7206.72 787.552   1
 -25   1  18 146.265 182.889   6
 -25  -1  18-25.0533 67.4913   2
 -25   1  17 16334.7 1368.06   6
 -25  -1  17 15405.2 1274.61   6
 -25  -1  17 17244.3 1331.38   2
 -25   1  16 55.3682 149.494   6
 -25  -1  16-44.2745 62.6705   6
 -25  -1  16-72.5335 80.4515   2
 -25   1  15 9813.18 1055.07   6
 -25  -1  15 9252.83 980.258   6
 -25  -1  15 10010.4 1024.08   2
  25  -1 -14 3.45418 34.6946   7
 -25   1  14 1.57405 129.612   6
 -25  -1  14-91.8950 140.287   6
 -25  -1  14 32.7096 148.648   2
  25  -1 -13 170.219 138.005   7
 -25   1  13 254.769 184.709   6
 -25  -1  13 23.4442 95.0606   6
 -25  -1  13 421.237 212.451   2
  25  -1 -12 19.6232 58.2608   7
 -25   1  12 350.868 230.117   6
 -25  -1  12 61.3796 150.825   6
 -25  -1  12 239.532 190.593   2
  25  -1 -11 13459.1 1041.54   7
 -25   1  11 11563.8 1149.40   6
 -25  -1  11 13790.5 1205.10   6
 -25  -1  11 14730.3 1262.53   2
  25  -1 -10 56.9456 78.0257   7
 -25   1  10-71.2484 86.6763   6
 -25  -1  10-120.415 173.094   6
 -25  -1  10-57.3661 95.4220   2
  25  -1  -9 15384.7 1149.84   7
 -25   1   9 15623.0 1314.68   6
 -25  -1   9 15036.6 1234.58   6
 -25  -1   9 14197.2 1247.62   2
  25  -1  -8 61.2711 125.570   7
 -25   1   8 98.2281 110.109   6
 -25  -1   8-155.593 163.230   6
 -25  -1   8-109.857 171.799   2
  25  -1  -7 13800.8 1445.35   4
  25  -1  -7 12888.6 1078.14   7
 -25   1   7 12974.3 1185.03   6
 -25  -1   7 13212.3 1146.37   6
 -25  -1   7 12983.0 1216.43   2
  25  -1  -6 96.9778 125.831   7
 -25   1   6-2.56624 159.329   6
 -25  -1   6-52.2023 123.174   6
 -25  -1   6 8.53833 92.4405   2
  25  -1  -6-159.426 247.410   4
  25  -1  -5 256.294 188.211   7
 -25   1   5 77.1144 54.3457   6
 -25  -1   5 9.04943 139.286   6
  25  -1  -5 279.915 239.922   4
  25  -1  -4-111.323 79.0241   7
  25   1  -4-63.1952 117.401   7
 -25   1   4-106.048 131.465   3
  25  -1  -4-224.444 229.237   4
  25  -1  -3 23043.1 1534.39   7
  25   1  -3 22320.5 1552.35   7
 -25   1   3 25543.1 1443.79   3
  25  -1  -3 24338.8 1906.87   4
  25  -1  -2 80.1874 176.147   7
  25   1  -2-94.9356 114.590   7
 -25   1   2 12.5760 55.6184   3
  25  -1  -2-8.16721 156.304   4
 -25   1   1 4805.66 608.316   3
  25   1  -1 4291.45 696.560   7
  25  -1  -1 4000.64 652.095   7
 -25  -1   1 5345.56 552.868   3
  25  -1  -1 3896.06 749.862   4
  25  -1   0 15.0837 128.338   7
  25   1   0-148.265 144.061   7
 -25   1   0-116.406 120.487   3
 -25  -1   0-32.1001 43.1786   3
  25  -1   0 32.5749 155.555   4
 -25   1  -1 13737.7 1015.13   3
  25  -1   1 13154.3 1229.12   7
  25   1   1 12619.2 1205.09   7
  25  -1   1 13736.9 1388.12   4
  25  -1   2 28.1006 72.5568   7
 -25   1  -2 199.532 123.474   3
  25   1   2-106.567 63.2782   7
  25  -1   2 53.4634 84.7962   4
 -25   1  -3 2538.92 437.424   3
  25  -1   3 1813.30 467.668   7
  25   1   3 2204.93 512.466   7
  25  -1   3 2336.84 567.832   4
 -25   1  -4 3.32993 24.9823   3
  25  -1   4-63.9409 184.057   7
  25   1   4-123.920 186.828   7
  25  -1   4-50.9516 107.045   4
  25  -1   5 15523.0 1413.58   7
  25   1   5 13924.0 1339.79   7
  25  -1   5 14970.2 1382.93   4
  25  -1   6 193.748 187.541   7
  25   1   6 83.7859 99.5908   7
  25  -1   6-100.041 167.597   4
  25  -1   7 65.6185 201.686   7
  25   1   7 240.560 235.719   7
  25  -1   7-13.6743 35.9748   4
  25  -1   8-234.097 191.708   7
  25   1   8 193.151 256.173   7
  25  -1   8 59.8936 65.1486   4
  25   1   8 180.466 149.370   4
  25  -1   9 13171.1 1375.87   7
  25   1   9 14049.9 1414.75   7
  25  -1  10 105.781 161.801   7
  25   1  10 124.872 186.076   7
  25  -1  11 5809.04 942.483   7
  25   1  11 4648.65 841.159   7
  25  -1  12-160.799 221.364   7
  25   1  12-9.23888 129.030   7
  25  -1  13 10556.0 1305.65   7
  25   1  13 10104.4 1261.84   7
  25  -1  14 204.944 218.877   7
  25   1  14-199.220 148.570   7
  25  -3 -34 444.759 285.398   4
 -25   3  33 17572.2 1632.06   1
  25  -3 -33 11582.9 1509.47   4
 -25  -3  32-60.6291 102.553   2
 -25   3  32 74.7850 186.021   1
 -25  -3  32-179.694 139.918   1
  25  -3 -32 87.0197 200.181   4
 -25  -3  31 545.546 286.668   2
 -25   3  31 197.089 188.433   1
 -25  -3  31 42.0651 110.775   1
  25  -3 -31-156.068 216.692   4
 -25  -3  30-124.041 177.725   2
 -25   3  30-142.244 127.096   1
 -25  -3  30 4.64256 34.3770   1
  25  -3 -30-135.606 196.505   4
 -25   3  29 5776.29 900.822   1
 -25  -3  29 4505.48 653.686   1
 -25  -3  29 3639.29 743.028   2
  25  -3 -29 4653.32 936.469   4
 -25  -3  28 18.6211 291.938   2
 -25   3  28 86.4123 55.3216   1
 -25  -3  28 55.9452 96.6701   1
  25  -3 -28-120.988 201.525   4
 -25  -3  27 2418.41 575.129   2
 -25   3  27 2867.19 617.459   1
 -25  -3  27 2748.91 491.717   1
  25  -3 -27 3176.93 754.272   4
 -25  -3  26 105.997 74.5036   2
 -25   3  26-132.124 131.388   1
 -25  -3  26-131.623 122.625   1
  25  -3 -26 84.9092 214.119   4
 -25   3  25 15202.4 1389.74   1
 -25  -3  25 14490.1 1094.87   1
 -25   3  25 16295.3 1522.02   6
 -25  -3  25 13200.9 1376.41   2
  25  -3 -25 12674.5 1532.73   4
 -25  -3  24 130.774 127.109   2
 -25   3  24 72.3137 159.899   1
 -25  -3  24 45.1990 61.8705   1
 -25   3  24 26.5372 195.560   6
  25  -3 -24-37.5825 82.6971   4
 -25  -3  23 3157.10 503.578   1
 -25  -3  23 2766.72 606.310   2
 -25   3  23 2737.61 588.344   1
 -25   3  23 3006.29 610.750   6
  25  -3 -23 3072.84 743.733   4
 -25   3  22-142.375 110.400   1
 -25  -3  22 133.740 194.315   2
 -25  -3  22-97.3275 97.8709   1
 -25   3  22-67.0495 123.374   6
  25  -3 -22-146.748 171.633   4
 -25  -3  21 2683.70 612.319   2
 -25   3  21 1605.23 465.769   6
  25  -3 -21 2172.41 629.856   4
 -25  -3  21 2339.68 426.376   1
 -25  -3  20 305.330 241.178   2
 -25   3  20-30.9882 134.483   6
  25  -3 -20-56.6957 224.938   4
 -25  -3  19 3961.73 736.020   2
 -25   3  19 3485.33 666.629   6
  25  -3 -19 4603.58 904.516   4
 -25   3  18 100.165 75.7173   6
  25  -3 -18 284.858 274.487   4
 -25  -3  18 529.677 296.611   2
 -25   3  17 17894.9 1514.39   6
 -25  -3  17 19155.8 1628.37   2
  25  -3 -17 19403.0 1849.88   4
 -25   3  16-141.748 121.297   6
 -25  -3  16-43.8763 98.3986   6
 -25  -3  16 22.1619 68.0558   2
  25  -3 -15 13854.7 881.576   7
 -25   3  15 13578.3 1318.64   6
 -25  -3  15 13124.7 1132.38   6
 -25  -3  15 14170.8 1375.59   2
  25  -3 -15 12424.5 1485.16   4
  25  -3 -14 39.4881 95.8293   7
 -25   3  14-46.0880 136.614   6
 -25  -3  14-79.6465 87.7712   6
 -25  -3  14-18.8268 136.163   2
  25  -3 -14 257.546 221.244   4
  25  -3 -13 690.076 219.557   7
 -25   3  13 563.507 231.917   6
 -25  -3  13 636.661 260.137   6
 -25  -3  13 445.876 243.349   2
  25  -3 -13 835.711 367.619   4
  25  -3 -12 548.701 193.562   7
 -25   3  12 746.542 281.017   6
 -25  -3  12 693.000 289.897   6
 -25  -3  12 472.904 249.000   2
  25  -3 -12 733.458 325.107   4
  25  -3 -11 16340.8 1090.07   7
 -25   3  11 14848.1 1362.71   6
 -25  -3  11 16359.1 1231.06   6
 -25  -3  11 13351.7 1356.09   2
  25  -3 -11 15104.0 1620.10   4
  25  -3 -10-78.7126 92.8826   7
 -25   3  10-149.781 116.187   6
 -25  -3  10 255.730 158.884   6
 -25  -3  10-215.056 114.248   2
  25  -3 -10-39.6269 156.499   4
  25  -3  -9 8947.41 849.871   7
 -25   3   9 9559.40 1038.37   3
 -25   3   9 8102.46 992.929   6
 -25  -3   9 9933.37 937.575   6
 -25  -3   9 9263.67 1135.19   2
  25  -3  -9 8864.60 1212.91   4
  25  -3  -8 91.4416 99.2913   7
 -25   3   8 133.272 130.943   6
 -25  -3   8 34.8408 82.4966   6
 -25   3   8 17.7098 79.5029   3
 -25  -3   8 238.403 71.6001   2
  25  -3  -8 87.8222 77.2180   4
  25  -3  -7 5468.47 695.101   7
 -25   3   7 5195.96 753.675   3
 -25   3   7 5095.08 777.604   6
 -25  -3   7 4972.53 639.884   6
 -25  -3   7 4514.75 780.364   2
  25  -3  -7 3829.95 806.630   4
  25  -3  -6 9.41281 105.421   7
 -25   3   6 2.28592 80.5390   6
 -25  -3   6-93.7005 142.148   6
 -25   3   6-19.1954 56.4826   3
 -25  -3   6 159.226 163.342   2
  25  -3  -6-295.406 242.979   4
  25  -3  -5-29.8825 74.4091   7
 -25   3   5 85.4740 107.400   3
 -25  -3   5 76.9522 98.2168   2
  25  -3  -5 146.896 80.9257   4
  25  -3  -4 41.3107 65.5524   7
 -25   3   4 35.3299 171.009   3
 -25  -3   4-61.7460 102.063   2
  25  -3  -4 19.6968 112.751   4
  25  -3  -3 17718.0 1356.67   7
 -25   3   3 16886.8 1332.23   3
 -25  -3   3 16223.2 1524.71   2
  25  -3  -3 17064.6 1659.37   4
  25  -3  -2 284.424 260.996   7
 -25   3   2 151.185 139.874   3
 -25  -3   2 8.70893 110.285   2
  25  -3  -2 421.921 309.835   4
  25  -3  -1 4033.21 670.665   7
 -25   3   1 3947.10 646.624   3
 -25  -3   1 3691.09 729.304   2
  25  -3  -1 4003.05 794.387   4
  25  -3   0 51.7852 149.845   7
 -25   3   0 160.271 173.775   3
 -25  -3   0 280.621 200.101   2
  25  -3   0 65.8934 64.3410   4
 -25   3  -1 22388.4 1529.04   3
  25  -3   1 20780.0 1571.71   7
  25   3   1 20671.0 1633.74   7
 -25  -3  -1 22532.3 1851.67   2
  25  -3   1 20775.0 1783.06   4
  25  -3   2-13.2843 93.1875   7
 -25   3  -2 210.892 161.946   3
  25   3   2 165.527 170.609   7
  25  -3   2 236.214 219.408   4
  25  -3   3 2236.31 532.398   7
 -25   3  -3 2841.62 527.547   3
  25   3   3 2023.74 524.454   7
  25  -3   4 396.586 248.839   7
 -25   3  -4 306.546 153.935   3
  25   3   4 11.1562 60.7661   7
 -25   3  -5 13104.4 1174.30   3
  25  -3   5 11912.2 1274.57   7
  25   3   5 13383.4 1360.18   7
 -25   3  -6-106.321 95.8661   3
  25  -3   6 46.1810 55.4189   7
 -25   3  -7 66.7458 92.5372   3
  25  -3   7 342.818 201.656   7
  25   3   7 160.809 231.520   7
  25  -3   8 130.428 242.503   7
  25   3   8-86.4483 206.163   7
  25  -3   9 12297.6 1383.38   7
  25   3   9 9833.29 1207.31   7
  25  -3  10 97.8156 124.978   7
  25   3  10 236.027 217.437   7
  25  -3  11 4037.74 819.625   7
  25   3  11 4503.63 845.694   7
  25  -3  12-43.6576 103.597   7
  25   3  12-158.695 138.158   7
  25  -3  13 9331.95 1277.71   7
  25   3  13 9207.59 1232.53   7
 -25  -5  32-254.671 228.399   2
 -25  -5  31 504.320 352.120   2
 -25  -5  30 642.176 381.639   2
 -25   5  30 345.294 233.687   6
 -25  -5  29 4251.96 904.158   2
 -25   5  29 5572.02 978.536   6
 -25   5  28-108.036 135.555   1
 -25  -5  28-127.536 159.462   2
 -25   5  28-351.894 305.919   6
 -25   5  27 1029.05 396.818   1
 -25  -5  27 1313.46 471.972   2
 -25  -5  26 337.082 240.108   2
 -25   5  26 69.7842 162.847   6
 -25   5  26-266.864 188.925   1
 -25   5  25 12939.8 1425.03   6
 -25  -5  25 11486.9 1464.12   2
 -25  -5  24 291.437 301.527   2
 -25   5  24 423.397 289.034   6
 -25  -5  23 2898.03 718.415   2
 -25   5  23 2263.56 559.569   6
 -25  -5  22-197.385 191.093   2
 -25   5  22-212.940 128.696   6
 -25  -5  21 2024.32 592.626   2
 -25   5  21 3434.00 726.105   6
 -25  -5  20 210.531 223.330   2
 -25   5  20-6.95118 132.917   6
 -25  -5  19 5234.53 943.582   2
 -25   5  19 6015.40 955.946   6
 -25   5  19 5171.09 905.583   3
 -25  -5  18 266.396 222.026   2
 -25   5  18 28.0167 129.082   6
 -25   5  18 352.379 231.125   3
 -25   5  17 12455.8 1406.42   3
 -25   5  17 12716.2 1362.36   6
 -25  -5  17 12633.0 1488.79   2
 -25  -5  16-182.029 82.7123   2
 -25   5  16 121.976 138.590   6
 -25   5  16-197.845 135.946   3
 -25  -5  15 3652.78 791.204   2
 -25   5  15 3160.34 679.031   6
 -25   5  15 4049.69 792.287   3
 -25   5  14 26.1845 111.545   6
 -25   5  14 41.5107 88.3156   3
 -25  -5  14 5.63683 149.411   2
 -25   5  13 334.057 250.201   6
 -25   5  13 312.898 160.775   3
 -25  -5  13 492.283 326.792   2
 -25   5  12 403.119 251.229   6
 -25   5  12 479.804 240.510   3
 -25  -5  12 665.261 352.170   2
 -25   5  11 5024.39 849.766   3
 -25   5  11 6250.91 927.615   6
 -25  -5  11 5674.67 975.408   2
 -25   5  10-269.861 248.538   6
 -25   5  10-17.2519 128.844   3
 -25  -5  10 14.3107 192.194   2
 -25   5   9 6801.75 973.633   3
 -25   5   9 7495.57 1026.02   6
 -25  -5   9 6836.82 1082.67   2
 -25   5   8-13.6371 51.7001   3
 -25  -5   8 57.8214 59.2035   2
 -25   5   7 15822.9 1488.34   3
 -25  -5   7 17596.8 1748.59   2
 -25   5   6-118.113 126.779   3
 -25  -5   6-52.8942 105.332   2
  25  -5  -5 227.100 166.873   7
 -25   5   5-88.0162 108.031   3
 -25  -5   5 354.777 179.999   2
  25  -5  -4-114.204 123.794   7
 -25   5   4 232.025 186.842   3
 -25  -5   4 4.93702 205.559   2
  25  -5  -3 19226.1 1448.06   7
 -25   5   3 16652.4 1511.99   3
 -25  -5   3 19206.8 1849.26   2
  25  -5  -2 48.7690 122.326   7
 -25   5   2 75.9482 116.321   3
 -25  -5   2 229.010 233.583   2
  25  -5  -1 1796.64 453.014   7
 -25   5   1 1931.05 500.747   3
 -25  -5   1 2103.01 608.434   2
  25  -5   0 25.7300 136.232   7
 -25   5   0-107.841 173.278   3
 -25  -5   0 44.5667 85.6803   2
  25  -5   1 8034.19 1033.68   7
 -25   5  -1 7812.88 1054.59   3
 -25  -5  -1 8198.44 1214.56   2
  25  -5   2 169.000 78.6339   7
 -25   5  -2-19.5232 146.655   3
 -25  -5  -2 14.4757 107.026   2
  25  -5   3 1142.91 401.659   7
 -25   5  -3 882.533 338.418   3
 -25  -5  -3 963.103 410.298   2
  25  -5   4 120.472 180.618   7
 -25   5  -4 201.859 199.108   3
  25   5   4 502.029 275.803   7
 -25  -5  -4 247.022 288.789   2
 -25   5  -5 7692.21 1057.18   3
  25  -5   5 8848.05 1173.96   7
  25   5   5 9186.61 1191.47   7
  25  -5   6 144.263 81.7218   7
 -25   5  -6 294.701 183.046   3
  25   5   6 20.9640 212.509   7
 -25   5  -7 81.7621 136.794   3
  25  -5   7 147.536 189.402   7
  25   5   7 203.795 207.879   7
 -25   5  -8 323.049 198.676   3
  25  -5   8-188.050 113.011   7
  25   5   8 430.234 284.445   7
 -25   5  -9 10519.6 1233.02   3
  25  -5   9 11318.2 1408.96   7
  25  -5  10-362.221 256.270   7
 -25   7  23 1745.30 563.132   6
 -25   7  22 242.147 225.028   6
 -25   7  21 2340.26 617.323   6
 -25   7  20 295.246 360.187   6
 -25   7  19 2366.64 632.875   6
 -25   7  18-40.4934 124.552   6
 -25   7  17 11835.5 1391.08   6
 -25  -7  16-120.389 165.730   2
 -25   7  16-302.406 207.229   6
 -25  -7  15 6894.31 1203.88   2
 -25   7  15 7968.66 1214.27   3
 -25   7  15 7173.69 1071.64   6
 -25  -7  14 6.04832 171.529   2
 -25   7  14 465.598 317.371   3
 -25   7  13 1520.11 517.976   3
 -25  -7  13 2109.82 624.968   2
 -25   7  12-27.0922 132.997   3
 -25  -7  12-219.930 220.446   2
 -25   7  11 6140.82 1046.74   3
 -25  -7  11 5907.69 1132.50   2
 -25   7  10 521.170 345.571   3
 -25  -7  10 105.689 133.270   2
 -25   7   9 3338.88 788.841   3
 -25  -7   9 3347.33 853.464   2
 -25   7   8-23.2267 178.322   3
 -25  -7   8 106.180 88.8976   2
 -25   7   7 6113.00 1046.06   3
 -25  -7   7 6667.85 1190.26   2
 -25   7   6-732.688 359.329   3
 -25  -7   6 327.078 350.215   2
 -25   7   5-40.5342 188.802   3
 -25  -7   5-1.01400 139.452   2
 -25   7   4-223.923 162.851   3
 -25   7   3 9766.66 1318.99   3
 -25   7   2-258.535 216.740   3
  25  -7  -2 161.726 87.8376   5
  25  -7  -1 688.259 348.916   5
  25  -7   0 153.888 248.979   5
  25  -7   1 10990.4 1546.21   5
  25  -7   2-100.586 103.204   5
 -26   0  36-0.69482 76.8905   1
 -26   0  35-114.729 133.271   1
  26   0 -35 216.263 258.257   4
 -26   0  34 8323.35 1076.10   1
  26   0 -34 8755.55 1242.77   4
 -26   0  33 119.771 181.814   1
  26   0 -33 115.179 158.113   4
 -26   0  32 376.385 265.556   1
  26   0 -32 389.136 256.034   4
  26   0 -31 286.849 224.053   4
 -26   0  31 53.4814 136.517   1
 -26   0  30 17333.2 1452.06   1
 -26   0  29 172.270 176.933   1
 -26   0  28 3924.83 666.978   1
 -26   0  27 122.021 168.858   1
 -26   0  26 8890.77 975.354   1
 -26   0  25-129.101 165.435   1
 -26   0  24 431.947 188.034   1
 -26   0  24 403.209 158.499   2
 -26   0  23 168.953 133.658   1
 -26   0  23 74.4585 36.5265   2
 -26   0  22 13542.0 1162.83   1
 -26   0  22 15779.3 1165.01   2
 -26   0  21 73.4441 64.9320   1
 -26   0  21-2.03061 24.0018   2
 -26   0  20 783.760 261.166   2
 -26   0  20 522.339 238.250   1
 -26   0  19 83.4817 160.349   6
 -26   0  19-28.1464 77.1637   2
 -26   0  18 3518.85 556.634   2
 -26   0  18 2279.00 506.375   6
 -26   0  17-52.2522 70.1696   6
 -26   0  17 32.7087 101.748   2
 -26   0  16 10870.3 1118.55   6
 -26   0  16 11849.5 1045.21   2
 -26   0  15-50.4437 180.300   6
 -26   0  15 95.4510 115.393   2
 -26   0  14 13815.6 1249.01   6
 -26   0  14 16351.0 1248.50   2
 -26   0  13 63.5387 180.474   6
 -26   0  13 5.41792 94.7726   2
 -26   0  12 11034.7 1125.94   6
 -26   0  12 11601.7 1073.28   2
 -26   0  11-171.296 162.789   6
 -26   0  10 223.908 192.067   6
  26   0  -9 29.2317 113.016   7
 -26   0   9 10.9520 51.8036   6
  26   0  -8 10299.5 983.276   7
 -26   0   8 12294.1 1173.31   6
  26   0  -7 63.8937 87.5041   7
 -26   0   7 93.9692 170.742   6
  26   0  -6 7871.11 878.237   7
 -26   0   6 7968.14 939.820   6
  26   0  -5-152.791 154.857   7
 -26   0   5-90.1210 110.468   6
  26   0  -4 19059.5 1429.16   7
  26   0  -3-107.937 74.9531   7
 -26   0   3 49.6201 36.5847   3
  26   0  -2 147.529 154.402   7
 -26   0   2 441.936 177.817   3
  26   0  -1 57.6256 98.9703   7
 -26   0   1 55.8252 55.1771   3
 -26   0   0 18803.1 1114.92   3
  26   0   0 16729.2 1405.31   7
  26   0   1-120.090 168.230   7
 -26   0  -1 92.6639 84.6390   3
  26   0   2 1850.17 480.187   7
  26   0   2 1316.08 432.213   4
  26   0   3-53.4238 80.5044   7
  26   0   3 100.397 103.239   4
  26   0   4 7169.00 970.398   7
  26   0   4 8334.11 1069.34   4
  26   0   5 1.25497 102.902   7
  26   0   5-113.994 43.1911   4
  26   0   6 1420.89 441.869   7
  26   0   6 675.503 298.000   4
  26   0   7 0.66196 151.138   7
  26   0   7-126.817 130.592   4
  26   0   8 13632.1 1425.13   7
  26   0   9-180.309 240.518   7
  26   0  10 748.508 337.493   7
  26   0  11 53.4343 225.024   7
  26   0  12 17770.2 1695.33   7
  26   0  13-239.883 243.270   7
 -26  -2  37-18.9244 58.7106   1
 -26  -2  36 251.550 155.413   1
 -26  -2  35-358.961 215.442   1
  26  -2 -35-29.5475 85.2861   4
 -26   2  34 9008.89 1171.11   1
 -26  -2  34 8221.24 1015.15   1
  26  -2 -34 8845.30 1281.17   4
 -26   2  33 211.907 214.217   1
 -26  -2  33 123.712 182.463   1
  26  -2 -33 128.515 215.816   4
 -26   2  32 452.227 269.398   1
 -26  -2  32 389.717 190.945   1
  26  -2 -32 402.781 283.103   4
 -26   2  31-34.7806 99.2473   1
 -26  -2  31 35.3534 84.9274   1
  26  -2 -31 71.6759 100.907   4
 -26   2  30 10687.0 1204.51   1
 -26  -2  30 9323.23 999.896   1
  26  -2 -30 8325.24 1238.22   4
 -26  -2  29 108.905 148.046   2
 -26   2  29 26.8192 129.756   1
 -26  -2  29 102.623 93.4631   1
  26  -2 -29 234.281 258.496   4
 -26  -2  28 79.3308 96.6117   2
 -26   2  28 6.70472 82.5436   1
 -26  -2  28 7.48978 87.0261   1
  26  -2 -28 181.780 185.087   4
 -26  -2  27 194.993 159.423   2
 -26   2  27 223.301 204.922   1
 -26  -2  27 62.5593 86.0520   1
  26  -2 -27 301.299 208.241   4
 -26   2  26 6248.46 880.203   1
 -26  -2  26 6593.84 782.127   1
 -26  -2  26 6536.98 912.006   2
  26  -2 -26 6567.21 1083.65   4
 -26   2  25-80.0824 170.743   1
 -26  -2  25-28.0145 73.0000   1
  26  -2 -25 58.9454 150.196   4
 -26  -2  25-57.0766 128.316   2
 -26   2  24 1021.46 344.750   1
 -26  -2  24 1050.31 304.707   1
  26  -2 -24 676.723 320.481   4
 -26  -2  24 908.259 291.787   2
 -26   2  23 34.4891 103.490   1
 -26  -2  23 41.2543 71.1044   1
 -26   2  23-179.434 205.296   6
  26  -2 -23-134.331 192.817   4
 -26  -2  23-5.20700 69.6723   2
 -26   2  22 16915.4 1396.57   1
 -26  -2  22 16331.4 1186.23   1
 -26   2  22 16883.0 1502.51   6
 -26  -2  22 17903.3 1483.13   2
  26  -2 -22 15807.1 1692.48   4
 -26   2  21 60.4233 214.956   6
 -26  -2  21-90.8433 50.9779   2
  26  -2 -21 248.341 276.148   4
 -26  -2  21 19.1477 60.1303   1
 -26   2  20 6255.90 896.873   6
 -26  -2  20 6244.39 873.703   2
  26  -2 -20 7060.43 1116.11   4
 -26   2  19-33.2361 171.795   6
 -26  -2  19-172.580 115.826   2
  26  -2 -19-60.2651 110.071   4
  26  -2 -18 3956.38 494.198   7
 -26   2  18 2961.67 618.951   6
 -26  -2  18 3283.97 595.197   6
 -26  -2  18 3552.19 652.175   2
  26  -2 -18 3313.67 771.099   4
  26  -2 -17 47.1542 92.2252   7
 -26   2  17-6.42942 89.2384   6
 -26  -2  17-137.579 101.310   6
 -26  -2  17-170.025 163.460   2
  26  -2 -17 245.592 253.300   4
  26  -2 -16 7012.14 689.575   7
 -26   2  16 5713.67 843.087   6
 -26  -2  16 5548.99 759.975   6
 -26  -2  16 6486.52 891.401   2
  26  -2 -16 5648.67 982.742   4
  26  -2 -15-62.2846 84.9898   7
 -26   2  15 49.2305 178.692   6
 -26  -2  15 20.9770 106.959   6
 -26  -2  15 161.683 148.070   2
  26  -2 -15 234.722 138.036   4
  26  -2 -14 22067.6 1266.95   7
 -26   2  14 18304.9 1526.17   6
 -26  -2  14 18040.8 1378.21   6
 -26  -2  14 21683.6 1629.10   2
  26  -2 -14 18863.5 1795.30   4
  26  -2 -13 42.5840 92.6920   7
 -26   2  13-110.973 146.113   6
 -26  -2  13-91.2388 147.181   6
 -26  -2  13-167.349 162.454   2
  26  -2 -13 295.349 304.500   4
  26  -2 -12 8250.66 802.222   7
 -26   2  12 8227.42 1016.27   6
 -26  -2  12 8345.04 938.373   6
 -26  -2  12 8307.19 1015.90   2
  26  -2 -12 8460.93 1189.41   4
  26  -2 -11 14.8299 34.8841   7
 -26   2  11 103.536 135.520   6
 -26  -2  11 94.6410 50.2883   6
 -26  -2  11 304.508 189.286   2
  26  -2 -10 311.299 134.986   7
 -26   2  10 658.306 312.409   6
 -26  -2  10 156.169 159.370   6
 -26  -2  10 148.500 94.5300   2
  26  -2 -10 192.667 201.120   4
  26  -2  -9 117.786 137.277   7
 -26   2   9-46.0915 137.304   6
 -26  -2   9-113.880 75.1905   6
 -26  -2   9 75.7262 97.8713   2
  26  -2  -9-165.954 210.714   4
  26  -2  -8 18654.8 1314.26   7
 -26   2   8 15217.2 1354.79   6
 -26  -2   8 14943.9 1223.51   6
 -26  -2   8 13928.7 1346.82   2
  26  -2  -8 15673.4 1605.15   4
  26  -2  -7 103.811 108.053   7
 -26   2   7 38.2480 102.717   6
 -26  -2   7-18.7044 54.2249   6
 -26   2   7 38.9267 115.371   3
 -26  -2   7 92.3597 77.1617   2
  26  -2  -6 3632.09 598.492   7
 -26   2   6 4318.74 660.690   3
 -26  -2   6 3879.61 609.364   6
 -26   2   6 3678.99 673.896   6
 -26  -2   6 3860.81 714.414   2
  26  -2  -6 4388.17 845.026   4
  26  -2  -5 202.221 165.060   7
 -26   2   5 56.2291 110.307   3
 -26  -2   5-90.4329 108.813   2
  26  -2  -5-61.6506 112.163   4
  26  -2  -4 10229.8 1039.88   7
 -26   2   4 9134.54 942.995   3
 -26  -2   4 8083.67 1047.84   2
  26  -2  -4 9742.92 1236.09   4
  26  -2  -3-131.888 129.208   7
 -26   2   3 69.0310 99.5040   3
 -26  -2   3 48.7241 45.1864   2
  26  -2  -3-99.9348 256.969   4
  26  -2  -2-96.0511 82.5538   7
  26   2  -2 32.7323 131.156   7
 -26   2   2-62.2823 79.6223   3
  26  -2  -2 14.6977 109.218   4
  26  -2  -1-26.9034 140.752   7
 -26   2   1-59.1351 97.6763   3
  26   2  -1 378.761 224.649   7
  26  -2  -1 99.4481 162.866   4
  26  -2   0 12134.9 1205.58   7
 -26   2   0 14183.6 1150.72   3
  26   2   0 13410.7 1292.21   7
  26  -2   0 14868.4 1518.56   4
  26  -2   1-28.0083 104.290   7
 -26   2  -1-67.1336 52.6262   3
  26   2   1-147.598 225.482   7
  26  -2   1 81.6516 200.483   4
  26  -2   2 1935.37 483.312   7
 -26   2  -2 2070.61 438.095   3
  26   2   2 2100.33 517.876   7
  26  -2   2 1908.12 530.407   4
  26  -2   3-45.5502 130.667   7
 -26   2  -3-105.215 135.167   3
  26   2   3 3.07447 81.8848   7
  26  -2   3-20.3912 128.303   4
 -26   2  -4 21802.3 1404.65   3
  26  -2   4 22156.6 1720.57   7
  26   2   4 23514.5 1778.05   7
  26  -2   4 23773.9 1848.39   4
  26  -2   5 335.358 229.285   7
  26   2   5-5.71590 165.820   7
  26  -2   5 17.5863 54.0833   4
  26  -2   6 3257.48 680.305   7
  26   2   6 2802.56 623.822   7
  26  -2   6 3227.30 663.626   4
  26  -2   7 273.766 253.204   7
  26   2   7 76.9427 77.3126   7
  26  -2   8 13421.6 1428.23   7
  26   2   8 13247.2 1390.26   7
  26  -2   9-40.0984 216.407   7
  26   2   9-237.302 184.806   7
  26  -2  10 163.656 128.970   7
  26   2  10-116.903 147.286   7
  26  -2  11 66.4583 197.873   7
  26   2  11 86.9388 115.980   7
  26  -2  12 8962.61 1238.84   7
  26   2  12 6708.70 1048.28   7
 -26  -4  33-45.1564 96.5088   2
 -26  -4  32 238.373 185.540   2
 -26  -4  31-273.138 221.356   2
 -26   4  31 186.877 296.587   6
 -26   4  30 13250.2 1423.22   1
 -26   4  30 12237.4 1431.24   6
 -26  -4  30 10087.3 1336.64   2
 -26  -4  29 231.376 579.475   2
 -26   4  29 157.374 188.309   1
 -26   4  29-113.195 169.031   6
 -26  -4  28 965.099 411.309   2
 -26   4  28 747.721 357.353   6
 -26  -4  27 275.875 254.923   2
 -26   4  27 139.593 139.959   1
 -26   4  27 602.073 337.194   6
  26  -4 -27 158.898 53.1523   4
 -26   4  26 5937.57 933.589   1
 -26  -4  26 5158.47 922.764   2
 -26   4  26 5660.43 943.555   6
  26  -4 -26 4335.39 920.918   4
 -26  -4  25-71.1529 115.809   2
 -26   4  25-259.695 238.251   6
  26  -4 -25 200.881 242.532   4
 -26   4  25 37.9133 83.2283   1
 -26  -4  24 893.959 399.964   2
 -26   4  24 222.745 157.833   6
  26  -4 -24 688.228 365.661   4
 -26  -4  23-189.355 180.224   2
 -26   4  23 217.823 136.816   6
  26  -4 -23 78.5916 111.625   4
 -26   4  22 15493.7 1509.58   6
 -26  -4  22 14048.7 1521.45   2
  26  -4 -22 13089.0 1634.42   4
 -26  -4  21-6.07074 95.8050   2
 -26   4  21-4.74767 87.9056   6
 -26  -4  20 2281.16 601.814   2
 -26   4  20 2134.76 561.709   6
  26  -4 -20 3384.77 843.242   4
 -26  -4  19 109.337 50.7047   2
  26  -4 -19 2.81314 108.702   4
 -26  -4  18 4578.85 691.101   6
 -26   4  18 5087.06 852.247   6
  26  -4 -18 4241.69 934.881   4
 -26  -4  18 4137.14 813.150   2
 -26   4  17-70.8755 168.721   6
 -26  -4  17 276.518 144.792   6
  26  -4 -17 30.6542 163.764   4
 -26  -4  17-180.009 91.9847   2
 -26  -4  16 5393.43 751.989   6
 -26   4  16 4746.10 823.481   6
 -26  -4  16 5539.93 923.781   2
  26  -4 -16 5490.10 1059.17   4
 -26   4  15-3.96193 105.225   6
 -26  -4  15-42.6091 108.214   6
  26  -4 -15-276.880 271.477   4
 -26  -4  15-149.605 160.213   2
 -26   4  14 15837.3 1494.16   3
 -26   4  14 12308.1 1321.34   6
 -26  -4  14 14201.4 1167.95   6
 -26  -4  14 16175.7 1598.54   2
  26  -4 -14 13394.4 1636.98   4
 -26   4  13-11.7958 168.140   6
 -26  -4  13-8.98792 169.116   6
 -26   4  13 60.7688 91.1180   3
  26  -4 -13 84.6730 144.639   4
 -26  -4  13-273.170 180.624   2
 -26   4  12 7726.37 1027.53   3
 -26   4  12 7147.80 1002.47   6
 -26  -4  12 9493.78 937.901   6
 -26  -4  12 6602.46 1020.48   2
  26  -4 -12 7161.60 1183.39   4
 -26   4  11-44.6100 202.413   6
 -26  -4  11 475.729 191.837   6
 -26   4  11 265.683 206.371   3
  26  -4 -11 144.453 117.375   4
 -26  -4  11 180.447 180.055   2
 -26   4  10 100.751 158.447   6
 -26  -4  10 274.448 152.317   6
 -26   4  10 163.527 149.115   3
 -26  -4  10 95.7289 145.016   2
  26  -4 -10 184.387 177.587   4
  26  -4  -9 23.8852 57.8409   7
 -26   4   9-82.2227 206.981   6
 -26  -4   9 90.8589 117.855   6
 -26   4   9-33.6177 125.574   3
 -26  -4   9 126.822 49.6951   2
  26  -4  -9-134.215 263.594   4
  26  -4  -8 10221.7 951.969   7
 -26   4   8 9246.87 1092.75   3
 -26   4   8 7918.76 1028.72   6
 -26  -4   8 9239.03 1211.01   2
  26  -4  -8 9714.65 1369.87   4
  26  -4  -7 330.338 176.225   7
 -26   4   7 477.937 209.507   3
 -26  -4   7 172.987 206.090   2
  26  -4  -7-219.115 78.2659   4
  26  -4  -6 5693.33 756.171   7
 -26   4   6 4160.05 718.738   3
 -26  -4   6 3696.25 751.988   2
  26  -4  -6 4640.05 928.125   4
  26  -4  -5 71.9578 136.180   7
 -26   4   5 79.6024 105.149   3
 -26  -4   5-189.581 249.215   2
  26  -4  -4 12268.2 1151.76   7
 -26   4   4 10477.6 1140.37   3
 -26  -4   4 11220.8 1357.98   2
  26  -4  -3 265.187 199.477   7
 -26   4   3-24.8652 100.680   3
 -26  -4   3 275.443 220.596   2
  26  -4  -2-60.4019 146.592   7
 -26   4   2-26.5853 110.899   3
 -26  -4   2-31.5906 182.075   2
  26  -4  -1 66.7680 86.7073   7
 -26   4   1 332.566 191.878   3
  26  -4   0 11397.9 1207.04   7
 -26   4   0 9847.13 1108.87   3
 -26  -4   0 11951.2 1417.99   2
  26  -4   1 1.22136 55.1353   7
 -26   4  -1-93.8461 139.715   3
 -26  -4  -1 30.7967 131.397   2
  26  -4   2 873.800 316.148   7
 -26   4  -2 396.928 180.973   3
  26   4   2 891.758 362.716   7
 -26  -4  -2 735.540 340.496   2
  26  -4   3 286.104 231.135   7
 -26   4  -3 196.888 186.818   3
  26   4   3-4.78311 74.6878   7
 -26   4  -4 12755.7 1278.13   3
  26  -4   4 11123.3 1279.55   7
  26   4   4 14800.1 1492.49   7
  26  -4   5 21.1267 144.277   7
 -26   4  -5 55.5177 88.0263   3
  26   4   5-17.5049 101.758   7
 -26   4  -6 760.819 316.811   3
  26  -4   6 393.114 220.110   7
  26   4   6 797.540 351.704   7
  26  -4   7 100.612 221.674   7
  26   4   7-14.4604 98.7955   7
  26  -4   8 10209.5 1305.81   7
  26   4   8 9844.98 1250.65   7
  26  -4   9 33.5783 162.084   7
  26   4   9-169.341 220.871   7
  26  -4  10-114.397 143.775   7
 -26   6  25-209.826 175.440   6
 -26  -6  24 479.794 316.087   2
 -26   6  24 852.424 385.366   6
 -26  -6  23 158.207 262.667   2
 -26   6  23-61.2289 333.650   6
 -26   6  22 12272.8 1540.17   3
 -26   6  22 11572.3 1404.66   6
 -26  -6  22 11449.9 1522.29   2
 -26  -6  21-43.5655 167.990   2
 -26   6  21 711.993 352.544   3
 -26  -6  20 1502.69 556.997   2
 -26   6  20 1737.49 558.181   3
 -26   6  20 1511.38 492.562   6
 -26  -6  19 143.233 187.580   2
 -26   6  19 39.5609 80.2248   3
 -26   6  19 68.6814 89.1261   6
 -26  -6  18 3685.73 860.027   2
 -26   6  18 5063.65 965.182   3
 -26   6  18 3580.69 758.267   6
 -26  -6  17 141.757 142.050   2
 -26   6  17-45.1307 133.637   3
 -26   6  17-230.938 193.803   6
 -26  -6  16 5179.87 1004.01   2
 -26   6  16 4332.83 885.295   3
 -26   6  16 4709.49 869.666   6
 -26   6  15-1.62107 145.130   3
 -26   6  15-57.4689 200.313   6
 -26  -6  15-142.051 114.436   2
 -26   6  14 8498.33 1204.93   3
 -26   6  14 9986.83 1266.09   6
 -26  -6  14 9907.52 1393.19   2
 -26   6  13-13.3988 142.889   3
 -26   6  13-114.681 227.862   6
 -26  -6  13 119.334 161.018   2
 -26   6  12 5781.83 977.261   3
 -26   6  12 7422.27 1080.01   6
 -26  -6  12 5862.05 1072.84   2
 -26   6  11 730.386 371.013   3
 -26  -6  11 217.056 271.277   2
 -26   6  10 588.784 307.638   3
 -26  -6  10 164.580 73.2048   2
 -26   6   9-35.1828 117.412   3
 -26  -6   9-224.063 273.689   2
 -26   6   8 7131.20 1092.00   3
 -26  -6   8 7174.56 1183.93   2
 -26   6   7 135.548 149.347   3
 -26  -6   7 236.525 188.655   2
 -26   6   6 3253.29 733.178   3
 -26  -6   6 4813.13 1047.25   2
 -26   6   5-375.642 246.942   3
 -26  -6   5 174.964 236.628   2
 -26   6   4 7537.44 1108.10   3
 -26  -6   4 9455.63 1390.23   2
 -26   6   3 20.2427 147.184   3
 -26  -6   3 103.738 58.6586   2
 -26   6   2 37.5450 197.670   3
 -26  -6   2 282.255 282.200   2
 -26   6   1-7.51848 99.1600   3
 -26  -6   1 298.490 273.447   2
 -26   6   0 8593.11 1177.28   3
 -26  -6   0 10285.1 1449.29   2
 -26   6  -1-12.2084 180.986   3
 -26  -6  -1-367.852 275.120   2
 -26   6  -2 404.817 304.030   3
 -26   6  -3 248.768 179.300   3
 -26   6  -4 8217.10 1169.89   3
  26  -6   4 7918.78 1133.96   7
  26  -6   4 7739.58 1238.73   5
  26  -6   5 10.1159 86.3517   7
 -26   6  -5-189.776 55.3656   3
  26  -6   5 73.6479 167.656   5
  26  -6   6 582.093 307.757   7
 -26   6  -6 80.6739 216.697   3
  26  -6   6 492.886 286.367   5
 -26   6  -7 124.937 147.798   3
  26  -6   7-60.2922 130.839   7
 -27  -1  36 68.3458 92.4419   1
 -27  -1  35 9779.13 1160.68   1
  27  -1 -35 10512.6 1380.47   4
 -27   1  34 156.555 150.730   1
 -27  -1  34 221.224 213.315   1
 -27   1  33 175.384 180.009   1
 -27  -1  33 52.7236 69.6353   1
  27  -1 -33 11.9134 124.608   4
 -27   1  32 1.29842 47.4262   1
 -27  -1  32-26.6183 41.8068   1
  27  -1 -32-60.4949 158.410   4
 -27   1  31 8334.63 1053.35   1
 -27  -1  31 7520.35 948.685   1
  27  -1 -31 7796.49 1202.16   4
 -27   1  30 113.447 150.118   1
 -27  -1  30-8.11572 101.906   1
 -27   1  29 310.596 199.360   1
 -27  -1  29 252.570 126.149   1
  27  -1 -29 471.530 335.268   4
 -27   1  28-109.629 76.0367   1
 -27  -1  28-40.7302 88.6780   1
  27  -1 -28 9.33845 145.203   4
 -27   1  27 18145.7 1480.85   1
 -27  -1  27 18530.5 1400.70   1
  27  -1 -27 19480.5 1874.69   4
 -27   1  26 236.786 216.673   1
 -27  -1  26 172.204 117.141   1
 -27  -1  26 8.32254 78.0035   2
  27  -1 -26 174.847 145.795   4
 -27   1  25 1105.15 367.353   1
 -27  -1  25 926.872 301.717   1
 -27  -1  25 619.177 231.952   2
  27  -1 -25 1157.56 445.741   4
 -27   1  24 14.9428 122.151   1
 -27  -1  24-0.92892 76.2513   1
  27  -1 -24-252.832 263.556   4
 -27   1  23 6886.59 883.225   1
 -27  -1  23 6831.57 815.186   1
 -27  -1  23 7089.85 868.546   2
  27  -1 -23 6548.57 1087.38   4
 -27   1  22-102.178 194.666   6
 -27  -1  22-63.7929 113.254   2
 -27   1  22 171.028 123.484   1
  27  -1 -22 309.020 277.939   4
 -27  -1  22 61.1267 81.3321   1
 -27   1  21 4437.77 758.752   6
 -27  -1  21 4673.98 714.539   2
  27  -1 -21 4835.22 905.294   4
  27  -1 -20-26.4467 116.011   4
 -27   1  20-52.0893 94.0731   6
 -27  -1  20-132.114 110.525   2
 -27   1  19 15372.9 1375.41   6
 -27  -1  19 14500.2 1304.58   6
 -27  -1  19 17174.6 1365.53   2
 -27   1  18-98.7860 147.118   6
 -27  -1  18 34.0900 105.296   6
 -27  -1  18 9.21818 34.0297   2
 -27   1  17 3562.40 682.746   6
 -27  -1  17 3701.85 641.400   6
 -27  -1  17 3708.55 638.504   2
  27  -1 -16-34.4497 28.9952   7
 -27   1  16-167.606 141.604   6
 -27  -1  16-42.4928 95.6940   6
 -27  -1  16 123.064 134.981   2
  27  -1 -15 3241.26 512.620   7
 -27   1  15 2254.54 536.496   6
 -27  -1  15 3006.51 576.305   6
 -27  -1  15 2436.89 527.733   2
  27  -1 -14-40.8268 124.330   7
 -27  -1  14 51.7046 140.019   6
 -27  -1  14 5.80875 74.7708   2
  27  -1 -13 5226.28 669.756   7
 -27  -1  13 6024.37 833.387   6
 -27   1  13 5085.46 781.227   6
 -27  -1  13 5811.86 815.761   2
  27  -1 -12-130.045 156.436   7
 -27   1  12 111.341 148.215   6
 -27  -1  12-161.522 126.586   6
 -27  -1  12-22.6347 60.4129   2
  27  -1 -11 10944.7 1381.58   4
  27  -1 -11 9158.81 909.191   7
 -27   1  11 11011.3 1174.44   6
 -27  -1  11 9243.11 1031.41   6
 -27  -1  11 10220.7 1087.15   2
  27  -1 -10-32.5300 73.7166   7
 -27   1  10-128.520 137.344   6
 -27  -1  10 22.2334 69.9246   6
 -27  -1  10 35.1890 92.4160   2
  27  -1  -9 16559.2 1251.19   7
 -27   1   9 15020.9 1366.86   6
 -27  -1   9 15180.5 1304.59   6
 -27  -1   9 15301.1 1363.45   2
  27  -1  -9 15872.1 1654.66   4
  27  -1  -8 77.9695 147.706   7
 -27   1   8 272.482 210.219   6
 -27  -1   8-115.389 186.544   6
 -27  -1   8-22.6496 88.8700   2
  27  -1  -7 492.548 222.917   7
 -27   1   7 485.167 213.671   6
 -27  -1   7 580.237 232.302   6
  27  -1  -7 817.972 427.704   4
  27  -1  -6 20.7059 102.272   7
  27   1  -6-18.9781 291.141   7
 -27   1   6-78.3250 115.902   6
 -27  -1   6 19.2970 118.395   6
  27  -1  -6 73.9639 111.975   4
  27  -1  -5 12969.1 1181.98   7
  27   1  -5 12114.6 1162.39   7
 -27   1   5 13445.8 1114.29   3
  27  -1  -5 13607.6 1490.00   4
  27  -1  -4 82.0621 177.436   7
  27   1  -4-25.6519 99.4207   7
 -27   1   4-74.7444 76.9492   3
  27  -1  -4-80.1788 161.358   4
  27  -1  -3 4358.69 705.615   7
  27   1  -3 4486.73 720.232   7
 -27   1   3 4932.55 657.522   3
  27  -1  -3 5473.82 926.910   4
  27  -1  -2 26.3107 69.1372   7
  27   1  -2 22.4050 87.5559   7
 -27   1   2 16.8139 35.8624   3
  27  -1  -2 22.2503 154.770   4
  27  -1  -1 12038.6 1212.99   7
 -27   1   1 12250.6 1011.79   3
  27   1  -1 11285.3 1188.15   7
  27  -1  -1 12382.9 1380.79   4
  27  -1   0-50.6781 95.2408   7
  27   1   0 146.442 125.690   7
 -27   1   0 70.9934 53.1809   3
  27  -1   0-212.655 126.215   4
  27  -1   1 607.980 296.382   7
 -27   1  -1 316.635 179.298   3
  27   1   1 511.528 237.987   7
  27  -1   1 333.626 238.118   4
  27  -1   2-163.811 85.6478   7
  27   1   2-80.3674 117.562   7
  27  -1   2 68.9875 133.525   4
  27  -1   3 11068.6 1231.42   7
  27   1   3 10971.5 1235.77   7
  27  -1   3 11586.3 1302.09   4
  27  -1   4 174.374 167.143   7
  27   1   4 81.0253 174.693   7
  27  -1   4 227.712 226.034   4
  27  -1   5 49.6961 166.550   7
  27   1   5 28.3068 208.884   7
  27  -1   5 221.966 234.767   4
  27  -1   6-111.596 130.875   7
  27   1   6 157.626 156.522   7
  27  -1   6 61.8189 124.778   4
  27   1   6-100.035 134.981   4
  27  -1   7 12707.9 1385.83   7
  27   1   7 13922.7 1446.98   7
  27  -1   7 11978.8 1279.47   4
  27  -1   8-197.744 157.749   7
  27   1   8-133.862 76.9264   7
  27  -1   9 1578.44 492.686   7
  27   1   9 2136.67 587.887   7
  27  -1  10-70.0462 137.947   7
  27   1  10 64.7966 127.727   7
  27   1  11 5382.68 945.365   7
  27  -1  11 5402.44 951.403   7
  27  -3 -34 602.014 339.592   4
  27  -3 -33-96.3546 142.677   4
  27  -3 -32-483.886 314.438   4
 -27   3  31 5647.44 927.227   1
 -27  -3  31 4521.45 836.393   2
  27  -3 -31 4568.29 971.779   4
 -27  -3  30-25.6821 75.3811   2
 -27   3  30 6.91377 48.5052   1
  27  -3 -30-75.4882 149.759   4
 -27  -3  29 250.450 207.313   2
 -27   3  29 437.001 260.607   1
  27  -3 -29 345.248 274.919   4
 -27  -3  28 112.721 155.335   2
 -27   3  28 39.1582 176.556   1
 -27   3  28-84.1906 219.859   6
  27  -3 -28 46.8777 92.4096   4
 -27   3  27 14816.1 1436.75   1
 -27   3  27 15859.5 1572.67   6
 -27  -3  27 13802.0 1455.54   2
  27  -3 -27 13544.4 1659.39   4
 -27  -3  26 207.837 227.921   2
 -27   3  26 284.817 174.396   1
 -27   3  26 52.7980 205.672   6
  27  -3 -26 25.0739 131.147   4
 -27   3  25 339.803 214.775   1
 -27  -3  25 339.824 248.478   2
 -27   3  25 256.262 243.266   6
  27  -3 -25 610.513 319.559   4
 -27  -3  24-18.2464 95.0991   2
 -27   3  24-319.909 223.243   6
  27  -3 -24 119.418 200.910   4
 -27   3  24 38.7710 104.413   1
 -27   3  23 7967.80 1091.44   6
 -27  -3  23 8602.04 1130.53   2
  27  -3 -23 8771.75 1317.07   4
 -27   3  22-12.0628 133.271   6
  27  -3 -22 75.5204 177.821   4
 -27  -3  22-44.6949 50.5035   2
 -27   3  21 3356.20 685.542   6
  27  -3 -21 4564.63 945.623   4
 -27  -3  21 3492.25 709.117   2
 -27   3  20 117.764 133.032   6
  27  -3 -20 166.825 234.320   4
 -27  -3  20 108.489 153.740   2
 -27   3  19 16112.0 1509.62   6
 -27  -3  19 14300.4 1257.22   6
 -27  -3  19 16796.4 1560.67   2
  27  -3 -19 14896.4 1713.97   4
 -27   3  18-307.634 259.295   6
 -27  -3  18 8.66671 105.881   6
  27  -3 -18-25.9572 158.421   4
 -27  -3  18-32.0471 43.8208   2
 -27   3  17 9192.35 1135.32   6
 -27  -3  17 7501.59 908.645   6
 -27  -3  17 8159.16 1070.30   2
  27  -3 -17 7398.68 1175.84   4
 -27   3  16-80.3445 145.032   6
 -27  -3  16 63.9195 98.6564   6
 -27  -3  16-89.4675 200.103   2
  27  -3 -16 430.686 347.775   4
 -27   3  15 2072.23 546.292   6
 -27  -3  15 3030.13 548.770   6
 -27  -3  15 3140.68 686.211   2
  27  -3 -15 1965.86 566.386   4
 -27   3  14 40.8556 155.813   6
 -27  -3  14 156.808 125.951   6
 -27  -3  14 119.360 105.550   2
  27  -3 -14 147.045 114.845   4
  27  -3 -13 4984.15 606.855   7
 -27  -3  13 5345.72 751.365   6
 -27   3  13 4565.57 793.260   6
 -27  -3  13 4269.56 775.148   2
  27  -3 -13 5970.73 1059.27   4
  27  -3 -12 147.612 116.908   7
 -27   3  12 96.2199 117.725   6
 -27  -3  12 0.49096 94.1801   6
 -27  -3  12 33.9404 117.720   2
  27  -3 -12-17.4414 224.167   4
  27  -3 -11 14268.0 1086.28   7
 -27   3  11 13155.5 1349.04   6
 -27  -3  11 14576.3 1221.69   6
 -27   3  11 12475.4 1265.55   3
 -27  -3  11 12012.0 1328.11   2
  27  -3 -11 12282.5 1521.40   4
  27  -3 -10 394.973 184.241   7
 -27   3  10 189.094 166.040   6
 -27  -3  10 165.176 153.841   6
 -27   3  10 276.982 190.568   3
 -27  -3  10 232.915 135.012   2
  27  -3 -10 412.151 347.981   4
  27  -3  -9 7019.77 794.391   7
 -27   3   9 5676.07 822.996   3
 -27   3   9 5836.47 891.783   6
 -27  -3   9 7403.52 851.536   6
 -27  -3   9 6121.77 955.932   2
  27  -3  -9 5701.38 1028.87   4
  27  -3  -8 3.54085 55.3810   7
 -27   3   8 71.3489 71.3049   6
 -27  -3   8-77.5326 120.149   6
 -27   3   8 63.4958 60.8180   3
 -27  -3   8-95.8386 131.831   2
  27  -3  -7 434.050 212.214   7
 -27  -3   7 679.405 267.186   6
 -27   3   7 155.646 118.129   6
 -27   3   7 410.526 231.645   3
 -27  -3   7 392.729 227.336   2
  27  -3  -7 610.529 327.634   4
  27  -3  -6 288.560 136.585   7
 -27   3   6 311.380 201.685   3
 -27  -3   6 605.763 294.103   2
  27  -3  -6-165.840 182.947   4
  27  -3  -5 11807.6 1129.76   7
 -27   3   5 9577.99 1043.68   3
 -27  -3   5 10338.6 1257.23   2
  27  -3  -5 13273.5 1559.39   4
  27  -3  -4 360.377 234.688   7
 -27   3   4-86.3237 149.806   3
 -27  -3   4-95.8386 205.796   2
  27  -3  -4 220.852 252.061   4
  27  -3  -3 3213.94 617.750   7
 -27   3   3 3125.10 595.686   3
 -27  -3   3 3112.02 690.877   2
  27  -3  -3 3694.52 808.016   4
  27  -3  -2 37.0508 75.0232   7
 -27   3   2-44.5160 129.145   3
 -27  -3   2 311.606 243.091   2
  27  -3  -2 0.80954 131.551   4
  27  -3  -1 12984.7 1270.33   7
 -27   3   1 13695.1 1240.65   3
  27   3  -1 14049.6 1379.01   7
 -27  -3   1 13293.6 1464.61   2
  27  -3  -1 13409.5 1521.16   4
  27  -3   0 42.6713 102.851   7
 -27   3   0 31.2592 57.2548   3
  27   3   0 65.8713 136.247   7
  27  -3   0 225.596 196.007   4
  27  -3   1 179.757 167.114   7
 -27   3  -1 327.412 200.753   3
  27   3   1 253.856 164.487   7
  27  -3   1 483.064 266.663   4
  27  -3   2 163.459 176.092   7
 -27   3  -2-237.456 162.954   3
  27   3   2-63.0257 78.0304   7
  27  -3   2 142.275 113.871   4
 -27   3  -3 12317.9 1170.13   3
  27  -3   3 13298.7 1381.19   7
  27   3   3 13641.2 1401.87   7
 -27   3  -4 3.13633 114.008   3
  27  -3   4-145.359 49.3972   7
  27   3   4-1.37697 76.1271   7
  27  -3   5 236.390 237.476   7
  27   3   5 592.461 292.666   7
  27  -3   6 25.4928 140.298   7
  27   3   6 84.8313 67.1814   7
  27  -3   7 13341.1 1468.63   7
  27   3   7 11693.5 1343.14   7
  27  -3   8 168.064 224.040   7
  27   3   8-29.2843 106.046   7
  27  -3   9 2687.76 656.068   7
  27   3   9 3086.22 707.869   7
  27  -3  10 141.359 229.380   7
 -27  -5  29-242.892 221.396   2
 -27  -5  28-515.824 319.632   2
 -27   5  27 15223.8 1609.50   6
 -27  -5  27 14137.5 1658.20   2
 -27  -5  26 87.9219 119.273   2
 -27   5  26 388.999 259.310   6
 -27  -5  25 1902.17 620.927   2
 -27   5  25 1584.11 504.372   6
 -27  -5  24 362.864 220.222   2
 -27   5  24 12.3808 157.057   6
 -27  -5  23 5439.92 1003.83   2
 -27   5  23 4823.71 892.956   6
 -27  -5  22 287.747 270.779   2
 -27   5  22-7.60385 75.4114   6
 -27  -5  21 2458.24 677.828   2
 -27   5  21 2563.75 649.677   6
 -27   5  21 2539.64 673.418   3
 -27  -5  20-193.819 225.317   2
 -27   5  20 367.275 269.458   6
 -27   5  20 124.377 228.575   3
 -27   5  19 12465.4 1482.03   3
 -27   5  19 12724.1 1408.10   6
 -27  -5  19 11169.9 1432.47   2
 -27   5  18-45.7639 93.9303   6
 -27   5  18-104.955 48.1378   3
 -27  -5  18 154.721 127.947   2
 -27   5  17 1840.62 527.083   6
 -27   5  17 3042.75 715.762   3
 -27  -5  17 2550.79 673.802   2
 -27   5  16 512.841 282.658   6
 -27   5  16 58.1932 50.9826   3
 -27  -5  16 869.981 394.192   2
 -27   5  15 1503.02 479.882   6
 -27   5  15 2693.43 673.188   3
 -27  -5  15 2176.28 611.646   2
 -27   5  14 150.156 103.641   6
 -27   5  14-88.0693 102.856   3
 -27  -5  14 160.763 194.877   2
 -27   5  13 5527.02 935.739   3
 -27   5  13 6349.73 974.795   6
 -27  -5  13 5864.11 1018.90   2
 -27   5  12-294.013 208.340   6
 -27  -5  12-80.5844 60.2471   2
 -27   5  11 10264.1 1261.42   3
 -27   5  11 9276.69 1207.16   6
 -27  -5  11 11175.8 1418.07   2
 -27   5  10 96.7745 87.6441   3
 -27  -5  10 298.333 184.960   2
 -27   5   9 9749.71 1212.94   3
 -27  -5   9 9756.63 1334.65   2
 -27   5   8 0.69607 192.087   3
 -27  -5   8 294.781 220.572   2
 -27   5   7 487.607 273.421   3
 -27  -5   7 504.700 296.010   2
 -27   5   6 711.986 340.642   3
 -27  -5   6 210.006 91.4931   2
 -27   5   5 7672.63 1060.79   3
 -27  -5   5 9150.25 1297.20   2
 -27   5   4-124.060 168.050   3
 -27  -5   4-195.498 261.188   2
 -27   5   3 5757.35 919.299   3
 -27  -5   3 5820.44 1039.86   2
  27  -5  -2 184.066 170.243   7
 -27   5   2 14.2813 74.5025   3
 -27  -5   2-114.862 119.907   2
  27  -5  -1 6919.89 945.890   7
 -27   5   1 6234.94 960.227   3
 -27  -5   1 7408.59 1182.11   2
  27  -5   0 115.886 169.411   7
 -27   5   0-42.3189 56.7482   3
 -27  -5   0 164.193 184.153   2
  27  -5   1 815.420 315.185   7
 -27   5  -1 595.946 285.675   3
 -27  -5  -1 490.556 297.612   2
  27  -5   2 176.896 141.839   7
 -27   5  -2 37.3262 125.357   3
  27   5   2 452.111 215.855   7
 -27  -5  -2 48.1521 77.7416   2
 -27   5  -3 9534.28 1203.71   3
  27  -5   3 9156.08 1203.02   7
  27   5   3 10613.2 1321.92   7
  27  -5   4-88.0823 81.7639   7
 -27   5  -4 188.073 141.679   3
  27   5   4 272.861 188.051   7
  27  -5   5 218.463 185.506   7
 -27   5  -5 372.260 231.072   3
 -27   5  -6-174.260 163.836   3
  27  -5   6 362.972 262.742   7
  27  -5   7 6699.12 1098.17   7
  28   0 -36 1340.74 524.166   4
 -28   0  35-15.0004 78.1558   1
  28   0 -35 44.0547 193.350   4
 -28   0  34 129.556 204.684   1
  28   0 -34 190.810 248.626   4
 -28   0  33 269.619 190.764   1
  28   0 -33 306.174 289.002   4
 -28   0  32 16820.7 1493.67   1
  28   0 -32 17498.9 1840.77   4
 -28   0  31-121.189 136.951   1
  28   0 -31 453.669 327.252   4
 -28   0  30 53.3554 92.4490   1
 -28   0  29-59.4322 125.493   1
 -28   0  28 10366.8 1111.07   1
 -28   0  27 30.3773 72.0662   1
 -28   0  26 1869.27 447.431   1
 -28   0  25-3.12541 99.5156   1
 -28   0  24 13818.3 1220.97   1
 -28   0  23 62.3987 100.092   2
 -28   0  23-94.7738 79.0877   1
 -28   0  22 1187.84 357.566   6
 -28   0  22 593.082 220.770   2
 -28   0  21-74.9780 168.481   6
 -28   0  21 121.946 131.024   2
 -28   0  20 4931.98 796.904   6
 -28   0  20 5656.62 738.466   2
 -28   0  19-135.025 191.082   6
 -28   0  19-23.3072 55.2515   2
 -28   0  18 2274.35 537.928   6
 -28   0  18 2393.24 470.109   2
 -28   0  17 5.22938 121.886   6
 -28   0  17-78.6178 116.867   2
 -28   0  16 13808.1 1311.33   6
 -28   0  16 17689.1 1334.57   2
 -28   0  15 41.4295 91.9543   6
 -28   0  15 7.68367 103.558   2
 -28   0  14 8117.03 1017.06   6
 -28   0  13-234.248 220.890   6
 -28   0  12 3614.07 675.222   6
  28   0 -11-207.582 160.563   7
 -28   0  11-317.614 235.067   6
  28   0 -10 7255.77 853.932   7
 -28   0  10 8048.56 990.188   6
  28   0  -9-89.7257 156.898   7
 -28   0   9-33.6292 165.399   6
  28   0  -8 9014.72 967.292   7
 -28   0   8 9559.55 1088.71   6
  28   0  -7-10.1704 90.4085   7
 -28   0   7-33.6439 152.003   6
  28   0  -6 11702.5 1148.09   7
 -28   0   6 11219.7 1164.81   6
  28   0  -5-86.0384 144.788   7
  28   0  -4 161.819 168.005   7
 -28   0   4 248.153 178.876   3
  28   0  -3 119.776 138.454   7
 -28   0   3 27.8795 29.8204   3
  28   0  -2 10789.9 1150.56   7
 -28   0   2 12135.4 968.768   3
  28   0  -1 144.946 153.730   7
  28   0   0 1428.98 425.852   7
  28   0   0 1381.34 440.629   4
  28   0   1-186.340 197.774   7
  28   0   1 107.732 117.374   4
  28   0   2 7917.99 1046.56   7
  28   0   2 8943.54 1181.67   4
  28   0   3 314.777 248.624   7
  28   0   3-441.275 260.978   4
  28   0   4 205.894 209.088   7
  28   0   4 73.8149 144.089   4
  28   0   5-85.9930 78.9812   7
  28   0   5 49.5716 100.537   4
  28   0   6 5981.60 959.619   7
  28   0   6 5114.96 857.209   4
  28   0   7-193.110 178.698   7
  28   0   8 1079.32 462.659   7
  28   0   9-163.257 205.758   7
  28   0  10 14878.6 1592.29   7
 -28  -2  35 308.048 207.871   1
  28  -2 -35 304.886 245.599   4
 -28  -2  34 233.561 181.191   1
  28  -2 -34 247.688 230.232   4
 -28  -2  33 48.6416 100.238   1
  28  -2 -33 51.6344 171.632   4
 -28   2  32 11976.7 1334.70   1
 -28  -2  32 10128.6 1085.83   1
  28  -2 -32 11340.3 1518.56   4
 -28   2  31-133.429 189.738   1
 -28  -2  31-43.4350 80.1093   1
 -28   2  30 542.491 264.502   1
 -28  -2  30 147.504 97.9328   1
  28  -2 -30 246.364 223.034   4
 -28   2  29 63.5984 111.683   1
 -28  -2  29 125.538 117.483   1
  28  -2 -29 39.0875 149.841   4
 -28  -2  28 4943.78 716.330   1
  28  -2 -28 3926.42 880.480   4
 -28  -2  28 3901.68 703.726   2
 -28   2  27 120.711 159.531   1
 -28  -2  27 91.4126 81.6395   1
  28  -2 -27-226.496 292.538   4
 -28  -2  27 225.335 229.165   2
 -28   2  26 851.898 338.062   1
 -28  -2  26 1462.99 390.969   1
 -28   2  26 1698.40 508.692   6
 -28  -2  26 1908.74 507.330   2
  28  -2 -26 1675.84 562.383   4
 -28   2  25-80.2622 146.027   1
 -28  -2  25 145.339 122.947   1
 -28   2  25 9.73619 192.103   6
 -28  -2  25 233.040 268.571   2
  28  -2 -25 356.063 294.886   4
 -28   2  24 18525.7 1655.01   6
 -28  -2  24 18140.3 1534.15   2
  28  -2 -24 19647.5 1947.42   4
 -28  -2  24 18406.0 1324.91   1
 -28   2  23 74.1209 62.3647   6
 -28  -2  23 51.8133 137.385   2
  28  -2 -23 372.766 331.398   4
 -28   2  22 4592.53 796.132   6
 -28  -2  22 4147.94 724.432   2
  28  -2 -22 4858.41 953.016   4
 -28   2  21-76.0411 148.266   6
 -28  -2  21-43.3341 64.1161   2
  28  -2 -21-11.5441 155.657   4
 -28   2  20 8924.54 1112.25   6
 -28  -2  20 9026.15 1038.06   6
 -28  -2  20 8161.31 1037.26   2
  28  -2 -20 8237.82 1277.27   4
 -28   2  19 114.808 125.436   6
 -28  -2  19 353.534 239.863   6
 -28  -2  19 124.155 138.701   2
  28  -2 -19 491.384 362.037   4
 -28   2  18 4095.80 747.065   6
 -28  -2  18 3696.05 652.682   6
 -28  -2  18 2912.39 617.945   2
  28  -2 -18 4461.18 919.655   4
  28  -2 -17-214.148 126.838   7
 -28   2  17 9.02825 102.404   6
 -28  -2  17-200.817 202.805   6
 -28  -2  17-173.736 172.369   2
  28  -2 -17-176.110 244.666   4
  28  -2 -16 13806.2 1023.20   7
 -28   2  16 12668.2 1331.34   6
 -28  -2  16 12525.6 1198.54   6
 -28  -2  16 14472.1 1384.57   2
  28  -2 -16 13987.9 1627.23   4
  28  -2 -15-61.2074 74.1097   7
 -28   2  15-184.512 102.776   6
 -28  -2  15 143.479 190.739   6
 -28  -2  15-257.069 186.600   2
  28  -2 -15-5.21532 75.9173   4
  28  -2 -14 5025.33 646.081   7
 -28  -2  14 4890.97 760.351   6
 -28   2  14 4663.96 803.246   6
 -28  -2  14 4648.15 783.096   2
  28  -2 -14 4120.34 869.045   4
  28  -2 -13 108.437 131.093   7
 -28   2  13-28.8802 67.7805   6
 -28  -2  13 78.2839 113.314   6
 -28  -2  13 79.6088 105.448   2
  28  -2 -13 71.5084 134.438   4
  28  -2 -12 2493.44 480.345   7
 -28   2  12 2648.66 591.499   6
 -28  -2  12 2994.49 577.070   6
 -28  -2  12 2726.18 602.296   2
  28  -2 -12 2156.51 641.982   4
  28  -2 -11 166.826 128.823   7
 -28   2  11-183.663 175.772   6
 -28  -2  11 163.397 154.180   6
 -28  -2  11 13.2840 163.508   2
  28  -2 -11-46.9267 169.893   4
  28  -2 -10 8940.29 924.077   7
 -28   2  10 8363.15 1069.85   6
 -28  -2  10 8257.18 965.619   6
 -28  -2  10 7914.19 1043.80   2
  28  -2 -10 8730.86 1246.48   4
  28  -2  -9 59.7334 46.8511   7
 -28   2   9 30.4222 94.2926   6
 -28  -2   9-63.2061 183.186   6
 -28  -2   9 107.354 119.193   2
  28  -2  -9 40.3901 170.987   4
  28  -2  -8 10384.2 1038.92   7
 -28   2   8 10335.1 1083.10   3
 -28   2   8 9906.79 1151.07   6
 -28  -2   8 10517.8 1080.76   6
 -28  -2   8 9540.68 1161.76   2
  28  -2  -8 9957.67 1345.36   4
  28  -2  -7 99.2839 171.773   7
 -28   2   7 297.735 236.893   6
 -28  -2   7-90.3158 124.777   6
 -28   2   7-64.6921 57.4401   3
 -28  -2   7-64.0430 121.167   2
  28  -2  -7 17.4382 252.110   4
  28  -2  -6 9401.58 1029.70   7
 -28   2   6 9721.45 1026.78   3
 -28  -2   6 8944.21 1133.27   2
  28  -2  -6 9633.04 1312.88   4
  28  -2  -5 43.9772 137.036   7
 -28   2   5 167.016 125.961   3
 -28  -2   5-6.03445 42.8831   2
  28  -2  -5-132.002 144.296   4
  28  -2  -4 44.7547 133.164   7
  28   2  -4-44.0586 82.4331   7
 -28   2   4 95.3536 117.507   3
  28  -2  -3 61.2581 55.3504   7
 -28   2   3-24.0308 43.5865   3
  28  -2  -3-121.057 131.334   4
  28  -2  -2 10152.8 1132.69   7
 -28   2   2 9666.21 996.737   3
  28   2  -2 9450.24 1115.44   7
  28  -2  -2 9653.42 1280.71   4
  28  -2  -1 105.966 166.226   7
 -28   2   1 95.2050 193.575   3
  28   2  -1-166.267 231.144   7
  28  -2  -1 50.0991 155.543   4
  28  -2   0 2173.39 518.875   7
 -28   2   0 2119.28 458.948   3
  28   2   0 1924.94 532.742   7
  28  -2   0 2124.55 596.331   4
  28  -2   1 285.675 128.872   7
  28   2   1 92.1044 115.475   7
  28  -2   1 95.7572 166.890   4
  28  -2   2 14972.4 1453.23   7
  28   2   2 18873.5 1639.17   7
  28  -2   2 16381.9 1631.48   4
  28  -2   3-232.861 202.727   7
  28   2   3 123.874 124.655   7
  28  -2   3 9.66934 152.380   4
  28  -2   4 266.071 234.516   7
  28   2   4 199.557 179.979   7
  28  -2   4-49.5296 170.924   4
  28  -2   5-87.1861 143.162   7
  28   2   5 63.9021 121.061   7
  28  -2   5 31.3350 60.3463   4
  28  -2   6 10529.0 1295.71   7
  28   2   6 9047.94 1188.15   7
  28  -2   6 7591.74 1065.02   4
  28  -2   7 236.393 228.364   7
  28   2   7-124.897 139.241   7
  28  -2   8 1224.52 465.518   7
  28   2   8 1267.55 470.646   7
  28  -2   9 264.318 277.238   7
  28   2   9 345.341 346.965   7
 -28  -4  31-9.50515 57.1324   2
 -28  -4  30 246.715 350.735   2
 -28  -4  29 67.1200 116.061   2
 -28   4  28 7524.93 1131.82   6
 -28  -4  28 6722.81 1103.96   2
  28  -4 -28 6708.26 1234.28   4
 -28   4  28 6732.13 1022.97   1
 -28  -4  27 168.343 167.420   2
 -28   4  27-233.426 257.128   6
  28  -4 -27 70.8127 165.997   4
 -28  -4  26 890.250 409.875   2
 -28   4  26 802.378 371.778   6
  28  -4 -26 1280.04 543.671   4
 -28  -4  25 222.611 226.811   2
 -28   4  25-97.8234 163.223   6
  28  -4 -25 57.8835 208.888   4
 -28   4  24 14862.9 1553.62   6
 -28  -4  24 12840.8 1502.06   2
  28  -4 -24 12903.2 1700.54   4
 -28  -4  23 64.5357 114.769   2
 -28   4  23-20.8785 323.589   6
  28  -4 -23-53.2599 121.240   4
 -28   4  22 2227.11 587.491   6
  28  -4 -22 1833.08 633.571   4
 -28  -4  22 2226.34 578.508   2
 -28   4  21-228.493 261.237   6
 -28  -4  21-137.798 144.462   6
  28  -4 -21-210.568 312.864   4
 -28  -4  21-327.812 237.575   2
 -28   4  20 6168.89 968.857   6
 -28  -4  20 5767.53 812.661   6
  28  -4 -20 4000.40 944.127   4
 -28  -4  20 4211.15 821.098   2
 -28   4  19 92.0861 158.248   6
 -28  -4  19 130.220 214.763   6
  28  -4 -19 45.3725 114.861   4
 -28  -4  19-60.8969 56.3994   2
 -28   4  18 3871.92 776.810   6
 -28  -4  18 3642.35 636.755   6
  28  -4 -18 4662.67 1003.84   4
 -28  -4  18 3516.27 759.731   2
 -28   4  17 334.875 416.437   6
 -28  -4  17-13.8206 94.2751   6
  28  -4 -17 146.116 72.8919   4
 -28  -4  17 116.919 210.035   2
 -28   4  16 13848.3 1467.44   6
 -28  -4  16 14618.8 1255.97   6
 -28   4  16 15593.4 1572.06   3
 -28  -4  16 15543.9 1605.44   2
  28  -4 -16 17009.7 1908.47   4
 -28   4  15-41.5007 99.7967   6
 -28  -4  15 119.627 160.588   6
 -28   4  15-198.431 234.058   3
  28  -4 -15 129.089 218.535   4
 -28  -4  15-117.675 163.486   2
 -28   4  14 5241.76 892.309   3
 -28   4  14 6121.88 954.504   6
 -28  -4  14 5143.71 743.201   6
 -28  -4  14 5110.61 920.669   2
  28  -4 -14 6096.45 1130.40   4
 -28   4  13-27.8915 102.988   6
 -28   4  13 3.49572 144.019   3
 -28  -4  13-73.0600 111.045   2
 -28   4  12 2940.90 692.390   6
 -28   4  12 3163.13 680.964   3
 -28  -4  12 2403.33 650.155   2
  28  -4 -12 3573.84 860.218   4
 -28   4  11 82.5426 293.052   6
 -28   4  11-206.759 144.054   3
 -28  -4  11 478.719 308.450   2
  28  -4 -11-11.7124 201.049   4
 -28   4  10 6746.40 977.418   3
 -28   4  10 9712.59 1222.65   6
 -28  -4  10 9044.94 1224.97   2
  28  -4 -10 9182.43 1399.18   4
 -28   4   9 151.399 111.687   6
 -28   4   9 171.319 187.134   3
 -28  -4   9 173.233 130.456   2
  28  -4  -9 100.644 122.151   4
 -28   4   8 9839.00 1158.23   3
 -28  -4   8 10325.7 1331.59   2
  28  -4  -8 10563.6 1475.86   4
  28  -4  -7 341.419 201.966   7
 -28   4   7 128.612 154.197   3
 -28  -4   7 8.01912 80.2231   2
  28  -4  -7-251.192 230.762   4
  28  -4  -6 9212.67 1002.38   7
 -28   4   6 8011.19 1040.28   3
 -28  -4   6 9770.83 1297.59   2
  28  -4  -6 9418.02 1389.82   4
  28  -4  -5-79.3959 148.211   7
 -28   4   5-90.4939 101.305   3
 -28  -4   5 109.881 183.260   2
  28  -4  -4 108.902 122.006   7
 -28  -4   4 46.3546 68.3707   2
  28  -4  -3 0.57694 54.4544   7
 -28   4   3 198.292 175.984   3
 -28  -4   3 260.270 258.746   2
  28  -4  -2 10498.0 1167.70   7
 -28   4   2 8866.51 1089.19   3
 -28  -4   2 10491.0 1348.55   2
  28  -4  -1 103.177 133.305   7
 -28   4   1-197.986 222.772   3
 -28  -4   1 388.562 319.382   2
  28  -4   0 2877.26 645.247   7
 -28   4   0 2084.47 524.411   3
  28   4   0 2948.19 667.892   7
 -28  -4   0 3090.46 734.634   2
  28  -4   1 93.7659 73.0489   7
 -28   4  -1-41.4308 85.1351   3
  28   4   1-132.470 206.789   7
 -28   4  -2 7697.23 1016.31   3
  28  -4   2 8005.00 1095.16   7
  28   4   2 8184.89 1140.41   7
  28  -4   3-370.230 280.511   7
 -28   4  -3 27.4881 124.513   3
  28   4   3 18.7265 126.706   7
  28  -4   4 148.281 118.752   7
 -28   4  -4 95.0794 72.7828   3
  28   4   4 409.194 236.997   7
  28  -4   5-183.470 155.630   7
  28   4   5-106.518 132.655   7
  28  -4   6 6466.40 1042.17   7
  28  -4   7 109.145 103.118   7
 -28   6  20 4263.58 867.604   6
 -28   6  19 26.2142 113.278   6
 -28  -6  19-180.245 226.021   2
 -28   6  18 3122.70 706.926   6
 -28  -6  18 2552.90 746.485   2
 -28   6  17 166.941 435.783   6
 -28  -6  17-65.4627 124.736   2
 -28   6  16 13067.5 1560.47   3
 -28   6  16 13431.3 1530.49   6
 -28  -6  16 14353.4 1718.24   2
 -28   6  15 677.284 325.017   3
 -28   6  15 141.188 290.093   6
 -28  -6  15 147.134 179.552   2
 -28   6  14 6199.13 1076.80   3
 -28   6  14 6075.75 1021.26   6
 -28  -6  14 4741.36 968.326   2
 -28   6  13-89.3189 79.5884   3
 -28  -6  13-124.106 167.745   2
 -28   6  12 1959.67 601.550   3
 -28  -6  12 3201.49 809.758   2
 -28   6  11 286.261 268.394   3
 -28  -6  11-179.206 149.313   2
 -28   6  10 5822.20 1013.31   3
 -28  -6  10 6648.68 1175.86   2
 -28   6   9 212.593 182.110   3
 -28  -6   9-97.9336 71.8767   2
 -28   6   8 10017.2 1317.83   3
 -28  -6   8 11117.3 1524.59   2
 -28   6   7 209.676 175.911   3
 -28  -6   7 219.737 140.900   2
 -28   6   6 8759.12 1221.10   3
 -28   6   5-74.1426 99.2547   3
 -28   6   4 43.7044 94.1444   3
 -28   6   3-4.76394 76.5421   3
 -28   6   2 9177.29 1251.18   3
 -28   6   1-35.9206 87.0856   3
 -28   6   0 2517.72 665.223   3
 -29  -1  35 761.377 329.106   1
  29  -1 -35 656.747 343.841   4
 -29  -1  34 137.627 173.002   1
  29  -1 -34-222.812 224.892   4
 -29   1  33 3029.91 657.005   1
 -29  -1  33 3374.40 661.756   1
  29  -1 -33 4304.80 924.326   4
 -29   1  32 142.677 117.018   1
 -29  -1  32 107.584 150.643   1
  29  -1 -32 182.046 190.487   4
 -29   1  31 639.675 307.159   1
 -29  -1  31 564.229 267.130   1
  29  -1 -31 374.538 282.401   4
 -29   1  30-106.116 125.611   1
 -29  -1  30-70.8829 72.6251   1
 -29   1  29 15047.0 1413.37   1
 -29  -1  29 13771.5 1275.99   1
  29  -1 -29 14887.0 1703.66   4
 -29   1  28-34.0344 151.461   1
 -29  -1  28 136.071 147.163   1
  29  -1 -28 9.17498 288.245   4
 -29   1  27 68.3978 126.395   1
 -29  -1  27 31.6836 65.2200   1
  29  -1 -27-11.9037 140.873   4
 -29   1  26-64.7639 110.785   1
 -29  -1  26 38.1800 75.7474   1
  29  -1 -26-16.4365 136.039   4
 -29   1  25 9215.75 1175.06   6
 -29  -1  25 9279.42 1014.42   2
  29  -1 -25 10810.8 1457.81   4
 -29   1  25 8581.73 1028.02   1
 -29  -1  25 8244.54 939.832   1
 -29   1  24-99.9236 209.800   6
 -29  -1  24 198.810 170.149   2
  29  -1 -24-88.9987 129.607   4
 -29   1  23 965.414 365.928   6
 -29  -1  23 589.940 258.829   2
  29  -1 -23 763.987 424.891   4
 -29   1  22 42.9384 146.972   6
 -29  -1  22-22.0823 182.021   6
 -29  -1  22-43.7651 110.887   2
  29  -1 -22 168.899 184.718   4
 -29   1  21 13841.8 1389.87   6
 -29  -1  21 13752.1 1338.14   6
 -29  -1  21 14725.2 1303.29   2
  29  -1 -21 14698.6 1686.91   4
  29  -1 -20-0.37734 53.4473   7
 -29   1  20-40.6082 135.402   6
 -29  -1  20 4.18644 145.878   6
 -29  -1  20-108.329 129.830   2
  29  -1 -20-12.5393 79.9935   4
  29  -1 -19 1369.49 334.046   7
 -29   1  19 1649.06 467.032   6
 -29  -1  19 1113.04 377.151   6
 -29  -1  19 1965.99 478.666   2
  29  -1 -19 1793.77 566.385   4
  29  -1 -18 147.590 131.785   7
 -29   1  18 69.6286 72.5987   6
 -29  -1  18-265.236 202.349   6
 -29  -1  18 157.928 154.312   2
  29  -1 -18 304.039 230.509   4
  29  -1 -17 5042.41 655.108   7
 -29   1  17 5545.21 870.228   6
 -29  -1  17 4097.57 711.547   6
 -29  -1  17 5261.31 793.466   2
  29  -1 -17 5202.58 988.746   4
  29  -1 -16 11.9947 106.019   7
 -29   1  16 0.64049 81.6722   6
 -29  -1  16-92.7865 144.361   6
 -29  -1  16 283.787 205.817   2
  29  -1 -16-12.3418 169.455   4
  29  -1 -15 5365.48 697.475   7
 -29   1  15 4435.87 772.861   6
 -29  -1  15 4204.16 725.066   6
 -29  -1  15 4808.98 762.198   2
  29  -1 -15 4452.23 926.644   4
  29  -1 -14 198.524 147.615   7
 -29   1  14 275.261 208.116   6
 -29  -1  14 33.7435 91.6855   6
 -29  -1  14 43.1317 77.8444   2
  29  -1 -14 137.157 102.558   4
  29  -1 -13 12803.2 1111.71   7
 -29   1  13 11696.2 1274.07   6
 -29  -1  13 10890.1 1170.54   6
 -29  -1  13 12751.8 1251.89   2
  29  -1 -13 13325.9 1565.89   4
  29  -1 -12-95.4190 117.646   7
 -29   1  12-90.4750 81.9765   6
 -29  -1  12 92.2974 111.730   6
 -29  -1  12 38.9701 94.6463   2
  29  -1 -12-8.65437 116.584   4
  29  -1 -11 8052.30 896.923   7
 -29   1  11 8760.63 1103.68   6
 -29  -1  11 7940.27 996.784   6
 -29  -1  11 8308.51 1029.22   2
  29  -1 -11 8189.38 1210.58   4
  29  -1 -10-14.9185 47.6324   7
 -29   1  10-53.8018 87.2436   6
 -29  -1  10-148.412 137.797   6
 -29  -1  10-25.2045 39.1386   2
  29  -1 -10-174.903 170.254   4
  29  -1  -9 3046.48 564.967   7
 -29   1   9 3201.58 652.000   6
 -29  -1   9 2944.08 586.680   6
  29  -1  -9 3366.29 792.171   4
  29  -1  -8-78.0217 147.148   7
  29   1  -8-23.4463 88.8018   7
 -29   1   8 27.1343 123.738   6
 -29  -1   8-7.46713 97.3776   6
  29  -1  -8-54.1545 91.6718   4
  29  -1  -7 5702.35 798.816   7
  29   1  -7 4252.88 721.354   7
 -29   1   7 5030.24 786.737   6
 -29  -1   7 4503.31 725.506   6
  29  -1  -7 5014.02 943.061   4
  29  -1  -6-95.7461 59.4451   7
  29   1  -6-5.09210 167.421   7
 -29   1   6 77.2973 64.9879   3
  29  -1  -6 150.145 187.189   4
  29  -1  -5 6332.99 868.759   7
  29   1  -5 5986.38 856.416   7
 -29   1   5 7044.38 839.181   3
  29  -1  -5 6080.58 1036.81   4
  29  -1  -4-59.3781 85.9055   7
  29   1  -4-128.826 123.465   7
 -29   1   4-33.1617 112.679   3
  29  -1  -4-174.559 97.4743   4
  29  -1  -3 9643.72 1106.26   7
 -29   1   3 9529.15 951.782   3
  29   1  -3 8011.20 1020.78   7
  29  -1  -3 9321.24 1273.69   4
  29  -1  -2-5.47158 53.1190   7
  29   1  -2-21.6357 117.561   7
 -29   1   2-23.7468 111.284   3
  29  -1  -2-61.0073 61.0890   4
  29  -1  -1 694.688 332.187   7
  29   1  -1 649.804 335.786   7
  29  -1  -1 742.642 365.095   4
  29  -1   0 170.403 179.290   7
  29   1   0 157.369 139.191   7
  29  -1   0-259.702 246.370   4
  29  -1   1 14196.7 1423.63   7
  29   1   1 13487.4 1377.52   7
  29  -1   1 13790.4 1491.42   4
  29  -1   2-33.3511 102.059   7
  29   1   2-8.14522 122.393   7
  29  -1   2-12.2194 112.880   4
  29  -1   3 2698.25 634.237   7
  29   1   3 3385.69 704.801   7
  29  -1   3 2800.05 673.859   4
  29  -1   4 150.758 178.377   7
  29   1   4-162.861 219.472   7
  29  -1   4 11.8192 77.6710   4
  29   1   4 30.9648 81.2237   4
  29  -1   5 11575.7 1353.23   7
  29   1   5 10757.3 1316.03   7
  29  -1   5 9857.64 1232.08   4
  29   1   5 9960.39 1236.29   4
  29  -1   6-187.339 203.522   7
  29   1   6 120.636 216.888   7
  29  -1   7 341.648 235.291   7
  29   1   7 541.943 369.614   7
  29  -1   8 4.75810 165.757   7
  29   1   8 245.432 253.155   7
  29  -3 -32-98.0092 216.262   4
  29  -3 -31-71.5622 226.300   4
  29  -3 -30 194.186 129.691   4
 -29   3  29 11336.6 1308.00   1
 -29   3  29 12440.4 1461.81   6
 -29  -3  29 10772.1 1308.66   2
  29  -3 -29 11129.3 1551.93   4
 -29   3  28 12.5171 105.948   6
  29  -3 -28-252.518 287.546   4
 -29  -3  28-14.1438 58.3344   2
 -29   3  28-72.7717 129.519   1
 -29   3  27 154.722 124.341   6
  29  -3 -27-136.759 155.264   4
 -29  -3  27 130.448 145.931   2
 -29   3  26-104.550 95.1131   6
  29  -3 -26-134.047 77.3456   4
 -29  -3  26 137.169 164.691   2
 -29   3  25 8802.62 1188.67   6
 -29  -3  25 8070.11 1123.50   2
  29  -3 -25 6943.40 1229.65   4
 -29   3  24 193.215 211.585   6
  29  -3 -24 343.793 278.098   4
 -29  -3  24 209.975 192.839   2
 -29   3  23 199.313 216.725   6
  29  -3 -23 513.327 390.904   4
 -29  -3  23 508.703 253.773   2
 -29   3  22 170.971 244.622   6
 -29  -3  22-66.5523 170.113   6
  29  -3 -22 140.235 202.237   4
 -29  -3  22-91.9025 173.490   2
 -29   3  21 19547.6 1741.80   6
 -29  -3  21 16503.3 1427.10   6
 -29  -3  21 18741.2 1690.83   2
  29  -3 -21 19609.8 2036.89   4
 -29   3  20 142.435 278.041   6
 -29  -3  20 137.185 159.624   6
 -29  -3  20-155.220 160.897   2
  29  -3 -20-5.84002 162.605   4
 -29  -3  19 4915.86 763.073   6
 -29   3  19 4608.27 845.136   6
 -29  -3  19 5098.66 883.648   2
  29  -3 -19 6754.82 1177.63   4
 -29   3  18-80.2053 104.244   6
 -29  -3  18 53.0956 56.1760   6
 -29  -3  18 7.09789 96.3446   2
  29  -3 -18 38.6917 115.035   4
 -29  -3  17 4848.35 762.460   6
 -29   3  17 4338.42 822.070   6
 -29  -3  17 5300.47 898.712   2
  29  -3 -17 5033.24 1029.07   4
 -29   3  16-65.7968 222.261   6
 -29  -3  16 29.3742 146.331   6
 -29  -3  16-67.8980 75.7012   2
  29  -3 -16-52.8548 92.7308   4
 -29   3  15 5538.40 932.007   6
 -29  -3  15 4559.21 731.846   6
 -29  -3  15 5250.12 902.177   2
  29  -3 -15 4433.94 968.612   4
 -29   3  14 225.802 190.462   6
 -29  -3  14 313.678 199.074   6
 -29  -3  14 693.560 292.905   2
  29  -3 -14 423.283 285.694   4
 -29   3  13 8466.48 1120.95   6
 -29  -3  13 8612.30 1001.33   6
 -29  -3  13 8676.14 1161.12   2
  29  -3 -13 9113.20 1351.98   4
 -29   3  12 87.5865 91.2969   6
 -29  -3  12 74.7419 133.610   6
 -29   3  12-183.745 221.237   3
 -29  -3  12 121.775 138.172   2
  29  -3 -12 228.963 192.996   4
  29  -3 -11 3020.73 531.163   7
 -29   3  11 2832.22 654.817   6
 -29  -3  11 3181.19 606.178   6
 -29   3  11 3190.73 662.357   3
 -29  -3  11 2880.94 682.006   2
  29  -3 -11 2159.80 683.861   4
  29  -3 -10-67.9026 38.0632   7
 -29   3  10-136.296 126.821   6
 -29  -3  10 22.8596 76.4325   6
 -29   3  10-65.0113 80.6279   3
 -29  -3  10-62.3817 163.041   2
  29  -3 -10 124.765 214.828   4
  29  -3  -9 4026.02 650.696   7
 -29   3   9 2831.07 636.067   6
 -29  -3   9 3320.64 587.922   6
 -29   3   9 2816.51 611.768   3
 -29  -3   9 3549.68 739.932   2
  29  -3  -9 3119.62 773.500   4
  29  -3  -8 139.814 141.427   7
 -29   3   8 42.9106 132.496   3
 -29  -3   8 146.942 143.242   2
  29  -3  -8 70.6357 127.292   4
  29  -3  -7 6791.88 868.574   7
 -29   3   7 5345.74 824.106   3
 -29  -3   7 6116.44 992.595   2
  29  -3  -7 7680.69 1241.59   4
  29  -3  -6 160.742 128.228   7
 -29   3   6 223.608 186.464   3
 -29  -3   6 235.263 233.987   2
  29  -3  -6 275.375 178.156   4
  29  -3  -5 7127.44 923.764   7
 -29   3   5 6104.64 874.726   3
 -29  -3   5 7574.51 1108.94   2
  29  -3  -5 6277.83 1116.20   4
  29  -3  -4 286.672 172.068   7
 -29   3   4 98.6364 125.957   3
 -29  -3   4 301.453 305.109   2
  29  -3  -4 487.429 451.809   4
  29  -3  -3 14787.4 1383.38   7
 -29   3   3 13650.2 1291.45   3
  29   3  -3 14985.6 1465.56   7
 -29  -3   3 14931.1 1579.89   2
  29  -3  -3 14374.4 1670.26   4
  29  -3  -2 9.29964 177.084   7
 -29   3   2 78.3656 106.065   3
  29   3  -2 237.834 219.793   7
  29  -3  -2 312.805 212.255   4
  29  -3  -1 563.359 284.075   7
 -29   3   1 377.467 210.617   3
  29   3  -1 382.881 274.333   7
  29  -3  -1 199.666 77.6684   4
  29  -3   0 256.270 227.970   7
 -29   3   0-119.567 150.077   3
  29   3   0 167.499 154.022   7
  29  -3   0-135.687 160.090   4
 -29   3  -1 9123.92 1043.65   3
  29  -3   1 10757.8 1271.81   7
  29   3   1 10398.1 1267.88   7
  29  -3   1 9050.34 1283.10   4
  29  -3   2 91.5973 133.153   7
  29   3   2-61.1548 95.5521   7
  29  -3   3 3283.67 722.123   7
  29   3   3 4286.88 847.411   7
  29  -3   4-107.994 62.7660   7
  29   3   4 149.851 130.884   7
  29  -3   5 10964.6 1364.30   7
  29   3   5 10688.9 1323.76   7
  29  -3   6 345.152 259.726   7
  29  -3   7 276.640 187.007   7
 -29  -5  26-205.317 206.270   2
 -29  -5  25 7242.41 1204.82   2
 -29  -5  24 30.6158 207.131   2
 -29   5  23 2018.25 597.786   6
 -29  -5  23 1625.88 561.540   2
 -29   5  22-160.157 165.329   6
 -29   5  22 148.677 204.324   3
 -29  -5  22 88.6934 121.836   2
 -29   5  21 9784.09 1345.36   3
 -29   5  21 8496.31 1201.27   6
 -29  -5  21 9929.79 1384.00   2
 -29   5  20 12.8417 134.202   6
 -29   5  20 280.509 312.436   3
 -29  -5  20 414.486 242.283   2
 -29   5  19 413.991 283.481   6
 -29   5  19 174.940 158.255   3
 -29  -5  19 565.179 396.497   2
 -29   5  18-137.488 263.128   6
 -29   5  18-161.618 140.274   3
 -29  -5  18 235.378 218.360   2
 -29   5  17 4874.01 913.282   6
 -29   5  17 3620.35 803.395   3
 -29  -5  17 2454.76 691.126   2
 -29   5  16-188.091 104.811   6
 -29   5  16-57.5560 229.275   3
 -29  -5  16-522.960 314.784   2
 -29   5  15 3017.22 710.688   6
 -29   5  15 3393.79 758.713   3
 -29  -5  15 3723.39 823.273   2
 -29   5  14 54.9930 154.284   6
 -29   5  14 329.046 217.256   3
 -29  -5  14 239.883 161.133   2
 -29   5  13 11151.3 1375.52   3
 -29   5  13 11975.1 1417.84   6
 -29  -5  13 12697.2 1548.13   2
 -29   5  12 573.945 371.428   6
 -29   5  12 186.693 198.381   3
 -29  -5  12 443.530 326.223   2
 -29   5  11 13037.6 1468.96   3
 -29  -5  11 15368.5 1729.49   2
 -29   5  10 147.153 144.257   3
 -29  -5  10-58.6370 118.208   2
 -29   5   9 3737.06 780.557   3
 -29  -5   9 2252.29 648.332   2
 -29   5   8 589.628 331.328   3
 -29  -5   8-82.8266 132.377   2
 -29   5   7 6361.04 993.383   3
 -29  -5   7 7630.45 1217.92   2
 -29   5   6 57.9884 153.560   3
 -29  -5   6 278.364 315.462   2
 -29   5   5 6617.06 1023.23   3
 -29  -5   5 6972.67 1162.80   2
 -29   5   4 245.539 183.240   3
 -29  -5   4-164.757 183.118   2
 -29   5   3 4419.85 838.597   3
 -29  -5   3 5070.49 1005.59   2
 -29   5   2-333.227 228.115   3
 -29  -5   2-140.181 126.799   2
 -29   5   1 316.462 271.501   3
 -29   5   0 183.413 166.737   3
 -29   5  -1 9657.06 1218.64   3
  29  -5   2-136.315 180.381   7
 -29   5  -2 243.441 179.247   3
  29  -5   3 1719.50 534.647   7
 -29   5  -3 1653.42 504.909   3
  29  -5   4 103.181 208.342   7
  30   0 -34 24087.9 2230.67   4
 -30   0  33-49.2468 110.477   1
  30   0 -33-42.0849 111.759   4
 -30   0  32 425.849 249.891   1
  30   0 -32 414.821 383.483   4
 -30   0  31-178.502 104.104   1
  30   0 -31 151.098 180.159   4
  30   0 -30 5035.76 1005.97   4
 -30   0  30 4811.32 788.665   1
 -30   0  29-2.37257 81.5524   1
 -30   0  28 141.546 90.6483   1
 -30   0  27 22.1859 41.7276   1
 -30   0  25 361.127 260.987   6
 -30   0  24 203.689 186.798   6
 -30   0  23 12.6745 180.804   6
 -30   0  22 2935.48 644.533   6
 -30   0  21-91.5367 63.8255   6
 -30   0  21 154.717 125.229   2
 -30   0  20 1074.30 369.519   6
 -30   0  20 1125.14 325.878   2
 -30   0  19 40.3424 126.460   6
 -30   0  19 33.1129 110.053   2
 -30   0  18 11519.2 1242.85   6
 -30   0  17 33.9579 54.6364   6
 -30   0  16 1180.45 401.322   6
 -30   0  15 78.8841 193.658   6
  30   0 -14 8173.05 920.324   7
 -30   0  14 7570.65 1006.86   6
  30   0 -13 7.91557 43.8098   7
 -30   0  13-156.630 258.567   6
  30   0 -12 3313.32 597.801   7
 -30   0  12 3214.30 664.170   6
  30   0 -11-32.9396 81.6220   7
 -30   0  11 211.428 275.614   6
  30   0 -10 15467.8 1320.58   7
 -30   0  10 15810.8 1483.24   6
  30   0  -9-68.2908 58.7901   7
 -30   0   9 107.192 158.730   6
  30   0  -8 10298.1 1098.03   7
 -30   0   8 11044.8 1213.19   6
  30   0  -7-58.5455 74.3410   7
  30   0  -6 1321.55 409.364   7
  30   0  -5 127.466 171.475   7
 -30   0   5-82.2443 114.569   3
  30   0  -4 11975.9 1240.31   7
  30   0  -3 199.593 193.980   4
  30   0  -3 216.019 192.512   7
  30   0  -2 7135.35 981.940   7
  30   0  -2 8362.51 1218.30   4
  30   0  -1-43.1343 43.7687   7
  30   0  -1-150.207 244.765   4
  30   0   0 3325.42 699.711   7
  30   0   0 2562.48 664.544   4
  30   0   1 208.721 218.032   7
  30   0   1-99.2977 179.207   4
  30   0   2 53.4941 110.553   7
  30   0   2 6.26394 264.385   4
  30   0   3 7.34550 51.3482   7
  30   0   3 286.306 228.727   4
  30   0   4 11640.5 1385.44   7
  30   0   4 10780.4 1328.95   4
  30   0   5 97.5173 207.293   7
  30   0   6 1155.16 425.329   7
  30   0   7-191.216 184.850   7
  30  -2 -32 863.436 436.356   4
  30  -2 -31 19.6726 117.420   4
 -30   2  30 8902.46 1143.33   1
  30  -2 -30 3459.22 841.837   4
 -30   2  29 2.03086 68.9024   1
 -30  -2  29-8.27659 99.3222   1
 -30   2  29 104.239 181.174   6
  30  -2 -29-36.2260 218.865   4
 -30  -2  28 253.623 170.601   1
 -30   2  28 138.948 159.136   6
 -30   2  28 183.234 159.682   1
 -30   2  27 71.0292 187.803   6
  30  -2 -27 306.157 282.377   4
 -30   2  26 11782.5 1378.10   6
 -30  -2  26 11414.1 1248.56   2
  30  -2 -26 12598.4 1613.60   4
 -30   2  25 517.892 408.604   6
 -30  -2  25 203.339 120.189   2
  30  -2 -25-30.9492 170.419   4
 -30   2  24 212.990 156.202   6
 -30  -2  24 455.660 287.841   2
  30  -2 -24 61.7448 115.340   4
 -30   2  23-240.678 168.560   6
 -30  -2  23 295.028 235.278   6
 -30  -2  23 220.119 151.739   2
  30  -2 -23 22.1327 123.473   4
 -30   2  22 6597.59 999.138   6
 -30  -2  22 5856.36 879.358   6
 -30  -2  22 6263.85 923.542   2
  30  -2 -22 6250.66 1143.24   4
 -30   2  21-196.733 200.556   6
 -30  -2  21 40.7319 171.406   6
 -30  -2  21 235.456 190.262   2
  30  -2 -21-101.484 130.395   4
 -30   2  20 368.361 286.157   6
 -30  -2  20-95.4635 146.376   6
 -30  -2  20 177.741 158.533   2
  30  -2 -20 258.699 278.973   4
 -30   2  19 182.554 211.085   6
 -30  -2  19-11.3243 99.1798   6
 -30  -2  19-135.184 185.295   2
  30  -2 -19-169.389 288.829   4
 -30   2  18 15823.0 1548.21   6
 -30  -2  18 14185.2 1350.73   6
 -30  -2  18 13675.7 1383.39   2
 -30   2  17 13.3155 105.265   6
 -30  -2  17 169.278 147.154   6
 -30  -2  17-120.213 126.968   2
  30  -2 -17-1.89484 226.701   4
 -30   2  16 2069.87 544.444   6
 -30  -2  16 1874.28 494.567   6
 -30  -2  16 1604.13 477.035   2
  30  -2 -16 3486.55 846.548   4
  30  -2 -15 122.116 136.567   7
 -30  -2  15-41.9913 99.3549   6
 -30  -2  15 212.081 100.463   2
  30  -2 -14 4063.93 613.254   7
 -30  -2  14 4998.17 792.733   6
 -30   2  14 4731.47 857.195   6
 -30  -2  14 4473.48 811.466   2
  30  -2 -14 4197.55 893.086   4
  30  -2 -13-38.7370 70.4426   7
 -30   2  13-47.0605 107.486   6
 -30  -2  13-118.479 183.986   6
 -30  -2  13-141.174 146.217   2
  30  -2 -12 4810.19 695.447   7
 -30   2  12 3895.32 763.366   6
 -30  -2  12 4164.68 726.264   6
 -30  -2  12 4492.80 807.720   2
  30  -2 -12 3927.82 890.680   4
  30  -2 -11-36.2419 103.761   7
 -30   2  11 125.882 215.423   6
 -30  -2  11 109.609 45.5606   6
 -30  -2  11 154.693 214.835   2
  30  -2 -11 24.8676 164.801   4
  30  -2 -10 11389.7 1108.53   7
 -30   2  10 12246.9 1361.47   6
 -30  -2  10 12062.5 1226.84   6
 -30   2  10 10264.5 1144.35   3
 -30  -2  10 11986.7 1327.59   2
  30  -2 -10 12500.4 1577.92   4
  30  -2  -9-15.5148 82.4068   7
 -30   2   9-178.579 237.181   6
 -30  -2   9-1.71953 98.5332   6
 -30   2   9-55.7942 169.222   3
 -30  -2   9-84.7803 133.421   2
  30  -2  -9 41.8895 136.942   4
  30  -2  -8 4695.10 738.592   7
 -30   2   8 4568.94 743.585   3
 -30  -2   8 5265.82 793.806   6
 -30   2   8 5732.57 928.181   6
 -30  -2   8 4522.04 832.330   2
  30  -2  -8 6306.70 1100.92   4
  30  -2  -7 73.8169 67.2163   7
 -30   2   7 4.46109 95.3695   3
  30  -2  -7 180.945 281.418   4
  30  -2  -6 2463.98 548.956   7
  30   2  -6 2212.57 530.932   7
 -30   2   6 2522.10 553.875   3
  30  -2  -6 2268.89 667.781   4
  30  -2  -5 103.248 146.941   7
  30   2  -5-72.0162 54.8185   7
 -30   2   5-143.409 135.292   3
  30  -2  -5 198.084 270.767   4
  30  -2  -4 12476.1 1267.27   7
 -30   2   4 13023.5 1214.75   3
  30   2  -4 11817.8 1284.20   7
  30  -2  -4 15051.1 1683.72   4
  30  -2  -3 172.078 166.299   7
  30   2  -3-251.353 254.598   7
 -30   2   3 133.786 97.6534   3
  30  -2  -3 275.194 180.399   4
  30  -2  -2 5886.82 895.835   7
 -30   2   2 6961.98 873.141   3
  30   2  -2 6970.62 1001.57   7
  30  -2  -2 6511.20 1100.36   4
  30  -2  -1 71.0092 125.813   7
  30   2  -1-162.855 229.596   7
  30  -2  -1-67.2070 148.054   4
  30  -2   0 10426.3 1236.85   7
  30   2   0 10547.7 1257.34   7
  30  -2   0 10862.8 1412.85   4
  30  -2   1-51.0294 121.458   7
  30   2   1 193.448 143.369   7
  30  -2   1 257.729 221.042   4
  30  -2   2 39.7236 108.832   7
  30   2   2 259.735 213.754   7
  30  -2   3 112.416 128.016   7
  30   2   3-91.1237 233.479   7
  30  -2   3 1.61864 78.1243   4
  30  -2   4 10542.8 1328.95   7
  30   2   4 8268.40 1159.06   7
  30  -2   4 8655.61 1204.49   4
  30  -2   5 553.631 336.157   7
  30   2   5 205.367 229.189   7
  30  -2   6 2063.48 598.069   7
 -30  -4  30 3909.70 854.928   2
 -30  -4  29-42.9336 94.3878   2
 -30  -4  28 58.0165 83.3638   2
 -30  -4  27 350.905 251.323   2
 -30  -4  26 8898.03 1275.06   2
  30  -4 -26 8872.11 1455.76   4
 -30   4  25-115.972 172.292   6
  30  -4 -25-311.897 346.877   4
 -30  -4  25 162.924 156.862   2
 -30   4  24-60.8745 150.441   6
 -30  -4  24 316.585 252.882   6
  30  -4 -24 55.9880 154.863   4
 -30  -4  24 332.716 212.905   2
 -30   4  23 96.5348 135.553   6
 -30  -4  23 311.986 168.887   6
  30  -4 -23 403.125 368.133   4
 -30  -4  23 197.688 220.361   2
 -30  -4  22 4829.57 779.836   6
 -30   4  22 4883.96 916.929   6
  30  -4 -22 4792.86 1055.04   4
 -30  -4  22 4632.36 900.610   2
 -30   4  21-118.661 171.758   6
  30  -4 -21 350.032 252.384   4
 -30  -4  21 82.2934 181.637   2
 -30   4  20 253.208 238.523   6
  30  -4 -20 192.237 254.253   4
 -30  -4  20 69.6709 62.1533   2
 -30   4  19 345.138 392.052   6
  30  -4 -19-340.129 285.681   4
 -30  -4  19 409.892 268.199   2
 -30   4  18 10142.7 1302.96   6
 -30  -4  18 8552.77 1220.60   2
  30  -4 -18 9109.57 1446.76   4
 -30   4  17-159.981 125.524   6
 -30   4  17 230.401 161.077   3
 -30  -4  17-19.6525 102.481   2
  30  -4 -17-9.69087 75.2436   4
 -30   4  16 1761.07 522.409   6
 -30   4  16 2278.98 603.579   3
 -30  -4  16 2019.49 583.158   2
  30  -4 -16 2270.85 720.401   4
 -30   4  15-6.98887 167.156   6
 -30  -4  15 42.0119 144.880   2
  30  -4 -15-88.7520 195.435   4
 -30   4  14 4109.73 817.990   6
 -30   4  14 4667.53 864.700   3
 -30  -4  14 4618.82 895.980   2
  30  -4 -14 4295.47 959.928   4
 -30   4  13-110.660 194.634   6
 -30   4  13 85.9183 156.025   3
 -30  -4  13 142.625 207.096   2
  30  -4 -13 367.501 361.752   4
 -30   4  12 4134.40 797.106   6
 -30   4  12 3415.13 731.142   3
 -30  -4  12 3376.70 776.062   2
  30  -4 -12 4123.12 967.703   4
 -30   4  11 148.779 162.910   6
 -30   4  11 20.9681 97.9134   3
 -30  -4  11 107.310 185.476   2
  30  -4 -11 3.15603 189.233   4
 -30   4  10 9271.64 1183.14   3
 -30  -4  10 10686.3 1388.68   2
  30  -4 -10 10292.9 1514.95   4
 -30   4   9 24.4492 107.303   3
 -30  -4   9-19.3729 190.853   2
  30  -4  -9-324.098 326.962   4
 -30   4   8 7774.86 1076.25   3
 -30  -4   8 8789.55 1256.91   2
  30  -4  -8 7985.14 1338.54   4
 -30   4   7 258.585 207.325   3
 -30  -4   7 28.9620 106.511   2
  30  -4  -7 273.773 267.020   4
 -30   4   6 1570.15 483.065   3
 -30  -4   6 1437.63 495.744   2
 -30   4   5 54.9147 78.6789   3
 -30  -4   5 8.59128 149.822   2
  30  -4  -4 9872.38 1142.19   7
 -30   4   4 8484.69 1106.55   3
 -30  -4   4 9468.12 1323.09   2
  30  -4  -3-10.7526 98.6085   7
 -30   4   3 187.576 176.547   3
 -30  -4   3-235.469 211.782   2
  30  -4  -2 5378.14 875.020   7
 -30   4   2 5061.35 850.736   3
  30   4  -2 5267.56 921.255   7
 -30  -4   2 6050.81 1063.74   2
  30  -4  -1 73.0313 168.678   7
 -30   4   1 87.1395 116.053   3
  30   4  -1-58.4738 247.547   7
 -30   4   0 5963.52 912.510   3
  30  -4   0 6183.80 980.046   7
  30   4   0 6235.66 1013.57   7
  30  -4   1 6.59538 129.661   7
 -30   4  -1 74.3013 117.317   3
  30  -4   2-81.1506 187.341   7
  30  -4   3 88.5455 254.184   7
  30  -4   4 9068.43 1253.90   7
 -31  -1  33 1230.29 402.081   1
 -31  -1  32-43.7361 80.2699   1
 -31   1  31 14774.6 1465.46   1
 -31  -1  31 13004.7 1283.15   1
  31  -1 -31 15189.7 1787.13   4
 -31   1  30-48.8724 91.5842   1
 -31  -1  30-53.7443 134.644   1
  31  -1 -30 78.2333 207.408   4
 -31  -1  29-134.043 160.519   1
 -31   1  29 257.102 249.227   6
  31  -1 -29 325.786 249.271   4
 -31   1  29 403.031 257.191   1
 -31   1  28 193.825 139.991   6
  31  -1 -28-54.3648 115.271   4
 -31   1  27 7553.21 1125.53   6
  31  -1 -27 6844.74 1221.99   4
 -31   1  26 337.756 246.022   6
 -31  -1  26 300.334 233.960   6
  31  -1 -26 427.139 326.947   4
 -31   1  25-126.560 99.7107   6
 -31  -1  25 66.4601 77.8740   6
  31  -1 -25 187.557 331.327   4
 -31   1  24-114.370 157.299   6
 -31  -1  24 101.239 193.519   6
  31  -1 -24 217.351 390.943   4
 -31   1  23 14266.8 1471.29   6
 -31  -1  23 13893.5 1401.48   6
 -31  -1  23 13125.5 1263.84   2
  31  -1 -23 16179.1 1843.43   4
 -31   1  22-16.3041 130.389   6
 -31  -1  22-49.9068 146.763   6
 -31  -1  22 4.50802 128.225   2
  31  -1 -22 208.271 158.479   4
 -31   1  21 1012.32 406.384   6
 -31  -1  21 1357.55 444.915   6
 -31  -1  21 560.880 246.588   2
  31  -1 -21 1398.62 515.027   4
 -31   1  20 179.112 191.662   6
 -31  -1  20-143.915 132.139   6
 -31  -1  20 327.021 217.517   2
  31  -1 -20-184.602 210.249   4
 -31   1  19 8019.33 1103.66   6
 -31  -1  19 6485.57 957.869   6
 -31  -1  19 6859.24 926.042   2
  31  -1 -19 8900.20 1361.71   4
  31  -1 -18-66.4018 108.138   7
 -31   1  18 2.10298 143.246   6
 -31  -1  18 114.990 164.221   6
 -31  -1  18 9.36538 69.2403   2
  31  -1 -18-265.117 241.967   4
  31  -1 -17 2160.08 455.253   7
 -31   1  17 1761.74 497.075   6
 -31  -1  17 2103.14 529.170   6
 -31  -1  17 1650.61 456.708   2
  31  -1 -17 1707.90 586.198   4
  31  -1 -16-179.583 139.314   7
 -31   1  16-230.333 262.992   6
 -31  -1  16-135.293 93.8383   6
 -31  -1  16-187.816 157.300   2
  31  -1 -16 172.459 240.370   4
  31  -1 -15 18274.2 1360.45   7
 -31   1  15 15671.7 1549.63   6
 -31  -1  15 18032.1 1594.30   6
 -31  -1  15 18660.1 1566.62   2
  31  -1 -15 17788.8 1913.93   4
  31  -1 -14-25.5930 62.0489   7
 -31   1  14 16.1108 147.081   6
 -31  -1  14-425.214 282.402   6
 -31  -1  14-160.221 173.060   2
  31  -1 -14 132.020 262.964   4
  31  -1 -13 5562.09 769.670   7
 -31  -1  13 5296.40 850.708   6
 -31   1  13 5195.71 872.346   6
 -31  -1  13 5794.04 890.717   2
  31  -1 -13 6163.61 1125.72   4
  31  -1 -12 7.08419 78.6889   7
 -31   1  12 37.3449 125.831   6
 -31  -1  12-137.451 207.053   6
  31  -1 -12 25.2193 125.806   4
  31  -1 -11 4286.11 692.643   7
  31   1 -11 4399.83 727.383   7
 -31   1  11 4883.48 860.169   6
 -31  -1  11 4702.65 820.533   6
  31  -1 -11 4145.04 887.351   4
  31  -1 -10-19.7139 93.4757   7
  31   1 -10-71.1979 195.493   7
 -31   1  10-200.417 175.056   6
 -31  -1  10 23.8154 98.8148   6
  31  -1 -10 186.560 291.039   4
  31  -1  -9 6242.79 854.783   7
  31   1  -9 5313.34 818.465   7
 -31   1   9 6147.55 956.387   6
 -31  -1   9 6738.62 962.318   6
  31  -1  -9 7012.64 1161.25   4
  31  -1  -8-11.8232 50.9965   7
  31   1  -8-70.0344 172.915   7
 -31   1   8 174.231 126.659   3
  31  -1  -8 68.3986 87.3285   4
  31  -1  -7 7605.48 972.817   7
  31   1  -7 6954.97 936.578   7
 -31   1   7 8769.94 993.681   3
  31  -1  -7 7469.38 1201.09   4
  31  -1  -6 53.6323 129.600   7
  31   1  -6-95.3383 136.183   7
 -31   1   6-45.0550 118.172   3
  31  -1  -6 152.818 422.314   4
 -31   1   5 3636.83 621.263   3
  31  -1  -5 3430.01 674.324   7
  31   1  -5 3522.69 697.841   7
  31  -1  -5 3893.37 842.196   4
  31  -1  -4-16.4053 151.252   7
  31   1  -4 102.595 180.818   7
  31  -1  -4-207.138 203.178   4
  31  -1  -3 1210.82 429.194   7
  31   1  -3 1009.88 377.186   7
  31  -1  -3 824.292 391.156   4
  31  -1  -2-26.1204 53.3413   7
  31   1  -2 41.1722 73.2376   7
  31  -1  -2-27.6029 199.044   4
  31  -1  -1 7417.60 1097.99   7
  31   1  -1 8066.51 1103.07   7
  31  -1  -1 6929.12 1133.37   4
  31  -1   0 166.893 173.469   7
  31   1   0-10.5862 120.231   7
  31  -1   0-244.106 180.329   4
  31  -1   1 5597.74 932.282   7
  31   1   1 6516.22 1008.93   7
  31  -1   1 4618.86 936.674   4
  31   1   2 27.5445 159.975   7
  31  -1   2 240.957 208.174   4
  31   1   2 233.647 156.625   4
  31  -1   3 6241.80 1012.99   7
  31   1   3 6429.03 1034.51   7
  31  -1   3 6868.15 1087.96   4
  31   1   3 7829.00 1150.71   4
  31  -1   4-58.7840 140.689   7
  31   1   4 171.396 181.524   7
  31  -1   5-70.9249 77.9975   7
 -31  -3  28-138.676 178.733   2
  31  -3 -27 6518.62 1223.56   4
 -31  -3  27 5109.48 896.470   2
 -31   3  26 149.377 63.2935   6
 -31  -3  26 70.0688 130.658   2
  31  -3 -26 209.026 260.168   4
 -31   3  25 88.8513 185.464   6
 -31  -3  25-41.9646 186.915   6
 -31  -3  25-242.478 197.932   2
  31  -3 -25-118.907 171.318   4
 -31   3  24-145.381 78.1604   6
 -31  -3  24-191.250 185.024   6
 -31  -3  24-81.5772 252.170   2
  31  -3 -24-579.798 362.390   4
 -31   3  23 15581.0 1624.19   6
 -31  -3  23 13124.3 1328.94   6
 -31  -3  23 13704.0 1485.57   2
  31  -3 -23 15022.0 1852.15   4
 -31   3  22 145.492 207.719   6
 -31  -3  22-39.5890 105.598   6
 -31  -3  22-97.9944 161.747   2
  31  -3 -22 211.825 199.757   4
 -31   3  21 1084.46 411.990   6
 -31  -3  21 903.043 335.506   6
 -31  -3  21 922.902 383.513   2
  31  -3 -21 1655.31 604.261   4
 -31   3  20 220.109 280.516   6
 -31  -3  20-111.904 112.147   6
 -31  -3  20 380.589 274.052   2
  31  -3 -20-114.370 190.805   4
 -31   3  19 9648.68 1260.37   6
 -31  -3  19 9272.80 1106.73   6
 -31  -3  19 9458.32 1244.15   2
  31  -3 -19 11047.5 1568.85   4
 -31   3  18-104.818 140.864   6
 -31  -3  18 234.985 225.891   6
 -31  -3  18-14.3899 155.188   2
  31  -3 -18-40.6996 232.668   4
 -31   3  17 2514.15 648.774   6
 -31  -3  17 2559.90 577.929   6
 -31  -3  17 2446.76 622.717   2
  31  -3 -17 2689.31 756.659   4
 -31   3  16 374.471 396.881   6
 -31  -3  16 133.516 152.161   6
 -31  -3  16 13.7360 137.829   2
  31  -3 -16-3.11056 70.0478   4
 -31   3  15 14939.8 1575.17   6
 -31  -3  15 14758.5 1382.88   6
 -31  -3  15 14118.5 1518.73   2
  31  -3 -15 17371.5 1983.28   4
 -31   3  14 428.971 314.837   6
 -31  -3  14 198.331 181.670   6
 -31   3  14 182.757 190.805   3
 -31  -3  14 271.235 168.940   2
  31  -3 -14-39.1080 140.182   4
 -31   3  13 1899.16 538.153   6
 -31  -3  13 1741.60 478.643   6
 -31   3  13 1344.60 435.030   3
 -31  -3  13 2036.05 593.585   2
  31  -3 -13 1006.41 486.240   4
 -31   3  12 47.5894 114.602   6
 -31  -3  12 96.6079 71.3627   6
 -31   3  12-62.1049 111.364   3
 -31  -3  12 6.18542 106.684   2
  31  -3 -12-212.520 328.719   4
 -31   3  11 1824.36 537.538   6
 -31  -3  11 2293.64 548.573   6
 -31   3  11 781.285 348.769   3
 -31  -3  11 1550.88 497.890   2
  31  -3 -11 1739.04 602.242   4
 -31   3  10-361.615 283.414   6
 -31  -3  10-95.5522 138.699   6
 -31   3  10 115.194 168.813   3
 -31  -3  10 80.7766 111.340   2
  31  -3 -10-106.152 262.012   4
 -31   3   9 3548.20 709.228   3
 -31  -3   9 5314.11 945.751   2
  31  -3  -9 3337.27 842.510   4
  31  -3  -8 152.706 141.763   7
 -31   3   8 100.565 107.237   3
 -31  -3   8 91.5805 118.120   2
  31  -3  -8 302.507 238.711   4
  31  -3  -7 7847.91 983.845   7
 -31   3   7 6350.19 930.896   3
 -31  -3   7 8661.65 1217.98   2
  31  -3  -7 7423.76 1268.74   4
  31  -3  -6 161.443 143.021   7
 -31   3   6 22.5045 81.8034   3
 -31  -3   6 269.738 196.494   2
  31  -3  -6 144.409 287.464   4
  31  -3  -5 6474.50 922.492   7
 -31   3   5 6048.50 901.601   3
  31   3  -5 7260.37 1041.32   7
  31  -3  -5 6257.89 1150.97   4
  31  -3  -4 179.445 162.495   7
 -31   3   4 55.2420 140.529   3
  31   3  -4 219.140 173.698   7
  31  -3  -4 44.7573 212.508   4
  31  -3  -3 1002.79 355.456   7
 -31   3   3 1427.75 431.835   3
  31   3  -3 1483.08 459.568   7
  31  -3  -3 1222.70 489.947   4
  31  -3  -2-45.5308 46.0941   7
 -31   3   2 107.960 119.784   3
  31   3  -2 254.109 227.018   7
  31  -3  -2 247.856 237.724   4
  31  -3  -1 7780.17 1098.68   7
  31   3  -1 10396.2 1284.34   7
  31  -3  -1 7561.13 1222.12   4
  31  -3   0-9.42485 87.7144   7
  31   3   0 106.731 175.868   7
  31  -3   0 99.4454 147.265   4
  31  -3   1 6045.03 990.487   7
  31  -3   2 302.468 262.708   7
  31  -3   3 4419.25 860.293   7
  31  -3   4-14.7598 131.747   7
 -31  -5  19 3622.87 830.084   2
 -31  -5  18-511.444 318.678   2
 -31  -5  17 1841.06 628.929   2
 -31  -5  16 26.0684 149.688   2
 -31   5  15 15917.1 1712.09   3
 -31  -5  15 17259.0 1852.33   2
 -31   5  14 92.6564 134.726   3
 -31  -5  14 234.191 192.512   2
 -31   5  13 4257.35 874.937   3
 -31  -5  13 4256.09 921.805   2
 -31   5  12 170.568 176.351   3
 -31  -5  12-56.5385 110.551   2
 -31   5  11 2922.03 709.789   3
 -31   5  10 337.654 241.256   3
 -31   5   9 4342.98 862.432   3
 -31   5   8 239.886 230.485   3
 -31   5   7 3992.02 839.491   3
 -31   5   6 95.3004 130.876   3
 -31   5   5 2132.03 598.089   3
 -31   5   4-42.4996 168.249   3
 -31   5   3 252.673 191.579   3
 -31   5   2-210.508 187.235   3
 -31   5   1 4917.77 893.936   3
 -32   0  31 33.4432 75.7208   1
 -32   0  30 1313.90 413.577   1
  32   0 -29-162.996 86.5082   4
 -32   0  28 13432.8 1490.00   6
 -32   0  27-145.609 219.070   6
 -32   0  26 120.290 99.6590   6
 -32   0  25-274.272 231.944   6
 -32   0  24 9749.46 1215.12   6
 -32   0  23-6.40430 159.592   6
 -32   0  22 233.655 198.121   6
 -32   0  21 224.329 305.086   6
 -32   0  20 15177.3 1520.85   6
 -32   0  19 89.9772 216.786   6
 -32   0  18 4060.41 766.444   6
  32   0 -17-157.492 159.743   7
 -32   0  17-265.018 204.685   6
  32   0 -16 8605.29 974.635   7
 -32   0  16 7935.72 1104.06   6
  32   0 -15 168.125 111.599   7
 -32   0  15-5.61177 79.1215   6
  32   0 -14 1497.31 409.602   7
 -32   0  14 1260.95 433.973   6
  32   0 -13 52.7006 53.8399   7
 -32   0  13 64.3072 63.2030   6
  32   0 -12 18766.0 1495.88   7
 -32   0  12 21973.5 1823.62   6
  32   0 -11-34.6880 111.992   7
 -32   0  11-122.811 207.991   6
  32   0 -10 7454.69 971.898   7
 -32   0  10 6768.82 997.370   6
  32   0  -9 32.5563 53.4695   7
 -32   0   9-55.0795 214.980   6
  32   0  -8 3365.11 660.499   7
  32   0  -7-75.1974 97.7948   7
  32   0  -6 5139.24 843.615   7
  32   0  -6 7369.93 1211.08   4
  32   0  -5-359.289 223.952   7
  32   0  -5-200.043 262.338   4
  32   0  -4 4848.85 824.630   7
  32   0  -4 4851.76 983.671   4
  32   0  -3-130.947 170.645   7
  32   0  -3-287.005 267.174   4
  32   0  -2 2293.26 583.858   7
  32   0  -2 2008.34 641.819   4
  32   0  -1 47.3893 93.1130   7
  32   0  -1-77.8273 253.744   4
  32   0   0 766.947 348.912   7
  32   0   0 663.804 372.757   4
  32   0   1-59.0553 75.4287   7
  32   0   1 145.370 165.224   4
  32   0   2 13976.4 1533.03   7
  32   0   2 13460.7 1554.78   4
  32   0   3 71.0793 82.4983   7
 -32  -2  27 202.799 239.123   6
  32  -2 -27-3.13562 170.256   4
 -32   2  26 708.403 343.100   6
 -32  -2  26 613.962 305.520   6
  32  -2 -26 640.667 367.603   4
 -32  -2  25-21.3074 120.999   2
  32  -2 -25 72.7908 65.1683   4
 -32   2  24 10573.0 1337.21   6
 -32  -2  24 10033.9 1201.86   6
 -32  -2  24 8731.96 1126.49   2
  32  -2 -24 11999.7 1637.36   4
 -32   2  23 292.055 446.302   6
 -32  -2  23 82.4752 108.414   6
 -32  -2  23-207.436 178.154   2
  32  -2 -23 375.816 347.143   4
 -32   2  22-90.7340 210.528   6
 -32  -2  22 156.526 161.762   6
 -32  -2  22 152.247 150.045   2
  32  -2 -22 317.097 282.447   4
 -32   2  21 217.163 194.454   6
 -32  -2  21 143.150 152.293   6
 -32  -2  21-117.456 134.613   2
  32  -2 -21 216.342 260.608   4
 -32   2  20 17984.3 1718.21   6
 -32  -2  20 12988.9 1354.32   6
 -32  -2  20 13723.2 1412.94   2
  32  -2 -20 17172.4 1943.75   4
 -32   2  19 99.3689 141.167   6
 -32  -2  19-111.156 50.3803   6
 -32  -2  19 17.8058 87.1762   2
  32  -2 -19-10.2428 75.2309   4
 -32   2  18 1987.96 555.316   6
 -32  -2  18 1248.02 407.117   6
 -32  -2  18 1330.80 444.081   2
  32  -2 -18 956.658 375.531   4
 -32   2  17-66.2320 216.641   6
 -32  -2  17 253.655 142.508   6
 -32  -2  17-51.2043 127.067   2
  32  -2 -17 398.888 353.549   4
 -32   2  16 7586.40 1118.52   6
 -32  -2  16 7676.10 1035.31   6
 -32  -2  16 7570.19 1052.68   2
  32  -2 -16 9082.95 1399.61   4
 -32   2  15 316.881 344.884   6
 -32  -2  15 87.9087 74.0618   6
 -32  -2  15 78.3555 191.206   2
  32  -2 -15 171.718 199.651   4
 -32   2  14 2545.11 648.116   6
 -32  -2  14 3365.10 661.453   6
 -32  -2  14 2109.64 556.976   2
  32  -2 -14 3034.92 798.208   4
 -32   2  13-66.5987 230.948   6
 -32  -2  13-95.1106 153.819   6
 -32  -2  13-165.041 161.223   2
  32  -2 -13 142.200 149.133   4
  32  -2 -12 14317.7 1266.89   7
 -32   2  12 12451.2 1435.36   6
 -32  -2  12 13019.6 1362.69   6
 -32  -2  12 13806.9 1461.63   2
  32  -2 -12 14013.9 1731.90   4
  32  -2 -11 328.287 219.737   7
 -32   2  11-5.34468 81.9711   6
 -32  -2  11 12.9139 155.265   6
 -32   2  11-177.598 168.259   3
 -32  -2  11-6.53771 72.8670   2
  32  -2 -11 83.3138 256.600   4
  32  -2 -10 3914.20 687.489   7
 -32   2  10 2350.00 609.637   6
 -32  -2  10 3657.16 711.885   6
 -32   2  10 2791.31 616.920   3
 -32  -2  10 2046.89 560.758   2
  32  -2 -10 2601.29 724.160   4
  32  -2  -9 130.707 158.272   7
 -32   2   9-211.677 169.181   3
  32  -2  -9-12.7699 76.9178   4
  32  -2  -8 2674.66 580.562   7
  32   2  -8 2210.41 555.349   7
 -32   2   8 3361.70 666.698   3
  32  -2  -8 2524.35 705.490   4
  32  -2  -7 191.231 196.828   7
  32   2  -7 225.642 188.349   7
 -32   2   7 603.838 302.032   3
  32  -2  -7 545.359 375.476   4
  32  -2  -6 2955.81 631.511   7
  32   2  -6 4198.82 783.034   7
 -32   2   6 3671.51 669.286   3
  32  -2  -6 4322.27 940.743   4
  32  -2  -5 219.195 211.192   7
  32   2  -5-115.728 182.767   7
 -32   2   5-134.018 182.888   3
  32  -2  -5 204.864 197.358   4
  32  -2  -4 9084.13 1138.67   7
  32   2  -4 8732.64 1161.67   7
  32  -2  -4 7821.72 1263.51   4
  32  -2  -3 70.4494 54.9551   7
  32   2  -3 162.203 181.448   7
  32  -2  -2 10051.2 1232.24   7
  32   2  -2 9132.44 1198.05   7
  32  -2  -2 7869.71 1240.03   4
  32  -2  -1 7.90530 67.2023   7
  32   2  -1-174.729 179.247   7
  32  -2   0 452.840 262.153   7
  32   2   0 339.813 226.742   7
  32  -2   0 535.001 328.875   4
  32  -2   1 221.697 192.060   7
  32  -2   1 170.584 109.938   4
  32  -2   2 10675.2 1342.10   7
  32  -2   2 11478.9 1478.96   4
  32  -2   3 79.8913 151.824   7
 -32  -4  27-122.750 153.601   2
 -32  -4  26-522.578 310.966   2
 -32  -4  25 115.708 150.393   2
 -32  -4  24 6101.94 1068.90   2
 -32  -4  23-312.257 240.858   2
 -32  -4  22 774.412 378.006   2
 -32  -4  21 145.873 194.061   2
 -32  -4  20 14919.5 1673.51   2
 -32   4  19-54.1273 107.835   3
 -32  -4  19 290.304 232.426   2
 -32   4  18 1753.74 564.015   6
 -32   4  18 1127.73 429.972   3
 -32  -4  18 1587.27 535.683   2
  32  -4 -18 1136.84 512.601   4
 -32   4  17 46.9832 310.895   6
 -32   4  17-1.64542 137.162   3
 -32  -4  17-144.210 167.077   2
  32  -4 -17 169.918 165.599   4
 -32   4  16 6031.65 1025.68   3
 -32   4  16 7393.89 1161.68   6
 -32  -4  16 5888.73 1050.77   2
  32  -4 -16 6933.41 1308.80   4
 -32   4  15 117.713 161.373   6
 -32   4  15-148.011 164.122   3
  32  -4 -15 111.358 163.006   4
 -32   4  14 855.628 401.428   6
 -32   4  14 933.390 372.839   3
 -32  -4  14 300.206 161.413   2
  32  -4 -14 1200.75 499.707   4
 -32   4  13 34.1412 182.884   6
 -32   4  13 9.47469 154.703   3
 -32  -4  13-78.8469 202.682   2
  32  -4 -13-592.226 382.228   4
 -32   4  12 14643.3 1563.81   3
 -32   4  12 12520.5 1496.08   6
 -32  -4  12 14186.0 1634.36   2
  32  -4 -12 13922.9 1843.85   4
 -32   4  11 418.400 260.661   3
 -32  -4  11 145.598 94.3150   2
  32  -4 -11 68.9305 133.930   4
 -32   4  10 3629.51 759.211   3
 -32  -4  10 3835.23 827.769   2
  32  -4 -10 3043.09 836.720   4
 -32   4   9 240.943 202.147   3
 -32  -4   9 86.3426 175.915   2
  32  -4  -9-46.9214 130.294   4
 -32   4   8 3108.06 710.076   3
 -32  -4   8 2489.89 668.901   2
  32  -4  -8 3082.64 830.146   4
 -32   4   7 422.613 317.934   3
 -32  -4   7-109.461 207.765   2
 -32   4   6 3205.06 711.562   3
 -32   4   5 1411.48 543.918   3
 -32   4   4 5315.97 905.389   3
 -32   4   3-150.096 152.371   3
 -32   4   2 3879.90 766.324   3
  32  -4   0-12.9995 54.0952   7
 -33  -1  27-18.7313 197.280   6
 -33   1  26-93.3537 111.927   6
 -33  -1  26-152.604 121.965   6
 -33   1  25 14893.0 1583.47   6
 -33  -1  25 14361.6 1499.43   6
  33  -1 -25 15620.2 1878.05   4
 -33   1  24-162.950 170.926   6
 -33  -1  24 245.784 236.043   6
  33  -1 -24 390.067 353.357   4
 -33   1  23 182.305 234.778   6
 -33  -1  23 478.899 273.424   6
  33  -1 -23 106.895 126.224   4
 -33   1  22-4.61808 195.195   6
 -33  -1  22 391.176 259.789   6
 -33   1  21 8975.33 1215.51   6
 -33  -1  21 8109.72 1119.71   6
 -33  -1  21 6939.46 946.947   2
  33  -1 -21 8611.30 1390.82   4
 -33   1  20 207.744 197.717   6
 -33  -1  20 477.204 309.473   6
 -33  -1  20 235.920 190.080   2
  33  -1 -20-136.955 80.0928   4
 -33   1  19 19.0093 181.544   6
 -33  -1  19 70.5034 164.441   6
 -33  -1  19 630.437 234.948   2
  33  -1 -19 5.16841 202.206   4
 -33   1  18 57.6769 110.530   6
 -33  -1  18-61.8838 140.855   6
 -33  -1  18 38.7290 145.744   2
  33  -1 -18-121.516 197.382   4
 -33   1  17 16810.1 1663.24   6
 -33  -1  17 14870.8 1495.57   6
 -33  -1  17 16565.3 1506.85   2
  33  -1 -17 17038.0 1940.10   4
  33  -1 -16-37.8541 119.058   7
 -33   1  16 131.282 184.258   6
 -33  -1  16 186.195 192.557   6
  33  -1 -16 67.4255 164.758   4
  33  -1 -15 1980.35 468.683   7
 -33   1  15 1816.31 556.963   6
 -33  -1  15 2220.60 586.725   6
  33  -1 -15 1947.96 723.040   4
  33  -1 -14-37.0240 37.3911   7
 -33   1  14-75.6578 149.831   6
 -33  -1  14-419.221 224.933   6
  33  -1 -14-252.112 259.586   4
  33  -1 -13 2355.63 524.752   7
  33   1 -13 1868.17 486.263   7
 -33   1  13 3190.32 735.711   6
 -33  -1  13 2011.58 557.430   6
  33  -1 -13 1582.13 591.051   4
  33  -1 -12-60.0743 151.603   7
  33   1 -12-84.4874 95.5167   7
 -33   1  12 48.2153 155.027   6
 -33  -1  12 284.677 224.788   6
  33  -1 -12-266.557 290.048   4
  33  -1 -11 1992.33 500.433   7
  33   1 -11 2359.33 559.147   7
 -33   1  11 2490.92 651.223   6
 -33  -1  11 2894.90 642.395   6
  33  -1 -11 2224.10 682.362   4
  33  -1 -10 315.933 215.148   7
  33   1 -10-213.069 177.919   7
 -33   1  10-96.9598 163.753   6
 -33  -1  10-209.584 216.535   6
 -33   1  10 140.775 157.625   3
  33  -1 -10 212.043 263.288   4
  33  -1  -9 14433.9 1376.62   7
  33   1  -9 14733.7 1439.96   7
 -33   1   9 15801.7 1419.58   3
  33  -1  -9 13736.8 1709.73   4
  33  -1  -8 34.7554 105.114   7
  33   1  -8-190.178 190.859   7
 -33   1   8-75.4651 90.6267   3
  33  -1  -8 216.890 182.465   4
  33  -1  -7 4747.96 811.829   7
  33   1  -7 3930.83 739.593   7
  33  -1  -7 6659.98 1157.88   4
  33  -1  -6 4.58789 123.370   7
  33   1  -6-78.3906 56.7403   7
  33  -1  -6 189.480 229.916   4
  33  -1  -5 2699.75 636.595   7
  33   1  -5 3544.86 739.454   7
  33  -1  -5 3231.46 790.985   4
  33  -1  -4-62.2843 104.341   7
  33   1  -4 111.587 123.492   7
  33  -1  -4-247.131 231.791   4
  33  -1  -3 10078.1 1255.25   7
  33   1  -3 9406.11 1200.27   7
  33  -1  -3 9025.96 1349.74   4
  33  -1  -2 53.1091 86.1906   7
  33   1  -2 256.048 197.997   7
  33  -1  -2 204.281 204.817   4
  33  -1  -1 7077.45 1060.27   7
  33   1  -1 6890.03 1052.18   7
  33  -1  -1 6017.81 1088.98   4
  33  -1   0-463.691 274.956   7
  33  -1   0 133.402 212.047   4
  33   1   0-158.544 143.395   4
  33  -1   1 6468.18 1058.07   7
  33  -1   1 5614.93 1032.96   4
  33   1   1 5763.33 1030.43   4
 -33  -3  27 505.893 292.124   6
 -33  -3  26 105.204 94.7453   6
 -33  -3  26 275.908 214.425   2
 -33  -3  25 16094.3 1527.77   6
 -33  -3  25 13625.5 1519.66   2
 -33  -3  24-16.1682 86.9536   6
 -33  -3  24 349.358 265.160   2
 -33  -3  23 201.726 201.996   6
 -33  -3  23 260.312 181.508   2
 -33  -3  22 178.442 220.950   6
 -33  -3  22-320.557 231.569   2
 -33  -3  21 7218.48 1016.92   6
 -33  -3  21 7869.76 1149.51   2
 -33   3  20-37.6528 159.433   6
 -33  -3  20 40.4383 116.916   2
  33  -3 -20-83.3695 158.346   4
 -33   3  19-77.3250 219.110   6
 -33  -3  19 156.463 103.450   6
 -33  -3  19 2.38197 40.7229   2
  33  -3 -19-215.841 239.873   4
 -33   3  18 272.013 365.453   6
 -33  -3  18 13.8776 170.142   6
 -33  -3  18-66.4229 172.528   2
  33  -3 -18-281.456 241.692   4
 -33   3  17 11021.5 1401.78   6
 -33  -3  17 9440.46 1152.35   6
 -33  -3  17 9976.45 1324.47   2
  33  -3 -17 10890.4 1609.68   4
 -33   3  16 75.4921 162.801   6
 -33   3  16 322.532 205.924   3
 -33  -3  16-39.4667 91.6036   2
  33  -3 -16-101.397 165.805   4
 -33   3  15 58.0432 107.326   6
 -33   3  15 162.072 165.703   3
 -33  -3  15 353.172 233.383   2
  33  -3 -15-323.039 248.411   4
 -33   3  14 232.060 163.535   6
 -33   3  14 53.2075 163.930   3
 -33  -3  14-94.2849 45.4590   2
  33  -3 -14 119.422 283.995   4
 -33   3  13 2788.65 684.423   6
 -33   3  13 2391.67 616.762   3
 -33  -3  13 2826.78 698.897   2
  33  -3 -13 2485.08 745.361   4
 -33   3  12-223.518 261.262   6
 -33   3  12-87.0117 141.529   3
 -33  -3  12 32.6100 105.844   2
  33  -3 -12 170.356 236.159   4
 -33   3  11 2690.08 638.651   3
 -33  -3  11 2428.43 658.832   2
  33  -3 -11 2579.06 772.898   4
 -33   3  10 269.813 224.006   3
 -33  -3  10-136.517 161.025   2
  33  -3 -10 325.419 306.930   4
 -33   3   9 12930.1 1406.13   3
 -33  -3   9 13947.5 1575.43   2
  33  -3  -9 10395.9 1539.81   4
 -33   3   8-106.463 128.039   3
 -33  -3   8 186.165 187.266   2
  33  -3  -8 33.3150 91.1622   4
 -33   3   7 5770.94 918.610   3
  33   3  -7 4856.24 872.227   7
  33  -3  -7 6220.12 1192.93   4
 -33   3   6 700.222 334.746   3
  33   3  -6 548.038 301.309   7
  33  -3  -6 239.389 368.619   4
  33  -3  -5 4898.73 843.825   7
 -33   3   5 3781.19 730.310   3
  33  -3  -5 3670.31 886.112   4
  33  -3  -4-22.8489 95.4924   7
  33  -3  -4 489.433 484.991   4
  33  -3  -3 5439.52 913.320   7
  33  -3  -3 4324.94 978.409   4
  33  -3  -2 215.550 142.069   7
  33  -3  -2-105.527 157.203   4
  33  -3  -1 5926.52 986.292   7
  33  -3  -1 5401.57 1082.30   4
  33  -3   0 365.761 285.403   7
 -34   0  25-183.403 215.747   6
 -34   0  24-40.9319 133.333   6
 -34   0  23-141.320 125.381   6
 -34   0  22 16889.2 1667.65   6
 -34   0  21 397.568 309.186   6
 -34   0  20 162.202 205.335   6
 -34   0  19 8.34381 123.570   6
  34   0 -18 5185.77 785.008   7
 -34   0  18 4853.70 884.795   6
  34   0 -17-49.5862 81.9673   7
 -34   0  17 97.9483 94.7476   6
  34   0 -16 170.534 168.262   7
 -34   0  16 38.7585 160.565   6
  34   0 -15-130.208 156.312   7
 -34   0  15-67.9819 79.6214   6
  34   0 -14 9000.61 1065.83   7
 -34   0  14 8154.71 1163.66   6
  34   0 -13-27.5013 122.690   7
 -34   0  13 359.736 275.067   6
  34   0 -12 2784.15 598.313   7
 -34   0  12 3203.09 719.479   6
  34   0 -11-259.090 362.865   4
  34   0 -11 100.372 102.033   7
 -34   0  11-38.2437 205.340   6
  34   0 -10 3447.22 864.481   4
  34   0 -10 2606.73 586.671   7
  34   0  -9-102.414 139.724   7
  34   0  -9 67.0552 249.636   4
  34   0  -8 1241.37 416.936   7
  34   0  -8 2160.03 660.878   4
  34   0  -7 106.318 95.1291   7
  34   0  -7 398.660 311.985   4
  34   0  -6 11260.7 1291.89   7
  34   0  -6 10327.4 1476.86   4
  34   0  -5 190.650 169.346   7
  34   0  -5 112.768 184.273   4
  34   0  -4 6039.57 979.231   7
  34   0  -4 5528.91 1068.61   4
  34   0  -3-367.846 242.512   7
  34   0  -3 220.366 234.940   4
  34   0  -2 2616.80 659.033   7
  34   0  -2 2730.16 747.809   4
  34   0  -1 46.5460 115.580   4
  34   0   0 4835.21 973.773   4
 -34  -2  26 4429.50 822.432   6
 -34  -2  25-685.596 324.731   6
 -34  -2  24 149.039 154.647   6
 -34  -2  23 50.6745 112.601   6
 -34  -2  23 224.227 186.362   2
 -34  -2  22 11808.7 1348.09   6
 -34  -2  22 13580.3 1441.32   2
 -34  -2  21 335.160 236.060   6
 -34  -2  21 127.328 217.761   2
 -34   2  20 80.2366 236.459   6
 -34  -2  20 230.261 180.641   6
 -34  -2  20 72.1397 107.366   2
  34  -2 -20 136.563 280.294   4
 -34   2  19 472.657 346.598   6
 -34  -2  19 170.895 124.453   6
 -34  -2  19 188.865 159.033   2
  34  -2 -19 274.505 342.705   4
 -34   2  18 2964.02 725.364   6
 -34  -2  18 2610.92 610.999   6
 -34  -2  18 3200.28 708.677   2
  34  -2 -18 3009.49 825.335   4
 -34   2  17 94.6616 155.461   6
 -34  -2  17-130.036 105.856   6
 -34  -2  17 59.0521 101.543   2
  34  -2 -17 129.766 174.688   4
 -34   2  16 330.616 268.509   6
 -34  -2  16 322.234 167.413   6
 -34  -2  16 74.9883 70.7057   2
  34  -2 -16 367.222 226.775   4
 -34   2  15-197.114 118.435   6
 -34  -2  15-231.380 191.995   6
 -34  -2  15 16.3507 116.107   2
  34  -2 -15 84.4225 240.315   4
 -34   2  14 9292.39 1281.76   6
 -34  -2  14 9591.97 1211.77   6
 -34  -2  14 10047.8 1294.73   2
  34  -2 -14 9558.83 1487.64   4
 -34   2  13 236.485 260.579   6
 -34  -2  13 119.896 246.223   6
 -34   2  13-115.136 205.961   3
 -34  -2  13 52.6041 68.1489   2
  34  -2 -13 56.9629 78.8444   4
 -34   2  12 1005.17 380.490   6
 -34  -2  12 1599.49 488.215   6
 -34   2  12 1072.06 396.557   3
  34  -2 -12 907.926 493.023   4
  34   2 -11-10.9559 132.434   7
 -34   2  11 147.851 148.545   3
  34  -2 -11 27.6563 153.339   4
  34   2 -10 3128.12 681.119   7
 -34   2  10 2130.78 550.126   3
  34  -2 -10 2978.17 831.039   4
  34  -2  -9-12.4231 208.421   7
  34   2  -9 236.076 197.349   7
 -34   2   9-42.3033 129.366   3
  34  -2  -9-75.8136 143.817   4
  34  -2  -8 1919.15 510.117   7
  34   2  -8 2224.55 583.053   7
 -34   2   8 2167.51 546.380   3
  34  -2  -8 1617.78 616.485   4
  34  -2  -7 316.958 252.573   7
  34   2  -7-144.980 188.166   7
  34  -2  -7 16.6822 83.2542   4
  34  -2  -6 11669.2 1308.30   7
  34   2  -6 12318.2 1398.50   7
  34  -2  -6 12540.7 1678.03   4
  34   2  -5-181.930 175.457   7
  34  -2  -5-188.905 211.384   4
  34  -2  -4 9647.60 1231.76   7
  34  -2  -4 9581.38 1435.82   4
  34  -2  -3-75.1373 82.6034   7
  34  -2  -3-123.411 127.702   4
  34  -2  -2 3618.82 768.927   7
  34  -2  -2 3565.63 890.040   4
  34  -2  -1 326.509 293.650   7
  34  -2  -1 610.690 357.064   4
  34  -2   0 3843.74 892.317   4
 -34   4  11 101.871 111.384   3
 -34   4  10 2439.46 659.296   3
 -34   4   9 70.3969 113.246   3
 -34   4   8 2175.73 606.766   3
 -34   4   7-158.491 163.935   3
 -35  -1  24 72.3875 207.231   6
 -35  -1  23 2917.64 710.641   6
 -35  -1  22 203.107 213.674   6
 -35  -1  21-119.871 167.251   6
 -35   1  20 100.222 78.5781   6
 -35  -1  20-544.361 297.332   6
 -35   1  19 14519.5 1602.46   6
 -35  -1  19 14969.9 1565.88   6
 -35   1  18 575.035 356.309   6
 -35  -1  18 139.309 109.383   6
  35   1 -17 723.745 326.165   7
 -35   1  17 874.837 364.074   6
 -35  -1  17 600.356 255.647   6
  35  -1 -17 1160.51 548.303   4
  35   1 -16-112.748 48.3630   7
 -35   1  16-213.793 274.034   6
 -35  -1  16-241.520 102.426   6
  35   1 -15 10827.0 1224.50   7
 -35   1  15 12143.4 1461.49   6
 -35  -1  15 10563.1 1329.05   6
  35  -1 -15 11251.8 1623.90   4
  35   1 -14-126.286 124.450   7
 -35   1  14 381.492 322.687   6
 -35  -1  14 2.30485 123.282   6
  35  -1 -14-247.592 302.568   4
  35  -1 -13 868.713 325.054   7
  35   1 -13 1072.23 391.140   7
 -35   1  13 381.528 205.933   6
 -35  -1  13 616.434 264.648   6
  35  -1 -13 514.237 380.885   4
  35  -1 -12-111.191 191.629   7
  35   1 -12-100.529 149.079   7
 -35   1  12 60.2296 117.739   6
 -35  -1  12-58.1370 247.261   6
  35  -1 -12 378.330 364.168   4
  35  -1 -11 15091.8 1426.11   7
  35   1 -11 14705.4 1470.81   7
 -35   1  11 15270.5 1452.32   3
  35  -1 -11 16395.7 1934.52   4
  35  -1 -10-78.0150 98.9920   7
  35   1 -10-124.291 114.028   7
  35  -1  -9 3144.63 674.719   7
  35   1  -9 2701.72 648.579   7
  35  -1  -8 263.222 207.205   7
  35   1  -8 23.5443 74.3697   7
  35  -1  -8 257.764 255.130   4
  35  -1  -7 889.767 392.028   7
  35   1  -7 1262.40 422.017   7
  35  -1  -7 1162.03 485.850   4
  35  -1  -6 269.551 202.245   7
  35   1  -6-151.219 199.937   7
  35  -1  -6-510.790 335.097   4
  35  -1  -5 2058.69 555.354   7
  35  -1  -5 1746.09 649.878   4
  35  -1  -4 199.495 188.968   7
  35  -1  -4-139.027 218.916   4
  35  -1  -3 3954.55 908.657   4
  35   1  -3 4548.21 993.593   4
  35  -1  -2 164.206 169.640   4
  35   1  -2 311.094 254.725   4
  35  -1  -1 4233.43 926.580   4
  35   1  -1 4582.23 987.589   4
 -35  -3  23 4121.42 851.825   2
 -35  -3  22-161.708 169.549   2
 -35  -3  21 193.272 103.509   2
 -35  -3  20-458.269 284.651   2
 -35  -3  19 10456.0 1372.09   2
 -35  -3  18-51.8507 157.867   2
 -35  -3  17-173.521 178.930   2
 -35   3  16-111.902 184.907   3
 -35  -3  16 289.493 255.642   2
 -35   3  15 5912.09 1000.96   3
 -35  -3  15 7021.76 1127.57   2
 -35   3  14-118.485 164.401   3
 -35   3  13 504.265 285.355   3
 -35   3  12 223.436 197.419   3
 -35   3  11 16777.1 1655.89   3
 -35   3  10 27.0052 135.276   3
 -35   3   9 4037.04 793.671   3
 -35   3   8-159.904 158.286   3
 -36   0  19-199.355 183.656   6
 -36   0  18 128.295 135.425   6
 -36   0  17-9.02478 66.0257   6
  36   0 -16 22276.4 1709.60   7
 -36   0  16 23259.7 2027.51   6
  36   0 -15 108.299 142.220   7
 -36   0  15 0.82278 114.664   6
  36   0 -14-21.5468 110.399   7
 -36   0  14-63.4617 219.288   6
  36   0 -13 91.6354 55.9537   7
 -36   0  13-135.026 240.856   6
  36   0 -12 5872.72 920.228   7
  36   0 -11 180.509 125.069   7
  36   0 -10 778.402 301.414   7
  36   0  -9-58.8702 89.4920   7
  36   0  -8 10904.3 1295.81   7
  36   0  -7-44.0721 136.531   7
 -36  -2  22 347.425 268.631   6
 -36  -2  21-50.3733 60.5018   6
 -36  -2  21-166.214 163.644   2
 -36  -2  20 3245.73 723.227   6
 -36  -2  20 3193.91 723.824   2
 -36  -2  19-198.481 182.356   6
 -36  -2  19 299.898 275.786   2
 -36  -2  18 693.005 346.855   6
 -36  -2  18 759.584 336.415   2
 -36  -2  17 81.2960 144.325   6
 -36  -2  17 59.6597 103.969   2
 -36  -2  16 13354.6 1478.20   6
 -36  -2  15 121.779 45.1273   6
 -36   2  15 69.4084 128.943   3
  36   2 -14-112.402 109.753   7
 -36  -2  14 257.828 313.954   6
 -36   2  14-233.133 194.297   3
 -36   2  13-64.8674 183.988   3
 -36   2  12 5270.45 895.978   3
  37   1 -17 5196.86 851.787   7
  37   1 -16-87.5814 99.4710   7
 -37  -1  16 90.3134 212.215   6
  37   1 -15 47.9069 131.931   7
 -37  -1  15-159.421 109.857   6
  37   1 -14-78.0125 126.373   7
 -37  -1  14-16.4141 128.309   6
   0   0   0    0.00    0.00   0
TITL exp_225 in C2/c
REM C2/c (#15 with fixed user cell (not necessary: standard = user cell)!)
CELL 0.71073  24.598798   7.091319  26.891253  89.9748 111.7819  89.9964
ZERR   19.00   0.001075   0.000253   0.001169   0.0032   0.0041   0.0032
LATT  7
SYMM -x, y,-z+1/2
SFAC C H N O
UNIT 209.00 190.00 19.00 19.00
TREF
HKLF 4
END
;
_shelx_hkl_checksum              64742
loop_
_space_group_symop_operation_xyz
'x, y, z'
'-x, y, -z+1/2'
'x+1/2, y+1/2, z'
'-x+1/2, y+1/2, -z+1/2'
'-x, -y, -z'
'x, -y, z-1/2'
'-x+1/2, -y+1/2, -z'
'x+1/2, -y+1/2, z-1/2'
loop_
_atom_site_label
_atom_site_type_symbol
_atom_site_fract_x
_atom_site_fract_y
_atom_site_fract_z
_atom_site_U_iso_or_equiv
_atom_site_adp_type
_atom_site_occupancy
_atom_site_site_symmetry_order
_atom_site_calc_flag
_atom_site_refinement_flags_posn
_atom_site_refinement_flags_adp
_atom_site_refinement_flags_occupancy
Pt1 Pt 0.36453(2) 0.74902(2) 0.63169(2) 0.00326(4) Uani 1 1 d . . .
Fe2 Fe 0.5000 1.24750(11) 0.7500 0.00324(13) Uani 1 2 d S T P
Fe1 Fe 0.2500 0.2500 0.5000 0.00335(13) Uani 1 2 d S . P
N7 N 0.12244(13) 0.2330(4) 0.56432(12) 0.0067(6) Uani 1 1 d . . .
N12 N 0.55159(15) 1.1641(4) 0.55506(13) 0.0087(7) Uani 1 1 d . . .
C9 C 0.11020(18) 0.2899(5) 0.69622(17) 0.0106(9) Uani 1 1 d . . .
H9 H 0.1320 0.3264 0.7313 0.013 Uiso 1 1 calc R U .
C1 C 0.31332(18) 0.5558(5) 0.58295(17) 0.0056(9) Uani 1 1 d . . .
N8 N 0.04551(15) 0.1729(4) 0.59186(14) 0.0094(7) Uani 1 1 d . . .
C8 C 0.13524(18) 0.2939(5) 0.65768(16) 0.0095(9) Uani 1 1 d . . .
H8 H 0.1736 0.3346 0.6658 0.011 Uiso 1 1 calc R U .
N10 N 0.60918(13) 1.2726(4) 0.73103(13) 0.0068(7) Uani 1 1 d . . .
N3 N 0.44937(15) 1.0549(4) 0.70475(14) 0.0057(7) Uani 1 1 d . . .
C3 C 0.41753(18) 0.9453(5) 0.67842(17) 0.0055(8) Uani 1 1 d . . .
N4 N 0.44868(15) 0.4407(4) 0.70410(14) 0.0052(7) Uani 1 1 d . . .
C17 C 0.61027(18) 1.1896(5) 0.50082(17) 0.0094(8) Uani 1 1 d . . .
H17 H 0.6132 1.1736 0.4675 0.011 Uiso 1 1 calc R U .
N6 N 0.12380(15) 0.2046(4) 0.48295(13) 0.0089(7) Uani 1 1 d . . .
C18 C 0.55946(19) 1.1440(5) 0.50832(17) 0.0102(9) Uani 1 1 d . . .
H18 H 0.5285 1.0960 0.4792 0.012 Uiso 1 1 calc R U .
N1 N 0.28533(15) 0.4456(4) 0.55264(14) 0.0053(7) Uani 1 1 d . . .
C11 C 0.02225(19) 0.1749(5) 0.62987(17) 0.0110(9) Uani 1 1 d . . .
H11 H -0.0165 0.1364 0.6204 0.013 Uiso 1 1 calc R U .
C12 C 0.53763(16) 1.2314(5) 0.65444(15) 0.0065(7) Uani 1 1 d . . .
H12 H 0.5005 1.2121 0.6284 0.008 Uiso 1 1 calc R U .
C10 C 0.05245(16) 0.2308(5) 0.68220(15) 0.0082(8) Uani 1 1 d . . .
H10 H 0.0347 0.2291 0.7073 0.010 Uiso 1 1 calc R U .
C15 C 0.65002(17) 1.2838(5) 0.59206(16) 0.0093(9) Uani 1 1 d . . .
H15 H 0.6804 1.3322 0.6217 0.011 Uiso 1 1 calc R U .
C13 C 0.63092(17) 1.2721(5) 0.69391(15) 0.0082(8) Uani 1 1 d . . .
H13 H 0.6705 1.2861 0.7001 0.010 Uiso 1 1 calc R U .
C5 C 0.17840(15) 0.2564(5) 0.56728(14) 0.0059(7) Uani 1 1 d . . .
H5 H 0.2106 0.2790 0.5986 0.007 Uiso 1 1 calc R U .
C14 C 0.59698(17) 1.2345(5) 0.59517(14) 0.0067(7) Uani 1 1 d . . .
C6 C 0.09066(18) 0.1974(5) 0.51103(17) 0.0102(9) Uani 1 1 d . . .
H6 H 0.0507 0.1715 0.4969 0.012 Uiso 1 1 calc R U .
N2 N 0.28858(15) 1.0601(4) 0.55404(14) 0.0060(7) Uani 1 1 d . . .
N11 N 0.58829(13) 1.2483(5) 0.64482(11) 0.0049(6) Uani 1 1 d . . .
C7 C 0.10077(16) 0.2350(5) 0.60686(15) 0.0062(7) Uani 1 1 d . . .
N5 N 0.18000(12) 0.2422(5) 0.51944(12) 0.0048(6) Uani 1 1 d . . .
C16 C 0.65648(16) 1.2590(6) 0.54340(15) 0.0086(7) Uani 1 1 d . . .
H16 H 0.6916 1.2890 0.5397 0.010 Uiso 1 1 calc R U .
N9 N 0.54963(13) 1.2466(5) 0.70570(11) 0.0043(6) Uani 1 1 d . . .
C4 C 0.41670(18) 0.5506(5) 0.67793(17) 0.0047(8) Uani 1 1 d . U .
C2 C 0.31506(18) 0.9471(5) 0.58344(17) 0.0053(8) Uani 1 1 d . . .
O1 O 0.69271(12) 1.2581(4) 0.83129(11) 0.0083(5) Uani 1 1 d . . .
H1A H 0.6643(18) 1.246(6) 0.8031(17) 0.010 Uiso 1 1 d . U .
H1B H 0.6850(18) 1.263(6) 0.8582(17) 0.010 Uiso 1 1 d . U .
O2 O 0.74217(15) 1.5618(4) 0.79572(14) 0.0118(7) Uani 1 1 d . . .
H2A H 0.724(2) 1.510(6) 0.808(2) 0.014 Uiso 1 1 d . U .
H2B H 0.733(2) 1.665(6) 0.7966(18) 0.014 Uiso 1 1 d . U .
O3 O 0.74058(15) 0.9488(4) 0.79619(14) 0.0103(7) Uani 1 1 d . . .
H3A H 0.744(2) 0.986(6) 0.7720(19) 0.012 Uiso 1 1 d . U .
H3B H 0.731(2) 1.032(6) 0.8072(19) 0.012 Uiso 1 1 d . U .
loop_
_atom_site_aniso_label
_atom_site_aniso_U_11
_atom_site_aniso_U_22
_atom_site_aniso_U_33
_atom_site_aniso_U_23
_atom_site_aniso_U_13
_atom_site_aniso_U_12
Pt1 0.00285(7) 0.00345(6) 0.00316(7) -0.00016(7) 0.00076(5) -0.00007(7)
Fe2 0.0023(3) 0.0035(3) 0.0034(3) 0.000 0.0005(3) 0.000
Fe1 0.0025(3) 0.0037(3) 0.0035(3) -0.0001(3) 0.0008(3) -0.0009(3)
N7 0.0056(15) 0.0066(16) 0.0076(16) 0.0004(14) 0.0022(13) 0.0014(14)
N12 0.0114(19) 0.0075(16) 0.0056(18) 0.0022(13) 0.0015(15) 0.0016(14)
C9 0.013(2) 0.013(2) 0.005(2) 0.0009(15) 0.0025(17) 0.0033(16)
C1 0.005(2) 0.0061(19) 0.007(2) 0.0034(15) 0.0034(18) 0.0038(15)
N8 0.0092(18) 0.0084(16) 0.012(2) 0.0037(14) 0.0060(15) 0.0019(14)
C8 0.0043(19) 0.011(2) 0.013(2) 0.0006(15) 0.0023(17) 0.0035(15)
N10 0.0042(15) 0.0108(17) 0.0068(16) -0.0031(14) 0.0038(13) 0.0009(14)
N3 0.0055(19) 0.0076(17) 0.003(2) 0.0015(13) -0.0001(15) 0.0040(13)
C3 0.005(2) 0.0101(19) 0.001(2) 0.0017(14) 0.0008(16) 0.0027(15)
N4 0.0043(19) 0.0064(16) 0.008(2) -0.0010(13) 0.0053(16) -0.0008(13)
C17 0.012(2) 0.0073(18) 0.011(2) 0.0021(15) 0.0067(18) 0.0040(16)
N6 0.0064(17) 0.0126(18) 0.0073(18) 0.0002(12) 0.0022(14) 0.0002(13)
C18 0.012(2) 0.0067(19) 0.009(2) 0.0006(15) 0.0007(18) 0.0004(16)
N1 0.0052(19) 0.0054(16) 0.007(2) 0.0017(13) 0.0044(16) 0.0009(13)
C11 0.008(2) 0.0093(19) 0.015(2) 0.0042(16) 0.0031(18) 0.0010(16)
C12 0.0039(17) 0.0070(18) 0.0078(19) 0.0004(16) 0.0012(15) 0.0027(16)
C10 0.0071(18) 0.0090(19) 0.0076(19) 0.0036(16) 0.0018(15) 0.0011(17)
C15 0.0067(19) 0.013(2) 0.008(2) 0.0003(15) 0.0030(16) 0.0017(16)
C13 0.0053(18) 0.014(2) 0.0047(18) 0.0006(16) 0.0005(15) 0.0017(17)
C5 0.0039(16) 0.0065(16) 0.0060(18) 0.0018(17) 0.0001(14) 0.0023(17)
C14 0.0104(18) 0.0066(18) 0.0035(18) 0.0024(16) 0.0032(15) 0.0003(17)
C6 0.0055(19) 0.012(2) 0.012(2) -0.0020(15) 0.0016(17) 0.0005(15)
N2 0.0042(19) 0.0078(16) 0.006(2) -0.0004(13) 0.0017(16) 0.0000(13)
N11 0.0055(14) 0.0057(13) 0.0036(15) -0.0001(15) 0.0018(12) -0.0005(15)
C7 0.0063(17) 0.0061(17) 0.0077(18) 0.0013(16) 0.0044(15) 0.0017(17)
N5 0.0011(14) 0.0061(14) 0.0057(15) 0.0033(14) -0.0004(12) -0.0004(14)
C16 0.0070(17) 0.0101(18) 0.0102(19) 0.0039(18) 0.0049(15) 0.0052(18)
N9 0.0036(14) 0.0049(13) 0.0045(15) 0.0013(14) 0.0015(12) 0.0027(14)
C4 0.0045(9) 0.0048(9) 0.0046(9) 0.0001(5) 0.0016(5) -0.0004(5)
C2 0.004(2) 0.0072(19) 0.003(2) -0.0037(15) 0.0002(18) -0.0006(15)
O1 0.0074(13) 0.0123(13) 0.0056(14) -0.0032(14) 0.0027(11) -0.0009(13)
O2 0.0117(18) 0.0092(15) 0.017(2) 0.0021(13) 0.0084(15) 0.0012(13)
O3 0.0160(18) 0.0062(15) 0.011(2) 0.0008(12) 0.0076(15) 0.0034(13)
loop_
_atom_type_symbol
_atom_type_description
_atom_type_scat_dispersion_real
_atom_type_scat_dispersion_imag
_atom_type_scat_source
C C 0.0033 0.0016 'International Tables Vol C Tables 4.2.6.8 and 6.1.1.4'
H H 0.0000 0.0000 'International Tables Vol C Tables 4.2.6.8 and 6.1.1.4'
Fe Fe 0.3463 0.8444 'International Tables Vol C Tables 4.2.6.8 and 6.1.1.4'
N N 0.0061 0.0033 'International Tables Vol C Tables 4.2.6.8 and 6.1.1.4'
O O 0.0106 0.0060 'International Tables Vol C Tables 4.2.6.8 and 6.1.1.4'
Pt Pt -1.7033 8.3905 'International Tables Vol C Tables 4.2.6.8 and 6.1.1.4'
loop_
_geom_angle_atom_site_label_1
_geom_angle_atom_site_label_2
_geom_angle_atom_site_label_3
_geom_angle
_geom_angle_site_symmetry_1
_geom_angle_site_symmetry_3
C1 Pt1 C2 88.45(13) . .
C1 Pt1 C4 91.58(16) . .
C2 Pt1 C4 177.13(17) . .
C1 Pt1 C3 177.60(17) . .
C2 Pt1 C3 90.92(16) . .
C4 Pt1 C3 88.93(14) . .
N3 Fe2 N3 90.58(19) 2_656 .
N3 Fe2 N4 89.11(12) 2_656 2_666
N3 Fe2 N4 179.69(19) . 2_666
N3 Fe2 N4 179.69(19) 2_656 1_565
N3 Fe2 N4 89.11(12) . 1_565
N4 Fe2 N4 91.20(19) 2_666 1_565
N3 Fe2 N9 90.94(14) 2_656 2_656
N3 Fe2 N9 88.82(14) . 2_656
N4 Fe2 N9 91.16(13) 2_666 2_656
N4 Fe2 N9 89.08(13) 1_565 2_656
N3 Fe2 N9 88.82(13) 2_656 .
N3 Fe2 N9 90.94(14) . .
N4 Fe2 N9 89.08(13) 2_666 .
N4 Fe2 N9 91.16(13) 1_565 .
N9 Fe2 N9 179.7(2) 2_656 .
N1 Fe1 N1 180.0 7_556 .
N1 Fe1 N2 89.36(12) 7_556 7_566
N1 Fe1 N2 90.65(12) . 7_566
N1 Fe1 N2 90.64(12) 7_556 1_545
N1 Fe1 N2 89.35(12) . 1_545
N2 Fe1 N2 180.00(18) 7_566 1_545
N1 Fe1 N5 88.56(13) 7_556 .
N1 Fe1 N5 91.43(13) . .
N2 Fe1 N5 89.18(13) 7_566 .
N2 Fe1 N5 90.82(13) 1_545 .
N1 Fe1 N5 91.44(13) 7_556 7_556
N1 Fe1 N5 88.57(13) . 7_556
N2 Fe1 N5 90.82(13) 7_566 7_556
N2 Fe1 N5 89.18(13) 1_545 7_556
N5 Fe1 N5 180.00(18) . 7_556
C5 N7 C6 104.7(3) . .
C5 N7 C7 128.5(3) . .
C6 N7 C7 126.7(3) . .
C14 N12 C18 115.3(4) . .
C8 C9 C10 119.7(4) . .
C8 C9 H9 120.1 . .
C10 C9 H9 120.1 . .
N1 C1 Pt1 175.9(4) . .
C7 N8 C11 116.0(4) . .
C7 C8 C9 117.0(4) . .
C7 C8 H8 121.5 . .
C9 C8 H8 121.5 . .
C13 N10 N9 106.6(3) . .
C3 N3 Fe2 177.0(4) . .
N3 C3 Pt1 177.7(4) . .
C4 N4 Fe2 176.9(3) . 1_545
C16 C17 C18 118.6(4) . .
C16 C17 H17 120.7 . .
C18 C17 H17 120.7 . .
C6 N6 N5 105.7(3) . .
N12 C18 C17 124.4(4) . .
N12 C18 H18 117.8 . .
C17 C18 H18 117.8 . .
C1 N1 Fe1 170.6(3) . .
N8 C11 C10 123.8(4) . .
N8 C11 H11 118.1 . .
C10 C11 H11 118.1 . .
N9 C12 N11 109.2(3) . .
N9 C12 H12 125.4 . .
N11 C12 H12 125.4 . .
C11 C10 C9 118.0(4) . .
C11 C10 H10 121.0 . .
C9 C10 H10 121.0 . .
C14 C15 C16 117.8(4) . .
C14 C15 H15 121.1 . .
C16 C15 H15 121.1 . .
N10 C13 N11 111.0(3) . .
N10 C13 H13 124.5 . .
N11 C13 H13 124.5 . .
N5 C5 N7 109.5(3) . .
N5 C5 H5 125.2 . .
N7 C5 H5 125.2 . .
N12 C14 C15 125.0(4) . .
N12 C14 N11 114.3(3) . .
C15 C14 N11 120.7(3) . .
N6 C6 N7 111.1(4) . .
N6 C6 H6 124.4 . .
N7 C6 H6 124.4 . .
C2 N2 Fe1 173.4(4) . 1_565
C13 N11 C12 104.8(3) . .
C13 N11 C14 125.9(3) . .
C12 N11 C14 129.2(3) . .
N8 C7 C8 125.4(4) . .
N8 C7 N7 113.2(3) . .
C8 C7 N7 121.4(3) . .
C5 N5 N6 108.8(3) . .
C5 N5 Fe1 127.4(2) . .
N6 N5 Fe1 123.6(2) . .
C17 C16 C15 118.9(4) . .
C17 C16 H16 120.5 . .
C15 C16 H16 120.5 . .
C12 N9 N10 108.3(3) . .
C12 N9 Fe2 133.1(3) . .
N10 N9 Fe2 118.5(2) . .
N4 C4 Pt1 176.9(4) . .
N2 C2 Pt1 176.1(4) . .
H1A O1 H1B 115(4) . .
H2A O2 H2B 103(5) . .
H3A O3 H3B 104(5) . .
loop_
_geom_bond_atom_site_label_1
_geom_bond_atom_site_label_2
_geom_bond_distance
_geom_bond_site_symmetry_2
Pt1 C1 1.986(4) .
Pt1 C2 1.988(4) .
Pt1 C4 1.995(4) .
Pt1 C3 1.997(4) .
Fe2 N3 1.939(3) 2_656
Fe2 N3 1.939(3) .
Fe2 N4 1.956(3) 2_666
Fe2 N4 1.956(3) 1_565
Fe2 N9 1.996(3) 2_656
Fe2 N9 1.996(3) .
Fe1 N1 1.939(3) 7_556
Fe1 N1 1.939(3) .
Fe1 N2 1.947(3) 7_566
Fe1 N2 1.947(3) 1_545
Fe1 N5 1.976(3) .
Fe1 N5 1.976(3) 7_556
N7 C5 1.358(4) .
N7 C6 1.375(5) .
N7 C7 1.429(5) .
N12 C14 1.326(5) .
N12 C18 1.347(5) .
C9 C8 1.387(6) .
C9 C10 1.391(5) .
C9 H9 0.9300 .
C1 N1 1.153(5) .
N8 C7 1.339(5) .
N8 C11 1.343(5) .
C8 C7 1.376(5) .
C8 H8 0.9300 .
N10 C13 1.294(5) .
N10 N9 1.378(4) .
N3 C3 1.142(5) .
N4 C4 1.143(5) .
N4 Fe2 1.956(3) 1_545
C17 C16 1.368(5) .
C17 C18 1.376(6) .
C17 H17 0.9300 .
N6 C6 1.301(5) .
N6 N5 1.390(4) .
C18 H18 0.9300 .
C11 C10 1.381(5) .
C11 H11 0.9300 .
C12 N9 1.301(4) .
C12 N11 1.368(4) .
C12 H12 0.9300 .
C10 H10 0.9300 .
C15 C14 1.382(5) .
C15 C16 1.385(5) .
C15 H15 0.9300 .
C13 N11 1.355(5) .
C13 H13 0.9300 .
C5 N5 1.304(4) .
C5 H5 0.9300 .
C14 N11 1.430(4) .
C6 H6 0.9300 .
N2 C2 1.142(5) .
N2 Fe1 1.947(3) 1_565
C16 H16 0.9300 .
O1 H1A 0.82(4) .
O1 H1B 0.81(4) .
O2 H2A 0.74(5) .
O2 H2B 0.76(4) .
O3 H3A 0.74(4) .
O3 H3B 0.74(4) .
