#------------------------------------------------------------------------------
#$Date: 2019-11-23 14:04:36 +0200 (Sat, 23 Nov 2019) $
#$Revision: 233552 $
#$URL: file:///home/coder/svn-repositories/cod/cif/4/34/90/4349034.cif $
#------------------------------------------------------------------------------
#
# This file is available in the Crystallography Open Database (COD),
# http://www.crystallography.net/
#
# All data on this site have been placed in the public domain by the
# contributors.
#
data_4349034
loop_
_publ_author_name
'Li, Yu-Ling'
'Zhao, Yue'
'Wang, Peng'
'Kang, Yan-Shang'
'Liu, Qing'
'Zhang, Xiu-Du'
'Sun, Wei-Yin'
_publ_section_title
;
 Multifunctional Metal-Organic Frameworks with Fluorescent Sensing and
 Selective Adsorption Properties.
;
_journal_issue                   22
_journal_name_full               'Inorganic chemistry'
_journal_page_first              11821
_journal_page_last               11830
_journal_paper_doi               10.1021/acs.inorgchem.6b01869
_journal_volume                  55
_journal_year                    2016
_chemical_formula_moiety         'C100 H110 Cd3 N16 O26'
_chemical_formula_sum            'C100 H110 Cd3 N16 O26'
_chemical_formula_weight         2289.23
_space_group_crystal_system      triclinic
_space_group_IT_number           2
_space_group_name_Hall           '-P 1'
_space_group_name_H-M_alt        'P -1'
_atom_sites_solution_hydrogens   mixed
_audit_creation_method           SHELXL-2014/7
_cell_angle_alpha                91.644(5)
_cell_angle_beta                 101.974(5)
_cell_angle_gamma                93.755(5)
_cell_formula_units_Z            1
_cell_length_a                   8.945(5)
_cell_length_b                   14.856(5)
_cell_length_c                   19.861(5)
_cell_measurement_reflns_used    6368
_cell_measurement_temperature    293(2)
_cell_measurement_theta_max      27.43
_cell_measurement_theta_min      2.33
_cell_volume                     2573.9(18)
_computing_cell_refinement       'Bruker SMART'
_computing_data_collection       'Bruker SMART'
_computing_data_reduction        'Bruker SAINT'
_computing_molecular_graphics    'Bruker SHELXTL'
_computing_publication_material  'Bruker SHELXTL'
_computing_structure_refinement  'SHELXL-97 (Sheldrick, 1997)'
_computing_structure_solution    'SHELXS-97 (Sheldrick, 1990)'
_diffrn_ambient_temperature      293(2)
_diffrn_measured_fraction_theta_full 0.992
_diffrn_measured_fraction_theta_max 0.992
_diffrn_measurement_device_type  'CCD area detector'
_diffrn_measurement_method       'phi and omega scans'
_diffrn_radiation_type           MoK\a
_diffrn_radiation_wavelength     0.71073
_diffrn_reflns_av_R_equivalents  0.0265
_diffrn_reflns_av_unetI/netI     0.0494
_diffrn_reflns_Laue_measured_fraction_full 0.992
_diffrn_reflns_Laue_measured_fraction_max 0.992
_diffrn_reflns_limit_h_max       10
_diffrn_reflns_limit_h_min       -6
_diffrn_reflns_limit_k_max       17
_diffrn_reflns_limit_k_min       -17
_diffrn_reflns_limit_l_max       23
_diffrn_reflns_limit_l_min       -23
_diffrn_reflns_number            14521
_diffrn_reflns_point_group_measured_fraction_full 0.992
_diffrn_reflns_point_group_measured_fraction_max 0.992
_diffrn_reflns_theta_full        25.010
_diffrn_reflns_theta_max         25.010
_diffrn_reflns_theta_min         1.049
_exptl_absorpt_coefficient_mu    0.696
_exptl_crystal_colour            colorless
_exptl_crystal_density_diffrn    1.477
_exptl_crystal_description       flaky
_exptl_crystal_F_000             1174
_exptl_crystal_size_max          0.280
_exptl_crystal_size_mid          0.250
_exptl_crystal_size_min          0.220
_refine_diff_density_max         0.402
_refine_diff_density_min         -0.467
_refine_diff_density_rms         0.082
_refine_ls_extinction_method     none
_refine_ls_goodness_of_fit_ref   1.082
_refine_ls_hydrogen_treatment    constr
_refine_ls_matrix_type           full
_refine_ls_number_parameters     682
_refine_ls_number_reflns         9017
_refine_ls_number_restraints     24
_refine_ls_restrained_S_all      1.090
_refine_ls_R_factor_all          0.0441
_refine_ls_R_factor_gt           0.0340
_refine_ls_shift/su_max          0.003
_refine_ls_shift/su_mean         0.000
_refine_ls_structure_factor_coef Fsqd
_refine_ls_weighting_details
'w=1/[\s^2^(Fo^2^)+(0.0558P)^2^+0.9779P] where P=(Fo^2^+2Fc^2^)/3'
_refine_ls_weighting_scheme      calc
_refine_ls_wR_factor_gt          0.0917
_refine_ls_wR_factor_ref         0.1080
_reflns_Friedel_coverage         0.000
_reflns_number_gt                7511
_reflns_number_total             9017
_reflns_threshold_expression     'I > 2\s(I)'
_cod_data_source_file            ic6b01869_si_002.cif
_cod_data_source_block           2
_cod_database_code               4349034
_shelx_shelxl_version_number     2014/7
_shelx_space_group_comment
;
The symmetry employed for this shelxl refinement is uniquely defined
by the following loop, which should always be used as a source of
symmetry information in preference to the above space-group names.
They are only intended as comments.
;
_shelx_estimated_absorpt_t_min   0.829
_shelx_estimated_absorpt_t_max   0.862
_shelx_res_file
;

    2.res created by SHELXL-2014/7

TITL                                      2 in P-1
CELL   0.71073      8.945   14.856   19.861   91.644  101.974   93.755
ZERR         1      0.005    0.005    0.005    0.005    0.005    0.005
LATT 1
SFAC C  H  N  O  Cd
UNIT 100 110 16 26 3
MERG 2
OMIT  -3.00  50.02
L.S. 20
ACTA
FMAP 2
PLAN 30
HTAB C46 O7
HTAB C45 O3_$9
HTAB C15 O4_$1
HTAB C1 O5W_$4
HTAB O5W O3W_$8
HTAB O5W O4W
HTAB O4W O4_$1
HTAB O4W O2
HTAB O3W O5_$6
HTAB O3W O2W
HTAB O2W O8
HTAB O2W O1_$1
HTAB O1W O2_$2
HTAB O1W O3W_$1
HTAB C46 O7
HTAB C15 O4_$1
HTAB C1 O5W_$3
HTAB O5W O3W
HTAB O5W O4W_$7
EQIV $7 x, y, z-1
HTAB O4W O4_$1
HTAB O4W O2
HTAB O3W O5_$6
EQIV $6 x+1, y, z
HTAB O3W O2W
HTAB O2W O8
HTAB O2W O1_$1
HTAB O1W O2_$2
HTAB O1W O3W_$1
HTAB C46 O7
HTAB C15 O4_$1
HTAB C1 O5W_$3
HTAB O1W O2_$2
HTAB O1W O3W_$1
HTAB C46 O7
HTAB C15 O4_$1
HTAB C1 O5W_$4
HTAB O1W O2_$2
HTAB O1W O3W_$1
HTAB C46 O7
HTAB C45 O6_$5
HTAB C15 O4_$1
HTAB C1 O5W_$3
HTAB O1W O2_$2
HTAB O1W O3W_$1
HTAB C46 O7
HTAB C15 O4_$1
HTAB C1 O5W_$4
HTAB O1W O2_$2
HTAB O1W O3W_$1
HTAB C15 O4_$1
HTAB C1 O5W_$4
HTAB O1W O2_$2
HTAB O1W O3W_$1
HTAB C15 O4_$1
HTAB C1 O5W_$3
EQIV $3 -x+1, -y+2, -z+1
HTAB O1W O2_$2
EQIV $2 -x, -y+1, -z+2
HTAB O1W O3W_$1
EQIV $1 -x, -y+1, -z+1
eadp c50 c50'
eadp c49 c49'
eadp o8 o8'
eadp c48 c48'
exyz o8 o8'
exyz c49 c49'
exyz c50 c50'
exyz c48 c48'
dfix 0.85 .01 o3w h3wb
dfix 1.45 .01 c43 n7 c47 n8
dfix 1.51 .01 c43 c44 c47 c48
dfix 1.49 .01 c45 n7 c49 n8
dfix 1.49 .01 c46 n7 c50 n8
dfix 0.85 .001 o5w h5wb
dfix 0.85 .001 o5w h5wa
dang 1.5 .01 h4wa h4wb
htab
conf
size .28 .25 .22
isor .01 c43' n7'
HTAB O1W O3W_$1
HTAB O1W O2_$2
EQIV $4 -x+1, -y+2, -z+2
HTAB C1 O5W_$4
HTAB C15 O4_$1
HTAB O1W O3W_$1
HTAB O1W O2_$2
HTAB C1 O5W_$4
HTAB C15 O4_$1
HTAB O1W O3W_$1
HTAB O1W O2_$2
HTAB C1 O5W_$3
HTAB C15 O4_$1
EQIV $5 -x, -y+2, -z+2
HTAB C45 O6_$5
HTAB C46 O7
HTAB O1W O3W_$1
HTAB O1W O2_$2
HTAB C1 O5W_$3
HTAB C15 O4_$1
HTAB C45 O6_$5
HTAB C46 O7
HTAB O1W O3W_$1
HTAB O1W O2_$2
HTAB C1 O5W_$4
HTAB C15 O4_$1
HTAB C46 O7
HTAB O1W O3W_$1
HTAB O1W O2_$2
HTAB C1 O5W_$3
HTAB C15 O4_$1
HTAB C46 O7
HTAB O1W O3W_$1
HTAB O1W O2_$2
HTAB O2W O1_$1
HTAB O2W O8
HTAB O3W O2W
HTAB O3W O5_$6
HTAB O4W O2
HTAB O4W O4_$1
HTAB O5W O4W
EQIV $8 x, y, z+1
HTAB O5W O3W_$8
HTAB C1 O5W_$4
HTAB C15 O4_$1
EQIV $9 -x+1, -y+1, -z+2
HTAB C45 O3_$9
HTAB C46 O7
FREE Q18  O3W
temp 20
WGHT    0.055800    0.977900
FVAR       0.11711
CD1   5    0.959808    1.020522    1.271827    11.00000    0.02926    0.02133 =
         0.02138    0.00032    0.00440    0.00354
CD2   5    0.000000    0.500000    1.000000    10.50000    0.03337    0.03424 =
         0.02161    0.00510    0.00182   -0.01145
N1    3    0.784525    0.968044    1.178911    11.00000    0.03706    0.03218 =
         0.02924   -0.00677    0.00377    0.00382
N2    3    0.657993    0.899426    1.082371    11.00000    0.03788    0.03393 =
         0.02387   -0.00643    0.00424   -0.00616
N3    3    0.211125    0.546968    0.960444    11.00000    0.04173    0.03847 =
         0.03056    0.00077    0.01206   -0.01321
N4    3    0.404174    0.637792    0.946155    11.00000    0.04133    0.03202 =
         0.03250   -0.00506    0.01505   -0.01208
N5    3    0.850856    0.913395    0.777847    11.00000    0.02932    0.03005 =
         0.03052    0.00295    0.00875    0.00026
N6    3    0.697061    0.862102    0.843308    11.00000    0.03235    0.03416 =
         0.02477   -0.00137    0.00910   -0.00970
PART 1
N7    3    0.794921    0.917618    1.446116    10.60000    0.05485    0.07206 =
         0.03556    0.02693    0.01072    0.00970
PART 0
O1    4   -0.160244    0.526994    0.896701    11.00000    0.05078    0.04517 =
         0.02667    0.01115   -0.00266   -0.01184
O2    4   -0.085073    0.673606    0.896699    11.00000    0.06409    0.03846 =
         0.02706   -0.00238    0.00163   -0.00424
O3    4   -0.018948    0.138190    0.352192    11.00000    0.04565    0.03165 =
         0.05098   -0.00716    0.01204    0.01635
AFIX   2
O4    4   -0.207827    0.155183    0.263643    11.00000    0.05175    0.03855 =
         0.04544   -0.01701    0.00953    0.00340
AFIX   0
O5    4   -0.850953    0.874430    0.238424    11.00000    0.08187    0.04268 =
         0.04248    0.00094   -0.01485    0.02393
O6    4   -0.866419    0.942244    0.336485    11.00000    0.05197    0.04624 =
         0.04532    0.01951    0.01889    0.02735
O7    4    0.783425    0.945998    1.334100    11.00000    0.05306    0.07779 =
         0.03947    0.01676    0.01388   -0.00545
O1W   4    0.045713    0.348985    0.965955    11.00000    0.06551    0.04201 =
         0.03382    0.00037    0.00246   -0.00789
AFIX   3
H1WA  2   -0.041197    0.324086    0.932245    11.00000   -1.50000
H1WB  2    0.060233    0.312315    1.005494    11.00000   -1.50000
AFIX   0
O2W   4    0.356184    0.640356    0.132577    11.00000    0.07221    0.05476 =
         0.05283    0.00836   -0.00070   -0.01111
AFIX   3
H2WA  2    0.283449    0.588613    0.120159    11.00000   -1.20000
H2WB  2    0.461349    0.635114    0.167959    11.00000   -1.20000
AFIX   0
O3W   4    0.170958    0.781752    0.117644    11.00000    0.08461    0.07545 =
         0.04758   -0.01423   -0.00268    0.00478
AFIX   3
H3WA  2    0.253361    0.735695    0.129091    11.00000   -1.20000

H3WB  2    0.163868    0.806905    0.155418    11.00000   -1.20000
AFIX   0
O4W   4    0.169108    0.795528    0.877527    11.00000    0.06474    0.08179 =
         0.07219    0.03013   -0.00309   -0.00845
AFIX   3
H4WB  2    0.097306    0.743885    0.873703    11.00000   -1.20000
H4WA  2    0.187750    0.808324    0.838177    11.00000   -1.20000
AFIX   0
O5W   4    0.170399    0.902016    1.001558    11.00000    0.15818    0.05989 =
         0.12407    0.00406    0.01524   -0.01026
AFIX   3
H5WA  2    0.179671    0.865489    0.969193    11.00000   -1.20000
H5WB  2    0.134827    0.860438    1.023639    11.00000   -1.20000
AFIX   0
C1    1    0.683086    0.880570    0.963250    11.00000    0.03207    0.03136 =
         0.03259   -0.00358    0.00640   -0.01164
AFIX  43
H1    2    0.742786    0.934864    0.967015    11.00000   -1.20000
AFIX   0
C2    1    0.626548    0.848188    1.018761    11.00000    0.03807    0.03551 =
         0.02593   -0.00684    0.00719   -0.00553
C3    1    0.536591    0.767770    1.013640    11.00000    0.03802    0.03734 =
         0.02918    0.00085    0.01264   -0.00999
AFIX  43
H3    2    0.500184    0.746908    1.051367    11.00000   -1.20000
AFIX   0
C4    1    0.501891    0.718948    0.951034    11.00000    0.03511    0.03003 =
         0.03272   -0.00445    0.01019   -0.00651
C5    1    0.556469    0.748577    0.894932    11.00000    0.03648    0.03606 =
         0.02690   -0.00471    0.00982   -0.00838
AFIX  43
H5    2    0.533010    0.715429    0.853183    11.00000   -1.20000
AFIX   0
C6    1    0.647230    0.829040    0.902273    11.00000    0.02603    0.03433 =
         0.03221   -0.00070    0.00943   -0.00587
C7    1    0.796673    0.929356    1.120408    11.00000    0.03951    0.03212 =
         0.03101   -0.00480    0.00702   -0.00882
AFIX  43
H7    2    0.888992    0.923247    1.106761    11.00000   -1.20000
AFIX   0
C8    1    0.630115    0.963200    1.178696    11.00000    0.04438    0.05355 =
         0.03646   -0.01405    0.00713    0.01038
AFIX  43
H8    2    0.587231    0.985369    1.214089    11.00000   -1.20000
AFIX   0
C9    1    0.550299    0.921702    1.119789    11.00000    0.02641    0.06357 =
         0.04864   -0.01667    0.00343    0.00424
AFIX  43
H9    2    0.444550    0.910348    1.106904    11.00000   -1.20000
AFIX   0
C10   1    0.276826    0.628632    0.971116    11.00000    0.03285    0.03466 =
         0.03513   -0.00202    0.01367   -0.00859
AFIX  43
H10   2    0.239175    0.675151    0.993564    11.00000   -1.20000
AFIX   0
C11   1    0.302465    0.500805    0.926538    11.00000    0.08253    0.04275 =
         0.09023   -0.02686    0.05244   -0.03226
AFIX  43
H11   2    0.285212    0.440171    0.912230    11.00000   -1.20000
AFIX   0
C12   1    0.421139    0.555912    0.916856    11.00000    0.08920    0.05068 =
         0.10019   -0.03407    0.06677   -0.02458
AFIX  43
H12   2    0.498792    0.541163    0.894719    11.00000   -1.20000
AFIX   0
C13   1    0.841931    0.892507    0.840382    11.00000    0.03405    0.02858 =
         0.02606    0.00042    0.00433   -0.00361
AFIX  43
H13   2    0.924053    0.897772    0.877982    11.00000   -1.20000
AFIX   0
C14   1    0.705465    0.896011    0.738321    11.00000    0.04256    0.03679 =
         0.02621    0.00207    0.00386   -0.00005
AFIX  43
H14   2    0.677532    0.905076    0.691374    11.00000   -1.20000
AFIX   0
C15   1    0.609816    0.864053    0.777421    11.00000    0.03659    0.03601 =
         0.03134   -0.00321    0.00156   -0.00546
AFIX  43
H15   2    0.505971    0.846767    0.763021    11.00000   -1.20000
AFIX   0
C16   1   -0.142178    0.600443    0.866872    11.00000    0.03142    0.04240 =
         0.02581    0.00528    0.00251    0.00222
C17   1   -0.189122    0.596140    0.789444    11.00000    0.03271    0.02953 =
         0.02235    0.00257    0.00302    0.00426
C18   1   -0.245114    0.515051    0.752878    11.00000    0.04731    0.02971 =
         0.02832    0.00741    0.00237   -0.00068
AFIX  43
H18   2   -0.261133    0.463395    0.776558    11.00000   -1.20000
AFIX   0
C19   1   -0.276767    0.511147    0.681890    11.00000    0.03870    0.02822 =
         0.02762   -0.00069    0.00016   -0.00062
AFIX  43
H19   2   -0.312478    0.456425    0.658271    11.00000   -1.20000
AFIX   0
C20   1   -0.256349    0.587496    0.644823    11.00000    0.02684    0.02663 =
         0.02222   -0.00048    0.00085    0.00863
C21   1   -0.204626    0.668754    0.681238    11.00000    0.04449    0.02515 =
         0.02569    0.00498    0.00656    0.00342
AFIX  43
H21   2   -0.192609    0.720856    0.657457    11.00000   -1.20000
AFIX   0
C22   1   -0.170942    0.672864    0.752318    11.00000    0.04191    0.02800 =
         0.02551   -0.00576    0.00210    0.00186
AFIX  43
H22   2   -0.135545    0.727694    0.775832    11.00000   -1.20000
AFIX   0
C23   1   -0.291268    0.580840    0.568126    11.00000    0.02769    0.02359 =
         0.02106    0.00072    0.00145    0.00495
C24   1   -0.253460    0.505689    0.533527    11.00000    0.02963    0.02574 =
         0.02854    0.00520    0.00257    0.00933
AFIX  43
H24   2   -0.203613    0.460573    0.558762    11.00000   -1.20000
AFIX   0
C25   1   -0.288595    0.496628    0.462096    11.00000    0.02531    0.02179 =
         0.02571   -0.00246    0.00113    0.00384
C26   1   -0.363750    0.564662    0.425207    11.00000    0.03266    0.02703 =
         0.02199   -0.00254    0.00404    0.00472
AFIX  43
H26   2   -0.385213    0.560130    0.377318    11.00000   -1.20000
AFIX   0
C27   1   -0.407632    0.639475    0.458368    11.00000    0.02698    0.02464 =
         0.02432    0.00171    0.00114    0.00420
C28   1   -0.367503    0.647595    0.530033    11.00000    0.03440    0.02097 =
         0.02513   -0.00048    0.00856    0.00554
AFIX  43
H28   2   -0.392026    0.698397    0.552772    11.00000   -1.20000
AFIX   0
C29   1   -0.248263    0.415206    0.426838    11.00000    0.03078    0.02257 =
         0.02514    0.00058    0.00707    0.00451
C30   1   -0.342902    0.377811    0.366252    11.00000    0.03373    0.03149 =
         0.03924   -0.01021    0.00267    0.01187
AFIX  43
H30   2   -0.433927    0.403575    0.348283    11.00000   -1.20000
AFIX   0
C31   1   -0.303529    0.303353    0.332689    11.00000    0.04067    0.03498 =
         0.03131   -0.00693   -0.00212    0.00505
AFIX  43
H31   2   -0.367053    0.280855    0.291699    11.00000   -1.20000
AFIX   0
C32   1   -0.171515    0.261392    0.358692    11.00000    0.03472    0.02214 =
         0.03544   -0.00336    0.01251    0.00611
C33   1   -0.077382    0.297285    0.419609    11.00000    0.03717    0.03245 =
         0.03439    0.00080    0.00598    0.01353
AFIX  43
H33   2    0.011693    0.270013    0.438289    11.00000   -1.20000
AFIX   0
C34   1   -0.115217    0.373187    0.452599    11.00000    0.03074    0.03195 =
         0.02955   -0.00461    0.00004    0.00889
AFIX  43
H34   2   -0.050145    0.396596    0.492911    11.00000   -1.20000
AFIX   0
C35   1   -0.129797    0.179224    0.322110    11.00000    0.04001    0.02578 =
         0.04477   -0.00881    0.01931   -0.00152
C36   1   -0.503662    0.706481    0.418816    11.00000    0.02890    0.02467 =
         0.02459    0.00156    0.00131    0.00480
C37   1   -0.502077    0.721017    0.350101    11.00000    0.04843    0.04314 =
         0.03201    0.00725    0.01304    0.02340
AFIX  43
H37   2   -0.434518    0.691261    0.329037    11.00000   -1.20000
AFIX   0
C38   1   -0.599428    0.779121    0.312260    11.00000    0.05613    0.04036 =
         0.02445    0.00826    0.00913    0.01988
AFIX  43
H38   2   -0.597132    0.786856    0.266176    11.00000   -1.20000
AFIX   0
C39   1   -0.699678    0.825596    0.342220    11.00000    0.03952    0.02377 =
         0.03188    0.00333    0.00254    0.00648
C40   1   -0.700071    0.811889    0.410770    11.00000    0.04847    0.03965 =
         0.03930    0.00648    0.01199    0.02210
AFIX  43
H40   2   -0.765436    0.843030    0.432222    11.00000   -1.20000
AFIX   0
C41   1   -0.605304    0.752855    0.448034    11.00000    0.05030    0.04146 =
         0.02546    0.00774    0.01064    0.01813
AFIX  43
H41   2   -0.609921    0.744090    0.493755    11.00000   -1.20000
AFIX   0
C42   1   -0.813710    0.885016    0.301911    11.00000    0.03446    0.03016 =
         0.04293    0.01205    0.00181    0.00226
PART 1
C43   1    0.739645    0.965134    1.387721    10.60000    0.04621    0.04551 =
         0.03306    0.01545    0.00433    0.00035
PART 0
C44   1    0.627790    1.031909    1.397983    11.00000    0.10711    0.08536 =
         0.10933    0.02262    0.03806    0.02947
AFIX 137
H44A  2    0.543389    1.001574    1.413161    11.00000   -1.50000
H44B  2    0.590667    1.059734    1.355283    11.00000   -1.50000
H44C  2    0.677403    1.077349    1.432104    11.00000   -1.50000
AFIX   0
C45   1    0.739355    0.931182    1.509436    11.00000    0.13479    0.11298 =
         0.04010    0.00581    0.02430   -0.02266
AFIX 137
H45A  2    0.719066    0.993353    1.514783    11.00000   -1.50000
H45B  2    0.815629    0.915513    1.548043    11.00000   -1.50000
H45C  2    0.646795    0.893609    1.507160    11.00000   -1.50000
AFIX   2
C46   1    0.896637    0.847277    1.434440    11.00000    0.07931    0.12067 =
         0.13221    0.09034    0.04296    0.04941
AFIX 137
H46A  2    0.850454    0.789057    1.441402    11.00000   -1.50000
H46B  2    0.993414    0.857730    1.466201    11.00000   -1.50000
H46C  2    0.912303    0.849221    1.388112    11.00000   -1.50000
PART 1
AFIX   0
C47   1    0.728092    0.645545    0.228492    10.60000    0.03909    0.05025 =
         0.05813    0.00705    0.01332    0.00941
C48   1    0.747747    0.740986    0.212755    10.60000    0.10704    0.05334 =
         0.13604    0.03504    0.03347    0.02346
AFIX   3
H48A  2    0.650737    0.761855    0.191144    10.60000   -1.50000
H48B  2    0.787877    0.775706    0.254885    10.60000   -1.50000
H48C  2    0.817997    0.747946    0.182384    10.60000   -1.50000
AFIX   0
C49   1    0.843678    0.507502    0.265281    10.60000    0.12484    0.08102 =
         0.22327    0.09137    0.09078    0.04366
AFIX   3
H49A  2    0.737638    0.488141    0.261492    10.60000   -1.50000
H49B  2    0.881728    0.478281    0.229162    10.60000   -1.50000
H49C  2    0.901448    0.491841    0.309172    10.60000   -1.50000
AFIX   0
C50   1    1.006628    0.659990    0.263973    10.60000    0.06706    0.08203 =
         0.48742    0.07637    0.01799   -0.00606
AFIX   3
H50A  2    0.989727    0.722799    0.258773    10.60000   -1.50000
H50B  2    1.073047    0.652300    0.307733    10.60000   -1.50000
H50C  2    1.053327    0.638750    0.227723    10.60000   -1.50000
AFIX   0
N8    3    0.861431    0.609409    0.260459    10.60000    0.04621    0.04438 =
         0.11050    0.02718    0.00814    0.00757
O8    4    0.609959    0.593741    0.222321    10.60000    0.05349    0.10200 =
         0.09845   -0.02857    0.00323    0.01176
PART 2
C48'  1    0.747747    0.740986    0.212755    10.40000    0.10704    0.05334 =
         0.13604    0.03504    0.03347    0.02346
AFIX   3
H48D  2    0.639289    0.730091    0.197301    10.40000   -1.50000
H48E  2    0.767529    0.784991    0.251591    10.40000   -1.50000
H48F  2    0.790528    0.767261    0.176341    10.40000   -1.50000
AFIX   0
C49'  1    0.843678    0.507502    0.265281    10.40000    0.12484    0.08102 =
         0.22327    0.09137    0.09078    0.04366
AFIX   3
H49D  2    0.782919    0.452971    0.267061    10.40000   -1.50000
H49E  2    0.918129    0.497341    0.237401    10.40000   -1.50000
H49F  2    0.900359    0.525201    0.311911    10.40000   -1.50000
AFIX   0
C50'  1    1.006628    0.659990    0.263973    10.40000    0.06706    0.08203 =
         0.48742    0.07637    0.01799   -0.00606
AFIX   3
H50D  2    1.042777    0.602101    0.275271    10.40000   -1.50000
H50E  2    1.057608    0.683361    0.227861    10.40000   -1.50000
H50F  2    1.034617    0.701091    0.303111    10.40000   -1.50000
AFIX   0
C47'  1    0.746553    0.581932    0.237948    10.40000    0.05571    0.06973 =
         0.04861    0.01569    0.02208    0.02400
N8'   3    0.824913    0.652800    0.235851    10.40000    0.04989    0.04608 =
         0.09385    0.02209    0.01916    0.00431
O8'   4    0.609959    0.593741    0.222321    10.40000    0.05349    0.10200 =
         0.09845   -0.02857    0.00323    0.01176
C43'  1    0.795992    0.921298    1.394849    10.40000    0.04348    0.06207 =
         0.05576    0.01058    0.00380   -0.01354
N7'   3    0.733415    0.957843    1.435152    10.40000    0.07829    0.07786 =
         0.05553    0.01352    0.01390   -0.02284
PART 0
HKLF      4

REM                                       2 in P-1
REM R1 =  0.0340 for    7511 Fo > 4sig(Fo)  and  0.0441 for all    9017 data
REM    682 parameters refined using     24 restraints

END

WGHT      0.0558      0.9780

REM Instructions for potential hydrogen bonds
HTAB O1W O3W_$1
HTAB O1W O2_$2
HTAB O2W O1_$1
HTAB O2W O8
HTAB O3W O2W
HTAB O3W O5_$6
HTAB O4W O2
HTAB O4W O4_$1
HTAB O5W O4W
HTAB O5W O3W_$8
HTAB C1 O5W_$4
HTAB C15 O4_$1
HTAB C45 O3_$9
HTAB C46 O7

REM Highest difference peak  0.402,  deepest hole -0.467,  1-sigma level  0.082
Q1    1   0.9740  0.6363  0.2217  11.00000  0.05    0.40
Q2    1  -0.2522  0.4570  0.4498  11.00000  0.05    0.39
Q3    1   0.9686  0.6410  0.3199  11.00000  0.05    0.36
Q4    1  -0.2793  0.5863  0.6002  11.00000  0.05    0.36
Q5    1  -0.7138  0.8073  0.3711  11.00000  0.05    0.34
Q6    1  -0.4146  0.5839  0.4427  11.00000  0.05    0.34
Q7    1   0.8959  0.8355  1.4706  11.00000  0.05    0.33
Q8    1   0.6413  0.6178  0.1840  11.00000  0.05    0.33
Q9    1  -0.7522  0.8531  0.3268  11.00000  0.05    0.33
Q10   1  -0.2468  0.2705  0.3604  11.00000  0.05    0.33
Q11   1   0.0900  0.4375  1.0091  11.00000  0.05    0.32
Q12   1   0.8552  0.9605  1.1876  11.00000  0.05    0.31
Q13   1  -0.7216  0.8369  0.4281  11.00000  0.05    0.31
Q14   1  -0.1383  0.2173  0.3499  11.00000  0.05    0.30
Q15   1  -0.2269  0.5209  0.4981  11.00000  0.05    0.30
Q16   1   1.0075  0.9131  1.4198  11.00000  0.05    0.30
Q17   1   0.7300  0.8652  1.5208  11.00000  0.05    0.30
Q18   1   0.8858  0.7615  0.2319  11.00000  0.05    0.29
Q19   1   0.8632  0.8741  1.4113  11.00000  0.05    0.29
Q20   1   0.8301  0.5991  0.2149  11.00000  0.05    0.29
Q21   1  -0.2306  0.5588  0.5544  11.00000  0.05    0.29
Q22   1  -0.2849  0.5231  0.7205  11.00000  0.05    0.29
Q23   1  -0.1194  0.2895  0.3903  11.00000  0.05    0.28
Q24   1  -0.0731  0.4439  1.0073  11.00000  0.05    0.28
Q25   1   1.0386  1.0763  1.2685  11.00000  0.05    0.28
Q26   1  -0.2985  0.5343  0.5477  11.00000  0.05    0.28
Q27   1   0.7876  0.9838  1.5325  11.00000  0.05    0.28
Q28   1   0.8495  0.6651  0.2806  11.00000  0.05    0.28
Q29   1   0.8581  0.6633  0.2219  11.00000  0.05    0.27
Q30   1   0.0025  0.2967  0.9413  11.00000  0.05    0.27
;
_shelx_res_checksum              21078
_shelx_hkl_file
;
   1   0   0  164.43    6.17
   1   0   0  172.10    6.11
   2   0   0  100.18    3.69
   2   0   0   99.49    3.66
   3   0   0   25.44    1.00
   3   0   0   24.77    1.04
   4   0   0   20.65    0.88
   4   0   0   21.51    0.95
   5   0   0   65.82    2.53
   5   0   0   66.42    2.63
   6   0   0   31.34    1.42
   6   0   0   30.54    1.29
   7   0   0    4.46    0.51
   7   0   0    4.36    0.38
   8   0   0    1.20    0.37
   9   0   0    4.70    0.61
  10   0   0   -0.24    0.40
  11   0   0    0.29    0.51
  11  -1   0   10.48    1.09
  10  -1   0   12.27    1.02
   9  -1   0    3.08    0.59
   8  -1   0   32.29    1.63
   7  -1   0   19.09    0.95
   7  -1   0   21.47    1.13
   6  -1   0    0.24    0.17
   6  -1   0    0.07    0.20
   5  -1   0    1.93    0.24
   5  -1   0    1.97    0.31
   4  -1   0    3.47    0.27
   4  -1   0    3.24    0.32
   3  -1   0    3.41    0.29
   3  -1   0    3.45    0.23
   2  -1   0    1.55    0.16
   2  -1   0    1.93    0.20
   1  -1   0   94.25    3.46
   0  -1   0   -0.40    0.01
   1   1   0   28.58    1.07
   1   1   0   28.56    1.08
   2   1   0   49.21    1.85
   2   1   0   48.70    1.84
   3   1   0    4.03    0.26
   4   1   0    3.60    0.27
   4   1   0    3.93    0.31
   5   1   0    0.41    0.14
   5   1   0    0.25    0.16
   6   1   0    0.63    0.17
   6   1   0    0.56    0.23
   7   1   0   11.76    0.64
   7   1   0   11.77    0.79
   8   1   0   10.53    0.81
   9   1   0    5.46    0.65
  10   1   0    5.38    0.73
  11   1   0    8.35    0.96
  11  -2   0    1.04    0.57
  10  -2   0    3.31    0.64
   9  -2   0    0.54    0.43
   8  -2   0    3.62    0.54
   8  -2   0    4.64    0.56
   7  -2   0    0.43    0.22
   7  -2   0    0.24    0.30
   6  -2   0    2.24    0.38
   6  -2   0    2.58    0.32
   5  -2   0   28.67    1.25
   5  -2   0   30.16    1.36
   4  -2   0  144.51    5.32
   4  -2   0  137.59    5.23
   3  -2   0   74.77    2.84
   3  -2   0   75.54    2.89
   2  -2   0  267.32    8.63
   2  -2   0  205.04    8.62
   1  -2   0  265.51    9.66
   0  -2   0  301.91   10.26
   0  -2   0  264.02   10.25
   1   2   0  288.14   10.44
   2   2   0  127.54    4.65
   2   2   0  124.14    4.62
   3   2   0  201.16    7.48
   3   2   0  208.30    7.51
   4   2   0   39.25    1.63
   4   2   0   41.66    1.61
   5   2   0   52.66    2.12
   5   2   0   51.81    2.04
   6   2   0    7.22    0.45
   6   2   0    7.26    0.55
   7   2   0   12.09    0.76
   7   2   0   11.52    0.63
   8   2   0   14.50    0.95
   9   2   0    0.59    0.36
  10   2   0    3.04    0.61
  11   2   0    0.63    0.52
  11  -3   0    6.27    0.85
  10  -3   0   18.75    1.33
   9  -3   0   20.27    1.31
   8  -3   0    5.31    0.52
   8  -3   0    4.49    0.62
   7  -3   0   46.75    2.15
   7  -3   0   47.65    2.00
   6  -3   0   21.96    1.16
   6  -3   0   21.02    1.03
   5  -3   0   23.29    1.05
   5  -3   0   21.85    1.13
   4  -3   0    8.74    0.56
   4  -3   0    7.81    0.48
   3  -3   0    3.09    0.31
   3  -3   0    3.19    0.28
   2  -3   0   91.16    3.43
   1  -3   0  295.86   10.78
   0  -3   0    2.41    0.22
   1   3   0  136.82    5.02
   2   3   0  231.17    8.42
   3   3   0   32.94    1.39
   3   3   0   36.54    1.38
   4   3   0    4.62    0.34
   4   3   0    4.11    0.32
   5   3   0   20.79    0.93
   5   3   0   19.31    0.94
   6   3   0    8.41    0.61
   6   3   0   10.09    0.55
   7   3   0   16.30    0.92
   7   3   0   16.13    0.81
   8   3   0    7.97    0.72
   9   3   0    3.05    0.54
  10   3   0    2.18    0.51
  11   3   0    7.55    0.90
  11  -4   0    0.99    0.54
  10  -4   0    0.74    0.47
   9  -4   0    9.75    0.96
   8  -4   0    2.40    0.40
   8  -4   0    2.60    0.53
   7  -4   0    0.55    0.33
   7  -4   0    0.29    0.25
   6  -4   0    0.61    0.24
   6  -4   0    0.24    0.27
   5  -4   0    6.00    0.53
   5  -4   0    5.99    0.47
   4  -4   0   25.40    1.11
   4  -4   0   23.11    1.12
   3  -4   0   14.46    0.74
   3  -4   0   16.34    0.76
   2  -4   0  226.88    8.35
   1  -4   0  171.29    7.01
   1  -4   0  211.69    7.06
   0  -4   0    2.65    0.27
   1   4   0    1.19    0.18
   2   4   0   85.14    3.18
   3   4   0   88.77    3.41
   3   4   0   91.47    3.38
   4   4   0  358.75   13.22
   4   4   0  366.34   13.26
   5   4   0   11.28    0.63
   5   4   0   11.09    0.62
   6   4   0    5.11    0.43
   6   4   0    3.97    0.46
   7   4   0    3.83    0.39
   7   4   0    3.67    0.45
   8   4   0    6.32    0.64
   9   4   0    2.23    0.47
  10   4   0    0.04    0.42
  11  -5   0    4.67    0.78
  10  -5   0   10.53    1.06
   9  -5   0    6.62    0.77
   8  -5   0   20.48    1.10
   8  -5   0   18.11    1.20
   7  -5   0   15.28    1.01
   7  -5   0   15.65    0.90
   6  -5   0   63.62    2.56
   6  -5   0   59.97    2.62
   5  -5   0   -0.06    0.19
   5  -5   0    0.08    0.19
   4  -5   0   70.41    2.81
   4  -5   0   70.89    2.82
   3  -5   0   23.11    1.03
   3  -5   0   20.20    0.98
   2  -5   0    0.28    0.16
   2  -5   0    0.16    0.11
   1  -5   0    2.96    0.25
   1  -5   0    2.93    0.31
   0  -5   0   27.35    1.16
   1   5   0   14.43    0.67
   2   5   0   18.18    0.80
   3   5   0  132.57    4.92
   4   5   0    1.34    0.25
   4   5   0    1.12    0.20
   5   5   0    3.65    0.36
   5   5   0    3.80    0.40
   6   5   0    0.30    0.23
   6   5   0    0.21    0.24
   7   5   0    0.47    0.30
   7   5   0   -0.29    0.21
   8   5   0    0.90    0.35
   9   5   0    3.59    0.58
  10   5   0    6.89    0.83
  11  -6   0    1.01    0.55
  10  -6   0    1.11    0.47
   9  -6   0    4.46    0.69
   8  -6   0    8.51    0.70
   8  -6   0    7.65    0.78
   7  -6   0    1.99    0.44
   7  -6   0    2.62    0.43
   6  -6   0    0.60    0.30
   6  -6   0    0.63    0.29
   5  -6   0    4.23    0.46
   5  -6   0    3.22    0.44
   4  -6   0    1.92    0.30
   4  -6   0    1.58    0.30
   3  -6   0   48.81    1.92
   3  -6   0   42.05    1.86
   2  -6   0   99.85    3.89
   2  -6   0  104.36    3.93
   1  -6   0  107.73    4.05
   1  -6   0  104.00    4.00
   0  -6   0   99.73    3.80
   1   6   0  279.12   10.24
   2   6   0   50.13    1.99
   3   6   0  343.79   12.55
   4   6   0  145.92    5.43
   4   6   0  145.01    5.48
   5   6   0    6.81    0.48
   5   6   0    6.49    0.50
   6   6   0    8.20    0.63
   6   6   0    8.15    0.58
   7   6   0   10.04    0.79
   7   6   0   12.32    0.79
   8   6   0   16.81    1.04
   9   6   0    1.60    0.45
  10   6   0    2.35    0.59
  10  -7   0    7.28    0.90
   9  -7   0   11.98    1.02
   8  -7   0   19.77    1.28
   8  -7   0   25.23    1.29
   7  -7   0   67.11    2.78
   7  -7   0   62.55    2.82
   6  -7   0    1.55    0.37
   6  -7   0    1.32    0.37
   5  -7   0   40.93    1.87
   5  -7   0   43.05    1.88
   4  -7   0   13.43    0.81
   4  -7   0   13.49    0.78
   3  -7   0    3.08    0.36
   3  -7   0    2.95    0.37
   2  -7   0   16.12    0.87
   2  -7   0   17.33    0.85
   1  -7   0    6.69    0.51
   1  -7   0    6.82    0.45
   0  -7   0   12.20    0.68
   1   7   0    0.07    0.15
   2   7   0   15.32    0.76
   3   7   0   16.19    0.78
   4   7   0   27.77    1.21
   5   7   0    0.72    0.28
   5   7   0    0.36    0.20
   6   7   0    0.75    0.27
   6   7   0    1.21    0.30
   7   7   0   -0.24    0.25
   8   7   0    0.16    0.36
   9   7   0    3.85    0.63
  10   7   0   -0.31    0.43
  10  -8   0    2.57    0.65
   9  -8   0    6.35    0.77
   8  -8   0    1.60    0.45
   8  -8   0    1.78    0.45
   7  -8   0    6.20    0.66
   7  -8   0    6.21    0.73
   6  -8   0    1.22    0.35
   6  -8   0    1.69    0.42
   5  -8   0    2.56    0.42
   5  -8   0    2.70    0.42
   4  -8   0    5.16    0.54
   4  -8   0    4.08    0.45
   3  -8   0   10.00    0.64
   3  -8   0    9.56    0.66
   2  -8   0    0.42    0.21
   2  -8   0    0.19    0.22
   1  -8   0   10.01    0.61
   1  -8   0   10.02    0.64
   0  -8   0  110.65    4.27
   1   8   0   40.12    1.69
   2   8   0  135.89    5.14
   3   8   0  128.78    4.87
   4   8   0   65.92    2.61
   5   8   0   53.89    2.20
   5   8   0   53.99    2.26
   6   8   0   23.74    1.22
   6   8   0   23.20    1.16
   7   8   0   52.10    2.28
   8   8   0   10.23    0.83
   9   8   0    2.56    0.56
  10  -9   0    5.85    0.83
   9  -9   0   11.67    1.05
   8  -9   0   33.11    1.70
   8  -9   0   32.66    1.77
   7  -9   0   30.57    1.60
   7  -9   0   30.22    1.62
   6  -9   0   31.47    1.62
   6  -9   0   33.41    1.64
   5  -9   0    1.80    0.41
   5  -9   0    1.28    0.34
   4  -9   0   26.88    1.35
   4  -9   0   29.52    1.43
   3  -9   0   20.78    1.11
   3  -9   0   20.83    1.07
   2  -9   0    3.35    0.42
   2  -9   0    4.05    0.44
   1  -9   0    0.47    0.27
   1  -9   0    0.17    0.18
   1   9   0    5.17    0.44
   2   9   0   17.90    0.91
   3   9   0    6.70    0.50
   4   9   0    0.38    0.20
   5   9   0    8.77    0.61
   5   9   0   10.42    0.71
   6   9   0    6.25    0.62
   6   9   0    7.61    0.61
   7   9   0    0.62    0.36
   8   9   0    2.92    0.58
   9   9   0   -0.87    0.38
  10 -10   0    3.05    0.70
   9 -10   0    8.49    0.96
   8 -10   0    9.63    0.88
   8 -10   0    8.43    0.88
   7 -10   0    1.02    0.40
   7 -10   0    1.34    0.45
   6 -10   0    5.81    0.64
   6 -10   0    6.08    0.70
   5 -10   0   34.85    1.74
   5 -10   0   39.57    1.83
   4 -10   0    4.65    0.54
   4 -10   0    5.67    0.64
   3 -10   0    4.09    0.47
   3 -10   0    4.63    0.55
   2 -10   0    8.35    0.62
   2 -10   0    7.55    0.63
   1 -10   0   30.23    1.47
   1  10   0   20.62    1.06
   2  10   0   30.97    1.42
   3  10   0   27.16    1.27
   4  10   0   25.40    1.21
   5  10   0    8.36    0.67
   5  10   0    7.63    0.59
   6  10   0   53.96    2.35
   6  10   0   53.13    2.29
   7  10   0   30.05    1.56
   8  10   0   10.91    0.97
   9  10   0    5.73    0.78
   9 -11   0    1.18    0.37
   8 -11   0    9.52    0.94
   7 -11   0   29.16    1.60
   6 -11   0    8.98    0.75
   5 -11   0   43.01    1.89
   5 -11   0   31.50    1.73
   4 -11   0   50.74    2.23
   4 -11   0   49.11    2.28
   3 -11   0   41.38    1.89
   3 -11   0   41.13    1.94
   2 -11   0    2.84    0.50
   2 -11   0    2.12    0.36
   1 -11   0   37.06    1.74
   0  11   0    6.72    0.61
   1  11   0    0.46    0.28
   2  11   0    5.36    0.53
   3  11   0    4.23    0.47
   4  11   0    0.20    0.25
   5  11   0    4.58    0.51
   5  11   0    5.10    0.59
   6  11   0    9.81    0.82
   6  11   0    9.33    0.70
   7  11   0    0.71    0.41
   8  11   0   -0.13    0.35
   9 -12   0    0.00    0.21
   8 -12   0    4.76    0.74
   7 -12   0    1.75    0.54
   6 -12   0    6.88    0.81
   5 -12   0    3.74    0.54
   5 -12   0    4.28    0.61
   4 -12   0    0.44    0.33
   4 -12   0    0.30    0.38
   3 -12   0    0.64    0.36
   3 -12   0    0.60    0.31
   2 -12   0   14.01    0.99
   2 -12   0   13.72    0.88
   1 -12   0   -0.04    0.30
   0  12   0   11.23    0.81
   1  12   0   30.57    1.50
   2  12   0   11.02    0.78
   3  12   0   23.76    1.22
   4  12   0   16.84    0.97
   5  12   0   25.59    1.30
   6  12   0   12.29    0.93
   6  12   0   11.14    0.81
   7  12   0   18.48    1.20
   8  12   0    9.39    0.91
   6 -13   0   22.27    1.41
   5 -13   0   13.70    1.01
   5 -13   0   19.78    1.21
   4 -13   0   44.97    2.19
   4 -13   0   45.46    2.13
   3 -13   0   27.99    1.48
   3 -13   0   29.41    1.59
   2 -13   0    0.08    0.34
   0  13   0   25.94    1.39
   1  13   0   15.30    0.99
   2  13   0   -0.20    0.27
   3  13   0    1.81    0.39
   4  13   0    0.30    0.28
   5  13   0    4.28    0.55
   6  13   0    2.37    0.50
   6  13   0    2.79    0.54
   7  13   0    0.36    0.37
   8 -14   0   -0.05    0.44
   8 -14   0   -0.19    0.29
   7 -14   0    1.35    0.50
   6 -14   0    9.09    0.96
   5 -14   0   12.78    1.06
   5 -14   0    9.23    0.83
   4 -14   0    2.82    0.56
   4 -14   0    1.56    0.44
   3 -14   0    0.10    0.39
   3 -14   0    0.12    0.32
   2 -14   0   -0.34    0.37
  -1  14   0   15.36    1.03
   0  14   0    3.20    0.54
   1  14   0    5.84    0.65
   2  14   0   11.55    0.87
   3  14   0   15.50    0.99
   4  14   0   27.63    1.43
   5  14   0   20.05    1.16
   6  14   0    8.51    0.87
   7  14   0    8.86    0.89
   7 -15   0    7.62    0.98
   6 -15   0   10.35    1.06
   5 -15   0   11.14    0.98
   5 -15   0    6.88    0.79
   4 -15   0   13.25    1.01
   4 -15   0   13.50    1.11
   3 -15   0   39.94    2.04
  -1  15   0    0.55    0.40
   0  15   0   17.68    1.16
   1  15   0    2.93    0.55
   2  15   0    0.28    0.37
   3  15   0    3.21    0.54
   4  15   0    0.64    0.34
   5  15   0    4.50    0.61
   6  15   0    1.29    0.50
   7 -16   0    0.02    0.51
   6 -16   0    5.41    0.82
   5 -16   0   12.86    1.12
   5 -16   0    6.55    0.82
   4 -16   0   10.70    0.97
   4 -16   0   10.54    1.08
  -2  16   0    2.04    0.55
  -1  16   0    1.08    0.41
   0  16   0   -0.28    0.33
   1  16   0    0.18    0.32
   2  16   0    0.28    0.37
   3  16   0    5.99    0.69
   4  16   0    6.24    0.72
   5  16   0    5.11    0.64
   6 -17   0    4.65    0.86
   5 -17   0    4.35    0.68
   5 -17   0    8.84    1.03
  -3  17   0   17.89    1.28
  -2  17   0   14.14    1.12
  -1  17   0   16.08    1.19
   0  17   0    5.42    0.75
   1  17   0    4.42    0.70
   2  17   0    0.59    0.42
   3  17   0    0.68    0.39
   4  17   0   -0.07    0.28
  -4  18   0    6.29    0.92
  -3  18   0    5.19    0.84
  -2  18   0    3.32    0.68
  -1  18   0    2.77    0.64
   0  18   0    2.26    0.61
   1  18   0    0.36    0.45
   2  18   0    0.19    0.38
   3  18   0    0.58    0.41
  -2  19   0   13.63    1.21
  -1  19   0    8.07    0.93
   0  19   0   10.08    1.08
   1  19   0    4.21    0.72
   1  19  -1    0.86    0.50
   0  19  -1    0.78    0.54
  -1  19  -1   -0.26    0.38
  -2  19  -1    0.32    0.52
   3  18  -1   15.15    1.12
   2  18  -1   21.95    1.39
   1  18  -1    9.15    0.94
   0  18  -1    7.17    0.90
  -1  18  -1    3.86    0.67
  -2  18  -1    5.14    0.75
  -3  18  -1    2.84    0.67
  -4  18  -1    0.58    0.59
   4  17  -1    2.05    0.47
   3  17  -1    4.04    0.63
   2  17  -1    0.37    0.39
   1  17  -1    7.19    0.85
   0  17  -1    3.07    0.63
  -1  17  -1   -0.44    0.36
  -2  17  -1    4.12    0.72
  -3  17  -1    1.00    0.55
  -4  17  -1    0.06    0.48
   5 -17   1    0.19    0.46
   5  16  -1   12.01    0.93
   4  16  -1   11.89    0.92
   3  16  -1   12.55    0.96
   2  16  -1   25.87    1.45
   1  16  -1   12.98    1.02
   0  16  -1   15.58    1.09
  -1  16  -1   15.16    1.12
  -2  16  -1    9.38    0.93
  -3  16  -1    5.28    0.75
   4 -16   1    2.85    0.59
   5 -16   1    1.71    0.53
   5 -16   1    1.51    0.60
   6 -16   1    0.54    0.48
   6 -16   1    0.34    0.52
   6  15  -1    3.17    0.60
   6  15  -1    3.07    0.73
   5  15  -1    2.76    0.52
   4  15  -1    1.99    0.44
   3  15  -1    2.12    0.47
   2  15  -1    0.12    0.32
   1  15  -1   22.44    1.29
   0  15  -1   12.67    0.94
  -1  15  -1    0.18    0.37
  -2  15  -1   -0.26    0.38
   3 -15   1   -0.02    0.29
   4 -15   1    0.08    0.43
   4 -15   1    0.07    0.37
   5 -15   1   -0.18    0.36
   5 -15   1    0.11    0.47
   6 -15   1    2.25    0.62
   6 -15   1    3.29    0.63
   7 -15   1    0.48    0.48
   7 -15   1    0.87    0.51
   7  14  -1   -0.42    0.35
   6  14  -1    5.12    0.71
   6  14  -1    5.50    0.65
   5  14  -1    6.16    0.67
   4  14  -1   10.30    0.80
   3  14  -1   20.76    1.18
   2  14  -1   30.75    1.56
   1  14  -1   27.57    1.46
   0  14  -1   14.77    1.03
  -1  14  -1   38.75    1.89
  -2  14  -1   28.29    1.53
   3 -14   1   13.92    1.05
   3 -14   1   11.18    0.92
   4 -14   1    5.61    0.70
   4 -14   1    4.08    0.69
   5 -14   1    2.57    0.51
   5 -14   1    2.99    0.61
   6 -14   1    2.53    0.56
   6 -14   1    1.53    0.51
   7 -14   1    1.16    0.51
   7 -14   1    1.58    0.54
   8 -14   1    4.17    0.76
   8 -14   1    2.77    0.66
   7  13  -1    3.83    0.64
   6  13  -1    3.23    0.54
   6  13  -1    3.92    0.54
   5  13  -1   -0.14    0.28
   4  13  -1    0.97    0.33
   3  13  -1    4.39    0.52
   2  13  -1   -0.35    0.24
   1  13  -1   -0.02    0.29
   0  13  -1   41.24    1.92
  -1  13  -1   21.42    1.22
   2 -13   1    2.82    0.46
   3 -13   1    1.07    0.44
   3 -13   1    0.39    0.31
   4 -13   1    0.89    0.39
   4 -13   1    0.81    0.45
   5 -13   1    0.28    0.37
   5 -13   1    0.01    0.33
   6 -13   1    0.51    0.40
   6 -13   1   -0.02    0.42
   7 -13   1    0.28    0.44
   7 -13   1    0.04    0.40
   8 -13   1    1.07    0.52
   8 -13   1    0.36    0.48
   8  12  -1   -0.20    0.41
   7  12  -1    0.03    0.39
   6  12  -1    3.80    0.59
   6  12  -1    3.56    0.52
   5  12  -1    4.10    0.52
   4  12  -1    0.67    0.31
   3  12  -1   19.22    1.06
   2  12  -1   66.37    2.77
   1  12  -1   77.43    3.19
   0  12  -1   17.21    1.03
  -1  12  -1   28.78    1.45
   2 -12   1  147.87    5.75
   2 -12   1  147.90    5.80
   3 -12   1    6.48    0.71
   3 -12   1    5.73    0.65
   4 -12   1    0.58    0.37
   4 -12   1    1.46    0.42
   5 -12   1    6.16    0.73
   5 -12   1    6.22    0.71
   6 -12   1    1.37    0.45
   6 -12   1    1.64    0.48
   7 -12   1    0.64    0.42
   7 -12   1    1.17    0.48
   8 -12   1    0.20    0.42
   8 -12   1    0.16    0.38
   9 -12   1   -0.12    0.45
   8  11  -1    6.82    0.80
   7  11  -1    3.77    0.58
   6  11  -1    8.98    0.71
   6  11  -1   10.37    0.82
   5  11  -1    0.93    0.32
   4  11  -1    1.17    0.31
   3  11  -1    1.25    0.30
   2  11  -1    0.77    0.28
   1  11  -1   -0.25    0.22
   0  11  -1   25.79    1.29
   2 -11   1    2.90    0.44
   2 -11   1    2.70    0.45
   3 -11   1   28.56    1.41
   3 -11   1   25.91    1.41
   4 -11   1   13.17    0.96
   4 -11   1   13.86    0.92
   5 -11   1    1.40    0.43
   5 -11   1    1.67    0.45
   6 -11   1    2.19    0.50
   6 -11   1    2.06    0.48
   7 -11   1    0.08    0.36
   7 -11   1    0.20    0.36
   8 -11   1    1.30    0.51
   8 -11   1    0.75    0.45
   9 -11   1    4.21    0.74
   9  10  -1   -0.55    0.34
   8  10  -1    0.29    0.34
   7  10  -1    0.21    0.33
   6  10  -1    4.87    0.61
   6  10  -1    4.92    0.56
   5  10  -1    1.99    0.35
   4  10  -1    0.31    0.23
   3  10  -1    6.06    0.49
   2  10  -1   81.66    3.25
   1  10  -1  107.43    4.19
   0  10  -1   41.53    1.83
   1 -10   1   44.63    1.92
   1 -10   1   43.43    1.96
   2 -10   1   36.61    1.75
   2 -10   1   39.89    1.74
   3 -10   1   94.85    3.76
   3 -10   1   92.46    3.78
   4 -10   1   36.28    1.74
   4 -10   1   36.93    1.76
   5 -10   1   27.30    1.44
   5 -10   1   27.46    1.45
   6 -10   1   19.70    1.21
   6 -10   1   22.32    1.29
   7 -10   1    1.70    0.46
   7 -10   1    2.18    0.54
   8 -10   1   -0.09    0.38
   8 -10   1    0.79    0.42
   9 -10   1    0.53    0.45
  10 -10   1   -0.05    0.47
   9   9  -1   14.18    1.10
   8   9  -1   23.18    1.32
   7   9  -1   14.76    0.99
   7   9  -1   17.04    1.02
   6   9  -1   14.42    0.89
   6   9  -1   15.21    0.96
   5   9  -1   17.40    0.99
   5   9  -1   18.10    0.94
   4   9  -1    4.24    0.44
   3   9  -1    2.78    0.35
   2   9  -1    2.33    0.35
   1   9  -1   22.57    1.09
   0   9  -1   49.96    2.10
   1  -9   1    0.08    0.21
   1  -9   1    0.15    0.18
   2  -9   1    9.61    0.66
   2  -9   1    9.21    0.65
   3  -9   1   11.00    0.72
   3  -9   1   10.21    0.74
   4  -9   1   28.39    1.42
   4  -9   1   29.06    1.42
   5  -9   1    1.17    0.36
   5  -9   1    0.74    0.34
   6  -9   1    0.11    0.33
   6  -9   1    0.30    0.33
   7  -9   1    1.24    0.43
   7  -9   1    1.07    0.40
   8  -9   1    1.62    0.44
   8  -9   1    0.66    0.40
   9  -9   1    0.56    0.45
  10  -9   1    1.09    0.52
  10   8  -1    0.24    0.50
   9   8  -1    0.43    0.42
   8   8  -1    2.02    0.49
   7   8  -1    0.49    0.32
   7   8  -1   -0.34    0.29
   6   8  -1    0.15    0.27
   6   8  -1    0.33    0.25
   5   8  -1    1.82    0.32
   5   8  -1    1.50    0.31
   4   8  -1   10.34    0.62
   3   8  -1   38.39    1.62
   2   8  -1   30.46    1.34
   1   8  -1   15.49    0.81
   0   8  -1  141.75    5.38
   1  -8   1   92.91    3.65
   1  -8   1   95.25    3.69
   2  -8   1   71.84    2.95
   2  -8   1   76.02    2.98
   3  -8   1  133.12    5.20
   3  -8   1  137.05    5.19
   4  -8   1   62.77    2.64
   4  -8   1   64.21    2.65
   5  -8   1   18.00    1.04
   5  -8   1   16.27    0.98
   6  -8   1   42.29    1.93
   6  -8   1   42.28    1.98
   7  -8   1    9.73    0.87
   7  -8   1   10.73    0.84
   8  -8   1    0.80    0.40
   8  -8   1    1.13    0.45
   9  -8   1    2.18    0.56
  10  -8   1    0.59    0.50
  10   7  -1    5.41    0.73
   9   7  -1   14.62    1.03
   8   7  -1   19.77    1.18
   7   7  -1   24.07    1.24
   7   7  -1   23.50    1.23
   6   7  -1   45.29    1.96
   6   7  -1   43.88    1.91
   5   7  -1   17.74    0.92
   5   7  -1   15.93    0.86
   4   7  -1   71.79    2.81
   3   7  -1   22.28    1.01
   2   7  -1   21.80    0.99
   1   7  -1    2.33    0.28
   1  -7   1    0.82    0.25
   1  -7   1    0.52    0.18
   2  -7   1   10.74    0.62
   2  -7   1    9.76    0.64
   3  -7   1   16.36    0.87
   3  -7   1   15.73    0.87
   4  -7   1   13.88    0.81
   4  -7   1   13.41    0.82
   5  -7   1   14.40    0.87
   5  -7   1   15.52    0.91
   6  -7   1    0.60    0.31
   6  -7   1    0.82    0.32
   7  -7   1    1.24    0.37
   7  -7   1    0.19    0.36
   8  -7   1    1.24    0.44
   8  -7   1    1.59    0.41
   9  -7   1   -0.16    0.37
  10  -7   1    0.67    0.47
  10   6  -1    3.84    0.68
   9   6  -1    3.89    0.64
   8   6  -1    0.23    0.30
   7   6  -1    7.44    0.67
   7   6  -1    7.28    0.62
   6   6  -1    0.02    0.24
   6   6  -1    0.16    0.23
   5   6  -1   -0.09    0.19
   5   6  -1    0.68    0.22
   4   6  -1    0.90    0.21
   3   6  -1    5.24    0.37
   2   6  -1    3.36    0.30
   1   6  -1  125.27    4.70
   1  -6   1   61.06    2.42
   1  -6   1   62.42    2.45
   2  -6   1  332.86   12.25
   2  -6   1  334.55   12.26
   3  -6   1  175.62    6.68
   3  -6   1  180.65    6.69
   4  -6   1   36.21    1.61
   4  -6   1   37.50    1.65
   5  -6   1   49.41    2.06
   5  -6   1   47.39    2.11
   6  -6   1   23.16    1.31
   6  -6   1   26.67    1.26
   7  -6   1    4.43    0.59
   7  -6   1    5.50    0.56
   8  -6   1   14.75    0.93
   8  -6   1   13.13    0.99
   9  -6   1    3.36    0.63
  10  -6   1    1.41    0.53
  10   5  -1   10.46    1.01
   9   5  -1   34.58    1.75
   8   5  -1   41.16    1.92
   7   5  -1    9.33    0.71
   7   5  -1    9.54    0.65
   6   5  -1   31.20    1.40
   6   5  -1   29.39    1.38
   5   5  -1   24.55    1.14
   5   5  -1   26.10    1.17
   4   5  -1    1.48    0.23
   4   5  -1    1.09    0.22
   3   5  -1  117.42    4.39
   2   5  -1    2.00    0.22
   1   5  -1   15.89    0.72
   0  -5   1   72.24    2.77
   1  -5   1   48.00    1.90
   1  -5   1   47.08    1.88
   2  -5   1   45.13    1.84
   2  -5   1   45.51    1.84
   3  -5   1   43.54    1.79
   3  -5   1   42.22    1.77
   4  -5   1    0.12    0.21
   4  -5   1    0.30    0.20
   5  -5   1    0.72    0.24
   5  -5   1    0.96    0.29
   6  -5   1    4.54    0.48
   6  -5   1    5.13    0.58
   7  -5   1    1.05    0.31
   7  -5   1    1.52    0.39
   8  -5   1    1.82    0.58
   8  -5   1    1.37    0.40
   9  -5   1    0.16    0.41
  10  -5   1    0.95    0.47
  11  -5   1    0.07    0.49
  10   4  -1    0.41    0.43
   9   4  -1   -0.14    0.33
   8   4  -1    5.91    0.64
   7   4  -1    9.23    0.66
   7   4  -1    9.35    0.62
   6   4  -1    1.85    0.31
   6   4  -1    1.97    0.31
   5   4  -1    0.19    0.16
   5   4  -1    0.18    0.18
   4   4  -1    8.79    0.49
   4   4  -1    8.03    0.50
   3   4  -1    2.47    0.24
   2   4  -1    3.18    0.24
   1   4  -1    0.53    0.14
   0  -4   1    3.72    0.28
   1  -4   1  286.36   10.47
   2  -4   1  470.97   16.88
   2  -4   1  456.52   16.87
   3  -4   1  148.84    5.54
   3  -4   1  145.94    5.50
   4  -4   1   74.73    2.79
   4  -4   1   67.09    2.82
   5  -4   1   25.83    1.15
   5  -4   1   24.21    1.22
   6  -4   1   42.19    1.96
   6  -4   1   44.72    1.85
   7  -4   1   50.46    2.35
   7  -4   1   54.64    2.21
   8  -4   1    7.65    0.78
   9  -4   1    5.97    0.77
  10  -4   1    0.92    0.52
  11  -4   1   -0.20    0.46
  11   3  -1    4.28    0.75
  10   3  -1    8.85    0.88
   9   3  -1   31.43    1.64
   8   3  -1   28.18    1.41
   7   3  -1   20.66    1.11
   7   3  -1   21.91    1.02
   6   3  -1   73.61    2.97
   6   3  -1   76.16    2.93
   5   3  -1   65.60    2.58
   5   3  -1   65.31    2.58
   4   3  -1   33.72    1.38
   4   3  -1   32.65    1.37
   3   3  -1    1.17    0.17
   3   3  -1    1.77    0.20
   2   3  -1   13.64    0.59
   1   3  -1   32.58    1.27
   1  -3   1   45.15    1.73
   1  -3   1   43.93    1.72
   2  -3   1    1.75    0.22
   2  -3   1    1.65    0.22
   3  -3   1   40.57    1.57
   3  -3   1   37.21    1.61
   4  -3   1  148.03    5.65
   4  -3   1  150.64    5.57
   5  -3   1    3.52    0.35
   5  -3   1    3.64    0.44
   6  -3   1   -0.31    0.16
   6  -3   1   -0.11    0.23
   7  -3   1   23.58    1.14
   7  -3   1   23.45    1.29
   8  -3   1    5.22    0.68
   9  -3   1    0.25    0.41
  10  -3   1    1.05    0.51
  11  -3   1    0.72    0.54
  11   2  -1    3.67    0.70
  10   2  -1   -0.16    0.33
   9   2  -1    1.47    0.43
   8   2  -1    0.11    0.28
   7   2  -1    1.91    0.29
   7   2  -1    1.79    0.36
   6   2  -1    9.85    0.58
   6   2  -1   10.85    0.64
   5   2  -1    0.18    0.16
   5   2  -1   -0.07    0.15
   4   2  -1   15.39    0.73
   4   2  -1   15.28    0.72
   3   2  -1    0.24    0.12
   3   2  -1    0.66    0.13
   2   2  -1 1000.00   36.51
   1   2  -1   19.44    0.77
   0   2  -1    1.38    0.12
   0  -2   1    1.54    0.13
   1  -2   1  235.40    8.39
   1  -2   1  225.06    8.37
   2  -2   1   13.66    0.60
   2  -2   1   13.10    0.64
   3  -2   1  365.34   13.33
   3  -2   1  367.89   13.40
   4  -2   1   42.98    1.76
   4  -2   1   40.47    1.65
   5  -2   1   95.09    3.62
   5  -2   1   95.62    3.74
   6  -2   1  158.85    6.11
   6  -2   1  160.48    5.97
   7  -2   1   41.43    1.93
   7  -2   1   42.55    1.77
   8  -2   1   23.34    1.35
   9  -2   1    5.95    0.76
  10  -2   1    9.77    1.04
  11  -2   1    1.52    0.62
  11   1  -1    0.58    0.52
  10   1  -1   10.92    0.97
   9   1  -1   17.96    1.11
   8   1  -1   10.01    0.68
   8   1  -1   10.08    0.77
   7   1  -1   61.27    2.48
   7   1  -1   64.40    2.62
   6   1  -1   70.88    2.79
   6   1  -1   68.22    2.69
   5   1  -1  216.81    8.01
   5   1  -1  215.57    7.95
   4   1  -1  194.66    7.16
   4   1  -1  193.60    7.14
   3   1  -1   82.03    3.07
   3   1  -1   81.67    3.07
   2   1  -1  194.11    7.15
   2   1  -1  197.62    7.13
   1   1  -1  170.08    6.21
   1  -1   1    0.19    0.07
   1  -1   1    0.31    0.10
   2  -1   1   32.73    1.27
   2  -1   1   33.72    1.33
   3  -1   1    5.22    0.30
   3  -1   1    6.07    0.37
   4  -1   1    7.55    0.40
   4  -1   1    7.92    0.49
   5  -1   1   24.49    1.13
   5  -1   1   23.61    1.02
   6  -1   1   26.99    1.30
   6  -1   1   26.48    1.15
   7  -1   1   12.54    0.86
   7  -1   1   12.69    0.69
   8  -1   1    0.85    0.36
   9  -1   1    1.51    0.45
  10  -1   1    0.04    0.43
  11  -1   1    0.31    0.48
  11   0  -1    0.15    0.49
  10   0  -1    2.36    0.56
   9   0  -1   -0.12    0.35
   8   0  -1    2.07    0.32
   8   0  -1    2.21    0.42
   7   0  -1    2.93    0.33
   7   0  -1    3.05    0.44
   6   0  -1   12.71    0.75
   6   0  -1   12.70    0.66
   5   0  -1   16.01    0.76
   5   0  -1   16.35    0.82
   4   0  -1   27.81    1.13
   4   0  -1   26.89    1.16
   3   0  -1   57.43    2.30
   3   0  -1   63.37    2.29
   1   0  -1    0.51    0.06
   1   0  -1    0.75    0.09
   0   0  -1   -0.04    0.00
   0   0   1   -0.04    0.01
  -1   0  -1   20.14    0.76
   1   0   1   20.02    0.75
   1   0   1   21.11    0.80
   2   0   1   91.92    3.40
   2   0   1   94.62    3.46
   3   0   1   20.45    0.83
   3   0   1   21.72    0.91
   4   0   1   26.51    1.07
   4   0   1   27.30    1.17
   5   0   1  172.46    6.38
   5   0   1  167.46    6.25
   6   0   1  182.73    6.92
   6   0   1  193.07    7.09
   7   0   1   26.02    1.29
   7   0   1   25.13    1.12
   8   0   1    2.35    0.45
   9   0   1   22.20    1.34
  10   0   1    7.45    0.86
  11   0   1    2.97    0.69
  11  -1  -1   -0.16    0.43
  10  -1  -1    4.45    0.70
   9  -1  -1   11.45    0.94
   8  -1  -1    4.31    0.57
   8  -1  -1    3.78    0.43
   7  -1  -1   33.12    1.45
   7  -1  -1   33.53    1.58
   6  -1  -1  152.31    5.76
   6  -1  -1  150.54    5.66
   5  -1  -1  177.12    6.59
   5  -1  -1  175.27    6.52
   4  -1  -1   28.14    1.19
   4  -1  -1   27.32    1.14
   2  -1  -1  217.26    7.86
   2  -1  -1  213.75    7.85
   1  -1  -1  298.52   10.48
   1  -1  -1  274.80   10.45
   1   1   1  245.67    9.01
   1   1   1  251.91    9.04
   2   1   1    1.37    0.12
   2   1   1    1.38    0.16
   3   1   1   34.98    1.43
   3   1   1   36.61    1.37
   4   1   1   18.41    0.77
   4   1   1   18.90    0.87
   5   1   1   14.63    0.76
   5   1   1   13.64    0.63
   6   1   1   32.88    1.48
   6   1   1   32.56    1.34
   7   1   1    0.17    0.15
   7   1   1    0.08    0.23
   8   1   1    4.70    0.56
   9   1   1    1.65    0.46
  10   1   1    0.39    0.45
  11   1   1    0.58    0.55
  11  -2  -1    0.71    0.52
  10  -2  -1    0.89    0.45
   9  -2  -1    1.51    0.49
   8  -2  -1    0.94    0.28
   8  -2  -1    0.94    0.37
   7  -2  -1    8.28    0.70
   7  -2  -1    8.15    0.57
   6  -2  -1   18.20    0.90
   6  -2  -1   18.93    1.01
   5  -2  -1   21.03    0.98
   5  -2  -1   22.05    1.05
   3  -2  -1  156.18    6.18
   3  -2  -1  177.80    6.17
   2  -2  -1  228.34    8.43
   2  -2  -1  233.56    8.44
   1  -2  -1   26.51    1.04
   1  -2  -1   26.23    1.01
  -1   2   1   25.51    0.99
   0  -2  -1    0.06    0.03
   1   2   1    5.91    0.28
   2   2   1  120.28    4.51
   2   2   1  124.51    4.47
   3   2   1    7.58    0.38
   3   2   1    8.13    0.43
   4   2   1   11.12    0.60
   4   2   1   12.29    0.56
   5   2   1  119.20    4.48
   5   2   1  115.81    4.36
   6   2   1   74.14    2.90
   6   2   1   78.91    3.06
   7   2   1   24.74    1.13
   7   2   1   24.69    1.25
   8   2   1    4.08    0.56
   9   2   1   21.64    1.29
  10   2   1   14.94    1.15
  11   2   1    4.56    0.74
  11  -3  -1    0.13    0.45
  10  -3  -1   -0.20    0.41
   9  -3  -1    0.22    0.41
   8  -3  -1   24.43    1.39
   8  -3  -1   25.43    1.25
   7  -3  -1   13.51    0.79
   7  -3  -1   13.80    0.92
   6  -3  -1   72.89    2.87
   6  -3  -1   71.66    2.97
   4  -3  -1  105.17    3.99
   3  -3  -1   59.12    2.36
   3  -3  -1   61.94    2.36
   2  -3  -1    8.81    0.49
   2  -3  -1    9.65    0.47
   1  -3  -1  250.21    9.19
   1  -3  -1  247.20    9.15
  -1   3   1  257.26    9.12
   0  -3  -1  137.19    5.05
   1   3   1   61.66    2.31
   2   3   1  168.65    6.03
   2   3   1  161.34    6.06
   3   3   1   18.64    0.76
   3   3   1   17.85    0.80
   4   3   1    0.30    0.16
   4   3   1    0.72    0.15
   5   3   1   25.04    1.14
   5   3   1   24.42    1.06
   6   3   1    1.71    0.30
   6   3   1    1.64    0.23
   7   3   1    0.11    0.23
   8   3   1    5.91    0.63
   9   3   1    0.97    0.40
  10   3   1   -0.67    0.33
  11  -4  -1    0.55    0.49
  10  -4  -1    0.45    0.45
   9  -4  -1    7.98    0.84
   8  -4  -1    0.62    0.29
   8  -4  -1    0.35    0.34
   7  -4  -1    8.50    0.74
   7  -4  -1   10.48    0.70
   6  -4  -1    2.85    0.38
   4  -4  -1    2.83    0.33
   4  -4  -1    3.41    0.36
   3  -4  -1   39.64    1.67
   3  -4  -1   41.72    1.66
   2  -4  -1    4.98    0.36
   2  -4  -1    5.52    0.34
   1  -4  -1   29.84    1.25
   1  -4  -1   29.56    1.21
  -1   4   1   30.52    1.17
   0  -4  -1    0.29    0.16
   1   4   1   85.53    3.20
   2   4   1    5.73    0.32
   3   4   1   45.80    1.73
   3   4   1   43.60    1.78
   4   4   1   87.88    3.43
   4   4   1   91.50    3.38
   5   4   1   33.87    1.47
   5   4   1   33.82    1.41
   6   4   1   38.23    1.56
   6   4   1   36.95    1.65
   7   4   1   25.07    1.26
   8   4   1   42.47    1.97
   9   4   1   34.76    1.79
  10   4   1    7.22    0.85
  11  -5  -1    0.12    0.46
  10  -5  -1   -0.36    0.36
   9  -5  -1    5.07    0.70
   8  -5  -1    3.59    0.58
   8  -5  -1    3.99    0.52
   7  -5  -1   38.69    1.76
   5  -5  -1   11.85    0.72
   4  -5  -1  108.22    4.12
   4  -5  -1  105.72    4.12
   3  -5  -1  126.15    4.60
   3  -5  -1  117.06    4.61
   2  -5  -1  359.77   12.95
   2  -5  -1  349.41   12.99
   1  -5  -1  305.52   11.61
   1  -5  -1  331.18   11.67
   0  -5  -1   38.28    1.56
   2   5   1    5.97    0.36
   3   5   1   59.58    2.29
   3   5   1   59.79    2.34
   4   5   1    2.15    0.30
   4   5   1    2.35    0.25
   5   5   1    3.17    0.35
   5   5   1    2.56    0.30
   6   5   1   -0.05    0.19
   6   5   1    0.13    0.21
   7   5   1    0.57    0.28
   8   5   1    2.73    0.48
   9   5   1    2.53    0.51
  10   5   1    2.30    0.57
  11  -6  -1    3.47    0.72
  10  -6  -1    3.95    0.66
   9  -6  -1    0.42    0.36
   8  -6  -1    0.12    0.16
   8  -6  -1    1.86    0.41
   7  -6  -1    2.34    0.42
   6  -6  -1    2.79    0.41
   6  -6  -1    1.07    0.29
   5  -6  -1    1.26    0.29
   5  -6  -1    1.20    0.30
   4  -6  -1   10.54    0.64
   4  -6  -1    9.81    0.66
   3  -6  -1    0.51    0.24
   3  -6  -1    0.38    0.19
   2  -6  -1  116.73    4.37
   2  -6  -1  110.95    4.31
  -2   6   1  114.99    4.16
   1  -6  -1   13.26    0.72
   0  -6  -1   35.47    1.49
   1   6   1    6.59    0.42
   2   6   1    0.66    0.17
   3   6   1   44.00    1.75
   4   6   1   13.33    0.72
   4   6   1   12.59    0.64
   5   6   1   22.62    1.10
   5   6   1   22.96    1.04
   6   6   1    6.26    0.50
   6   6   1    5.96    0.53
   7   6   1   23.85    1.26
   8   6   1   42.72    2.01
   9   6   1    7.54    0.84
  10   6   1   11.11    1.07
  10  -7  -1    0.22    0.26
   9  -7  -1    0.14    0.15
   8  -7  -1   -0.05    0.14
   8  -7  -1    0.73    0.38
   7  -7  -1    0.60    0.29
   7  -7  -1    1.06    0.38
   6  -7  -1   31.38    1.54
   6  -7  -1   32.65    1.55
   5  -7  -1   51.55    2.23
   5  -7  -1   53.35    2.26
   4  -7  -1   38.90    1.74
   4  -7  -1   38.95    1.70
   3  -7  -1   74.80    2.91
   3  -7  -1   71.86    2.95
   2  -7  -1  143.13    5.44
   2  -7  -1  149.69    5.52
  -2   7   1  142.12    5.26
   1  -7  -1  199.79    7.47
   0  -7  -1  171.32    6.42
   1   7   1   98.83    3.78
   2   7   1  113.71    4.31
   3   7   1    7.52    0.47
   4   7   1   18.55    0.93
   4   7   1   18.73    0.88
   5   7   1    2.82    0.34
   5   7   1    2.62    0.36
   6   7   1   -0.01    0.24
   6   7   1    0.04    0.22
   7   7   1    0.29    0.33
   8   7   1    0.50    0.36
   9   7   1    3.35    0.58
  10   7   1    3.48    0.69
  10  -8  -1    0.07    0.20
   9  -8  -1    1.13    0.46
   9  -8  -1   -0.02    0.22
   8  -8  -1    0.62    0.35
   8  -8  -1    1.31    0.45
   7  -8  -1    0.38    0.33
   7  -8  -1    0.40    0.34
   6  -8  -1    5.20    0.61
   6  -8  -1    5.43    0.62
   5  -8  -1   26.96    1.39
   5  -8  -1   28.93    1.38
   4  -8  -1   28.72    1.34
   4  -8  -1   27.92    1.37
   3  -8  -1   21.49    1.12
   3  -8  -1   21.67    1.06
   2  -8  -1   73.67    3.03
  -2   8   1   76.31    2.78
   1  -8  -1    0.77    0.25
   0  -8  -1    3.28    0.38
   1   8   1   79.01    3.10
   2   8   1    0.69    0.21
   3   8   1    0.53    0.20
   4   8   1   25.45    1.14
   5   8   1    1.21    0.25
   5   8   1    1.10    0.31
   6   8   1    4.18    0.45
   6   8   1    3.75    0.49
   7   8   1   26.78    1.38
   8   8   1   14.75    1.01
   9   8   1   10.21    0.98
  10  -9  -1    0.09    0.40
   9  -9  -1    0.39    0.38
   9  -9  -1    1.44    0.52
   8  -9  -1   -0.41    0.33
   8  -9  -1    0.20    0.37
   7  -9  -1    0.24    0.30
   7  -9  -1    0.66    0.40
   6  -9  -1    2.99    0.50
   6  -9  -1    2.45    0.49
   5  -9  -1   69.95    2.88
   5  -9  -1   67.62    2.91
   4  -9  -1   71.45    2.91
   4  -9  -1   70.90    2.97
   3  -9  -1  101.76    3.96
   3  -9  -1  100.21    4.02
   2  -9  -1   77.01    3.12
  -2   9   1   75.85    2.83
   1  -9  -1    1.03    0.28
   0  -9  -1   11.79    0.75
   1   9   1   63.90    2.59
   2   9   1  159.97    6.04
   3   9   1   58.45    2.36
   4   9   1    4.26    0.42
   5   9   1    7.15    0.54
   5   9   1    6.46    0.59
   6   9   1    3.86    0.51
   6   9   1    3.61    0.44
   7   9   1    2.19    0.47
   8   9   1    0.11    0.38
   9   9   1    1.02    0.47
  10 -10  -1    1.07    0.53
   9 -10  -1    4.68    0.70
   9 -10  -1    6.23    0.79
   8 -10  -1   11.34    0.97
   8 -10  -1   12.34    1.00
   7 -10  -1    0.56    0.36
   7 -10  -1    0.58    0.38
   6 -10  -1   12.74    0.96
   6 -10  -1   13.17    0.90
   5 -10  -1   21.59    1.18
   5 -10  -1   20.53    1.23
   4 -10  -1   51.81    2.35
   4 -10  -1   53.46    2.28
   3 -10  -1   37.61    1.65
   3 -10  -1   29.93    1.50
   2 -10  -1   10.60    0.75
  -2  10   1   10.47    0.49
   1 -10  -1    0.06    0.28
   0 -10  -1   17.19    0.96
   1  10   1    8.94    0.64
   2  10   1    8.48    0.61
   3  10   1    0.10    0.20
   4  10   1    1.70    0.30
   5  10   1    0.55    0.25
   5  10   1    0.05    0.28
   6  10   1    7.89    0.64
   6  10   1    8.65    0.75
   7  10   1    9.38    0.83
   8  10   1    9.92    0.93
   9  10   1    8.43    0.90
   9 -11  -1   -0.03    0.42
   9 -11  -1    0.33    0.42
   8 -11  -1    0.14    0.39
   8 -11  -1    0.30    0.41
   7 -11  -1    0.03    0.38
   7 -11  -1    0.07    0.33
   6 -11  -1    1.26    0.39
   6 -11  -1    2.17    0.49
   5 -11  -1    3.92    0.52
   5 -11  -1    3.19    0.56
   4 -11  -1    0.03    0.26
   4 -11  -1   -0.22    0.31
   3 -11  -1   26.03    1.30
   2 -11  -1   81.05    3.35
   1 -11  -1   64.97    2.76
   1  11   1   48.59    2.11
   2  11   1   29.84    1.42
   3  11   1   34.44    1.57
   4  11   1   17.68    0.95
   5  11   1    0.87    0.34
   5  11   1    0.32    0.27
   6  11   1    6.41    0.66
   6  11   1    6.15    0.89
   7  11   1    3.40    0.53
   8  11   1    0.05    0.36
   9 -12  -1    6.45    0.83
   9 -12  -1    5.37    0.81
   8 -12  -1    2.19    0.55
   8 -12  -1    1.62    0.54
   7 -12  -1    0.63    0.43
   7 -12  -1    0.48    0.40
   6 -12  -1    2.06    0.53
   6 -12  -1    2.02    0.46
   5 -12  -1    0.79    0.43
   5 -12  -1    1.70    0.43
   4 -12  -1    3.51    0.59
   4 -12  -1    4.50    0.58
   3 -12  -1    3.55    0.53
   2 -12  -1    0.41    0.36
   1 -12  -1    6.19    0.67
   0  12   1    2.39    0.42
   1  12   1    2.93    0.44
   2  12   1    1.90    0.37
   3  12   1    2.43    0.40
   4  12   1    2.44    0.40
   5  12   1    0.50    0.34
   5  12   1    0.61    0.30
   6  12   1    2.87    0.50
   7  12   1    0.75    0.42
   8  12   1    2.88    0.57
   8 -13  -1    2.21    0.61
   8 -13  -1    3.18    0.64
   7 -13  -1    0.03    0.38
   7 -13  -1    0.44    0.47
   6 -13  -1    0.30    0.43
   6 -13  -1   -0.02    0.33
   5 -13  -1    4.31    0.59
   5 -13  -1    4.61    0.66
   4 -13  -1    6.99    0.73
   4 -13  -1    7.60    0.81
   3 -13  -1   -0.10    0.15
   3 -13  -1    0.37    0.37
   2 -13  -1   39.67    1.94
   1 -13  -1   39.51    1.92
   0  13   1   47.12    2.15
   1  13   1   83.71    3.46
   2  13   1   22.01    1.21
   3  13   1   23.69    1.25
   4  13   1    5.47    0.58
   5  13   1    4.04    0.58
   5  13   1    3.94    0.53
   6  13   1   12.27    0.99
   7  13   1    0.15    0.36
   8 -14  -1    0.90    0.48
   8 -14  -1    0.47    0.51
   7 -14  -1    1.40    0.56
   7 -14  -1    0.78    0.45
   6 -14  -1    1.14    0.45
   6 -14  -1    1.09    0.49
   5 -14  -1    2.30    0.50
   5 -14  -1    2.35    0.54
   4 -14  -1    3.76    0.65
   4 -14  -1    3.13    0.52
   3 -14  -1   -0.04    0.12
   3 -14  -1   -0.09    0.41
   2 -14  -1    8.12    0.88
   0  14   1   11.45    0.90
   1  14   1    3.02    0.53
   2  14   1    0.47    0.35
   3  14   1    2.34    0.47
   4  14   1    1.62    0.39
   5  14   1   -0.44    0.33
   5  14   1    0.71    0.33
   6  14   1    0.20    0.42
   7  14   1    2.96    0.59
   7 -15  -1    0.11    0.42
   7 -15  -1   -0.38    0.43
   6 -15  -1    1.06    0.53
   6 -15  -1    0.43    0.44
   5 -15  -1    0.36    0.37
   5 -15  -1    0.65    0.47
   4 -15  -1    4.74    0.65
   4 -15  -1    7.97    0.88
   3 -15  -1    4.13    0.66
   2 -15  -1    0.99    0.48
  -1  15   1   17.52    1.17
   0  15   1   19.91    1.24
   1  15   1   28.54    1.52
   2  15   1   18.04    1.15
   3  15   1   21.07    1.20
   4  15   1   17.92    1.09
   5  15   1   18.08    1.19
   5  15   1   17.20    1.08
   6  15   1    8.80    0.88
   7 -16  -1    2.97    0.72
   7 -16  -1    3.58    0.70
   6 -16  -1    0.72    0.46
   6 -16  -1    1.08    0.55
   5 -16  -1    1.54    0.49
   5 -16  -1    1.58    0.60
   4 -16  -1    4.26    0.74
   3 -16  -1    0.59    0.47
  -1  16   1    3.40    0.60
   0  16   1    9.83    0.86
   1  16   1    4.30    0.64
   2  16   1    1.19    0.45
   3  16   1    0.75    0.39
   4  16   1   -0.07    0.28
   5  16   1    3.70    0.59
   5  16   1    4.19    0.65
   6 -17  -1    1.75    0.56
   6 -17  -1    2.06    0.66
   5 -17  -1   -0.06    0.46
   5 -17  -1    0.48    0.46
   4 -17  -1   -0.16    0.45
  -2  17   1    2.13    0.59
  -1  17   1    0.82    0.44
   0  17   1   17.56    1.23
   1  17   1   13.94    1.08
   2  17   1   15.96    1.13
   3  17   1   15.17    1.05
   4  17   1    8.51    0.83
  -3  18   1    0.42    0.52
  -2  18   1    0.35    0.49
  -1  18   1   -0.06    0.44
   0  18   1    0.33    0.45
   1  18   1    2.97    0.66
   2  18   1    5.07    0.72
   3  18   1    0.48    0.39
  -2  19   1    0.21    0.49
  -1  19   1    0.64    0.50
   0  19   1    2.24    0.57
   1  19  -2   -0.30    0.42
   0  19  -2    0.25    0.50
  -1  19  -2    1.51    0.57
  -2  19  -2    2.36    0.63
   3  18  -2    0.72    0.46
   2  18  -2   -0.23    0.39
   1  18  -2    0.11    0.39
   0  18  -2    6.38    0.83
  -1  18  -2    9.84    1.02
  -2  18  -2    8.49    0.99
  -3  18  -2   13.26    1.14
  -4  18  -2   16.80    1.31
   4  17  -2    7.36    0.79
   3  17  -2    2.83    0.56
   2  17  -2    2.78    0.57
   1  17  -2    2.37    0.56
   0  17  -2   -0.04    0.35
  -1  17  -2    0.11    0.37
  -2  17  -2    5.11    0.78
  -3  17  -2    5.05    0.80
  -4  17  -2    2.89    0.71
   4 -17   2    2.45    0.59
  -5  17  -2    5.81    0.89
   5 -17   2    5.00    0.78
   5  16  -2    6.37    0.73
   4  16  -2    0.01    0.34
   3  16  -2    1.81    0.48
   2  16  -2    2.53    0.54
   1  16  -2    3.98    0.63
   0  16  -2    6.59    0.77
  -1  16  -2    4.27    0.67
  -2  16  -2    9.69    0.95
  -3  16  -2   14.07    1.09
  -4  16  -2   20.26    1.32
   4 -16   2   16.74    1.26
   5 -16   2   12.20    1.04
   6 -16   2    0.84    0.51
   6  15  -2   15.81    1.11
   6  15  -2   15.50    1.06
   5  15  -2   18.87    1.18
   4  15  -2   14.30    0.99
   3  15  -2   21.59    1.26
   2  15  -2    2.05    0.44
   1  15  -2    2.45    0.52
   0  15  -2   22.71    1.32
  -1  15  -2    0.17    0.37
  -2  15  -2    0.49    0.39
  -3  15  -2    3.28    0.65
   3 -15   2    3.14    0.58
   4 -15   2    3.90    0.67
   5 -15   2    2.45    0.61
   5 -15   2    2.61    0.60
   6 -15   2   13.43    1.11
   6 -15   2   14.56    1.19
   7 -15   2    0.56    0.49
   7 -15   2    0.28    0.49
   7  14  -2    0.05    0.45
   6  14  -2    1.30    0.47
   6  14  -2    1.88    0.47
   5  14  -2    1.21    0.40
   4  14  -2    0.60    0.35
   3  14  -2    0.13    0.31
   2  14  -2    1.50    0.41
   1  14  -2    0.66    0.37
   0  14  -2   10.90    0.87
  -1  14  -2    5.26    0.67
  -2  14  -2    3.71    0.61
   3 -14   2   13.59    1.00
   4 -14   2   17.76    1.16
   4 -14   2   17.75    1.23
   5 -14   2   26.67    1.55
   5 -14   2   25.09    1.50
   6 -14   2    9.91    1.03
   6 -14   2    8.97    0.92
   7 -14   2    9.99    1.04
   7 -14   2    8.50    0.94
   8 -14   2   12.52    1.24
   8 -14   2    8.06    0.95
   7  13  -2   13.27    1.07
   6  13  -2   13.30    1.00
   6  13  -2   13.71    0.95
   5  13  -2   21.78    1.21
   4  13  -2   29.30    1.46
   3  13  -2   47.49    2.12
   2  13  -2    8.39    0.72
   1  13  -2    1.03    0.34
   0  13  -2    9.90    0.80
  -1  13  -2    4.01    0.56
  -2  13  -2    0.21    0.36
   2 -13   2    0.11    0.31
   3 -13   2    1.09    0.45
   3 -13   2    0.91    0.38
   4 -13   2    0.10    0.35
   4 -13   2   -0.19    0.38
   5 -13   2   11.08    0.96
   5 -13   2   11.14    0.92
   6 -13   2    6.58    0.81
   6 -13   2    5.24    0.71
   7 -13   2    2.85    0.60
   7 -13   2    3.48    0.65
   8 -13   2   -0.04    0.47
   8 -13   2   -0.24    0.42
   8  12  -2    0.18    0.42
   7  12  -2    0.45    0.39
   6  12  -2    3.07    0.51
   6  12  -2    4.41    0.61
   5  12  -2    1.60    0.39
   4  12  -2    8.91    0.69
   3  12  -2    0.95    0.33
   2  12  -2    0.30    0.27
   1  12  -2    9.20    0.72
   0  12  -2    0.20    0.25
  -1  12  -2    1.45    0.37
   2 -12   2    3.11    0.46
   3 -12   2   31.18    1.60
   3 -12   2   31.32    1.60
   4 -12   2   57.23    2.53
   4 -12   2   54.78    2.52
   5 -12   2   18.30    1.19
   5 -12   2   21.11    1.27
   6 -12   2   20.24    1.33
   6 -12   2   21.03    1.30
   7 -12   2   14.11    1.10
   7 -12   2   17.58    1.24
   8 -12   2   10.16    1.03
   8 -12   2    9.78    0.95
   9 -12   2    3.07    0.69
   8  11  -2    9.10    0.91
   7  11  -2   24.33    1.36
   7  11  -2   22.25    1.28
   6  11  -2   11.47    0.83
   6  11  -2   12.61    0.87
   5  11  -2   13.76    0.86
   4  11  -2   38.14    1.71
   3  11  -2   77.49    3.12
   2  11  -2   43.33    1.91
   1  11  -2   17.04    0.97
   0  11  -2    1.18    0.31
  -1  11  -2   11.50    0.80
   2 -11   2    4.82    0.53
   2 -11   2    5.54    0.59
   3 -11   2   22.99    1.27
   3 -11   2   23.48    1.27
   4 -11   2    2.61    0.49
   4 -11   2    1.98    0.48
   5 -11   2   28.88    1.49
   5 -11   2   25.50    1.47
   6 -11   2    9.82    0.88
   6 -11   2    8.44    0.83
   7 -11   2    9.40    0.96
   7 -11   2    8.53    0.84
   8 -11   2    5.15    0.69
   8 -11   2    6.26    0.86
   9 -11   2   -0.07    0.46
   9  10  -2    1.40    0.54
   8  10  -2   -0.01    0.36
   7  10  -2    1.22    0.42
   7  10  -2    1.39    0.42
   6  10  -2    0.44    0.32
   6  10  -2    0.38    0.30
   5  10  -2   12.06    0.77
   4  10  -2   12.62    0.75
   3  10  -2    1.76    0.31
   2  10  -2    0.71    0.25
   1  10  -2    1.31    0.31
   0  10  -2    9.77    0.68
  -1  10  -2    8.85    0.65
   1 -10   2    7.66    0.62
   2 -10   2    0.45    0.25
   2 -10   2   -0.13    0.25
   3 -10   2   10.54    0.74
   3 -10   2   10.73    0.76
   4 -10   2   36.77    1.79
   4 -10   2   39.85    1.84
   5 -10   2   15.51    1.04
   5 -10   2   16.73    1.03
   6 -10   2    7.59    0.76
   6 -10   2    8.95    0.87
   7 -10   2   17.78    1.13
   7 -10   2   18.32    1.24
   8 -10   2   12.76    1.11
   8 -10   2   13.46    1.01
   9 -10   2   15.27    1.26
   9   9  -2    1.34    0.51
   8   9  -2    8.36    0.79
   7   9  -2   21.26    1.21
   7   9  -2   21.11    1.20
   6   9  -2   67.18    2.82
   6   9  -2   67.55    2.79
   5   9  -2   26.24    1.26
   4   9  -2   29.80    1.36
   3   9  -2  103.06    3.98
   2   9  -2  114.46    4.40
   1   9  -2   97.40    3.80
   0   9  -2   39.18    1.71
   1  -9   2   33.63    1.52
   2  -9   2    7.99    0.60
   2  -9   2    8.50    0.62
   3  -9   2    0.99    0.31
   3  -9   2    0.85    0.28
   4  -9   2    4.86    0.56
   4  -9   2    3.96    0.50
   5  -9   2   -0.14    0.27
   5  -9   2   -0.03    0.28
   6  -9   2    0.41    0.34
   6  -9   2    1.35    0.43
   7  -9   2   11.88    0.97
   7  -9   2   10.97    0.87
   8  -9   2    1.36    0.45
   8  -9   2    0.77    0.45
   9  -9   2    6.71    0.89
  10  -9   2    1.29    0.55
  10   8  -2    3.85    0.71
   9   8  -2    2.13    0.54
   8   8  -2    0.62    0.37
   7   8  -2    2.28    0.45
   7   8  -2    2.30    0.44
   6   8  -2    0.10    0.29
   6   8  -2    0.03    0.26
   5   8  -2   16.78    0.88
   5   8  -2   15.24    0.88
   4   8  -2    9.02    0.58
   3   8  -2    0.96    0.22
   2   8  -2    7.50    0.51
   1   8  -2   37.77    1.62
   0   8  -2   10.21    0.62
   1  -8   2   27.32    1.26
   1  -8   2   27.48    1.27
   2  -8   2   20.57    1.05
   2  -8   2   21.91    1.08
   3  -8   2    0.25    0.23
   3  -8   2    0.13    0.24
   4  -8   2   15.66    0.90
   4  -8   2   16.75    0.96
   5  -8   2    3.03    0.49
   5  -8   2    2.64    0.43
   6  -8   2   26.61    1.44
   6  -8   2   26.19    1.34
   7  -8   2   12.42    0.87
   7  -8   2   11.50    0.95
   8  -8   2   15.69    1.15
   9  -8   2   14.20    1.16
  10  -8   2    8.20    1.01
  10   7  -2    0.66    0.43
   9   7  -2    1.00    0.44
   8   7  -2    4.12    0.55
   7   7  -2    7.15    0.63
   7   7  -2    7.57    0.70
   6   7  -2   10.96    0.74
   6   7  -2   12.06    0.76
   5   7  -2   52.43    2.23
   5   7  -2   55.00    2.22
   4   7  -2   65.33    2.58
   3   7  -2   96.03    3.67
   2   7  -2  149.97    5.61
   1   7  -2   78.37    3.04
   0   7  -2   80.33    3.13
   1  -7   2   60.20    2.41
   1  -7   2   58.98    2.39
   2  -7   2   38.45    1.68
   2  -7   2   40.12    1.69
   3  -7   2   15.90    0.84
   3  -7   2   15.10    0.85
   4  -7   2    1.84    0.34
   4  -7   2    2.25    0.23
   4  -7   2    2.44    0.37
   5  -7   2   13.96    0.90
   5  -7   2   14.23    0.84
   6  -7   2    1.05    0.33
   6  -7   2    1.49    0.40
   7  -7   2   -0.23    0.27
   7  -7   2    0.22    0.35
   8  -7   2    7.05    0.78
   9  -7   2    4.64    0.71
  10  -7   2    1.05    0.56
  10   6  -2    5.31    0.72
   9   6  -2    0.63    0.40
   8   6  -2    1.23    0.40
   7   6  -2    5.44    0.59
   7   6  -2    4.90    0.53
   6   6  -2    4.35    0.46
   6   6  -2    4.56    0.49
   5   6  -2    9.92    0.61
   5   6  -2    9.58    0.62
   4   6  -2    1.62    0.25
   3   6  -2    9.43    0.53
   2   6  -2   18.32    0.84
   1   6  -2    2.56    0.27
   0   6  -2   60.59    2.37
   0  -6   2   59.82    2.37
   1  -6   2    0.29    0.16
   1  -6   2    0.10    0.16
   2  -6   2    0.22    0.18
   2  -6   2    0.28    0.17
   3  -6   2    5.65    0.29
   3  -6   2    6.22    0.48
   3  -6   2    5.02    0.45
   4  -6   2    0.82    0.25
   4  -6   2    0.56    0.25
   5  -6   2   15.29    0.95
   5  -6   2   16.67    0.88
   6  -6   2    4.80    0.60
   6  -6   2    4.86    0.50
   7  -6   2   45.12    2.13
   7  -6   2   46.17    2.00
   8  -6   2   19.47    1.26
   9  -6   2    9.77    0.97
  10  -6   2    7.53    0.88
  10   5  -2   -0.09    0.39
   9   5  -2    0.52    0.38
   8   5  -2    6.63    0.65
   7   5  -2    5.25    0.52
   7   5  -2    5.18    0.54
   6   5  -2    0.43    0.25
   6   5  -2    0.11    0.21
   5   5  -2   35.48    1.52
   5   5  -2   34.66    1.51
   4   5  -2   98.39    3.69
   4   5  -2   94.95    3.69
   3   5  -2  153.48    5.70
   2   5  -2  113.37    4.24
   1   5  -2   68.42    2.62
   0   5  -2  109.20    4.07
   0  -5   2  107.45    4.07
   1  -5   2  136.32    5.10
   1  -5   2  136.35    5.10
   2  -5   2   42.53    1.59
   2  -5   2   43.45    1.77
   2  -5   2   42.65    1.74
   3  -5   2   98.40    3.79
   3  -5   2   97.64    3.75
   4  -5   2   13.32    0.71
   4  -5   2   12.48    0.75
   5  -5   2    0.07    0.20
   5  -5   2    0.09    0.21
   6  -5   2    3.72    0.50
   6  -5   2    3.91    0.43
   7  -5   2    4.65    0.50
   7  -5   2    5.27    0.65
   8  -5   2   15.09    1.08
   9  -5   2    0.51    0.43
  10  -5   2    0.10    0.44
  11   4  -2    2.79    0.66
  10   4  -2    4.78    0.68
   9   4  -2    3.18    0.55
   8   4  -2   14.46    0.91
   8   4  -2   14.21    0.83
   7   4  -2   18.21    0.99
   7   4  -2   16.88    0.93
   6   4  -2    2.07    0.34
   6   4  -2    2.01    0.33
   5   4  -2    4.83    0.43
   5   4  -2    4.77    0.40
   4   4  -2    0.02    0.15
   4   4  -2    0.09    0.13
   3   4  -2  111.89    4.18
   2   4  -2    0.61    0.14
   1   4  -2   11.69    0.55
   0   4  -2   56.56    2.20
   0  -4   2   57.37    2.21
   1  -4   2    2.04    0.23
   1  -4   2    1.64    0.22
   2  -4   2    4.09    0.32
   2  -4   2    4.53    0.27
   2  -4   2    4.60    0.34
   3  -4   2   58.37    2.38
   3  -4   2   60.48    2.33
   4  -4   2   75.16    2.86
   4  -4   2   71.66    2.93
   5  -4   2    2.32    0.39
   5  -4   2    2.34    0.31
   6  -4   2   20.06    1.13
   6  -4   2   19.72    0.98
   7  -4   2   17.79    0.92
   7  -4   2   15.92    1.05
   8  -4   2   24.62    1.42
   9  -4   2    9.67    0.97
  10  -4   2   17.49    1.32
  11  -4   2    6.44    0.95
  11   3  -2    0.00    0.45
  10   3  -2    0.10    0.40
   9   3  -2    2.63    0.50
   8   3  -2    0.37    0.24
   8   3  -2    0.57    0.32
   7   3  -2    2.09    0.36
   7   3  -2    1.41    0.29
   6   3  -2   35.45    1.54
   6   3  -2   35.78    1.56
   5   3  -2    9.53    0.60
   5   3  -2    9.81    0.55
   4   3  -2  146.15    5.43
   4   3  -2  145.38    5.45
   3   3  -2  281.08   10.50
   3   3  -2  294.36   10.51
   2   3  -2  314.46   11.44
   1   3  -2    0.27    0.10
   0   3  -2  208.36    7.66
   0  -3   2  210.95    7.67
   1  -3   2   97.49    3.60
   1  -3   2   98.01    3.56
   1  -3   2   94.32    3.61
   2  -3   2   95.52    3.56
   2  -3   2   94.89    3.60
   3  -3   2  199.37    7.11
   3  -3   2  186.90    7.18
   4  -3   2   91.00    3.60
   4  -3   2   93.15    3.49
   5  -3   2   22.16    1.13
   5  -3   2   22.47    1.01
   6  -3   2    1.22    0.36
   6  -3   2    1.02    0.24
   7  -3   2    2.16    0.46
   7  -3   2    1.78    0.31
   8  -3   2    0.23    0.37
   9  -3   2    0.64    0.43
  10  -3   2    4.16    0.73
  11  -3   2    0.25    0.50
  11   2  -2    8.18    0.94
  10   2  -2    9.73    0.95
   9   2  -2   14.40    1.00
   8   2  -2   13.11    0.74
   8   2  -2   12.09    0.83
   7   2  -2   19.14    1.01
   7   2  -2   19.39    0.96
   6   2  -2   11.24    0.64
   6   2  -2   11.31    0.66
   5   2  -2    1.89    0.27
   5   2  -2    2.76    0.31
   4   2  -2   15.97    0.71
   4   2  -2   13.76    0.73
   3   2  -2   16.05    0.73
   3   2  -2   16.42    0.71
   2   2  -2  618.78   22.71
   1   2  -2  218.16    7.94
   0   2  -2    0.54    0.09
   0  -2   2    0.71    0.12
   0  -2   2    0.61    0.10
   1  -2   2   80.24    2.92
   1  -2   2   77.49    2.90
   1  -2   2   76.57    2.93
   2  -2   2  191.58    6.85
   2  -2   2  182.98    6.91
   3  -2   2    6.54    0.36
   3  -2   2    6.99    0.47
   4  -2   2    1.37    0.20
   4  -2   2    1.92    0.31
   5  -2   2    0.23    0.24
   5  -2   2    0.24    0.15
   6  -2   2    1.82    0.27
   6  -2   2    1.87    0.39
   7  -2   2   13.29    0.72
   7  -2   2   12.67    0.91
   8  -2   2    0.58    0.35
   9  -2   2    6.67    0.77
  10  -2   2   10.46    1.08
  11  -2   2    7.40    0.99
  11   1  -2    1.21    0.51
  10   1  -2    0.31    0.41
   9   1  -2   -0.32    0.32
   8   1  -2    5.20    0.58
   8   1  -2    5.37    0.47
   7   1  -2    6.44    0.47
   7   1  -2    5.78    0.53
   6   1  -2    3.51    0.35
   6   1  -2    4.08    0.42
   5   1  -2    5.16    0.38
   5   1  -2    4.71    0.38
   4   1  -2   56.32    2.35
   4   1  -2   66.11    2.38
   3   1  -2  376.43   13.70
   2   1  -2   61.61    2.61
   2   1  -2   80.58    2.68
   1   1  -2  290.06   10.66
   0  -1   2  316.56   10.32
   0  -1   2  245.61   10.29
   1  -1   2  502.93   18.49
   2  -1   2  111.44    4.06
   2  -1   2  110.16    4.14
   3  -1   2   51.37    1.94
   3  -1   2   51.39    2.03
   4  -1   2   59.10    2.33
   4  -1   2   57.20    2.21
   5  -1   2  113.80    4.36
   5  -1   2  112.12    4.21
   6  -1   2    6.35    0.58
   6  -1   2    6.51    0.43
   7  -1   2   -0.19    0.28
   7  -1   2   -0.04    0.26
   8  -1   2    5.78    0.65
   9  -1   2   -0.23    0.34
  10  -1   2    1.79    0.53
  11  -1   2    0.32    0.54
  11   0  -2    4.64    0.77
  10   0  -2   14.18    1.10
   9   0  -2   23.59    1.32
   8   0  -2   16.18    0.99
   8   0  -2   15.33    0.85
   7   0  -2   13.34    0.82
   7   0  -2   12.73    0.72
   6   0  -2    1.66    0.25
   6   0  -2    1.70    0.29
   5   0  -2   17.50    0.81
   4   0  -2   16.99    0.78
   3   0  -2  161.63    5.82
   3   0  -2  154.75    5.82
   2   0  -2  145.34    5.33
   2   0  -2  146.87    5.37
   1   0  -2   78.02    2.94
   1   0  -2   81.33    2.90
   0   0  -2   23.11    0.89
   0   0   2   21.76    0.94
   0   0   2   24.95    0.88
   1   0   2  330.58   11.98
   2   0   2   25.47    0.97
   2   0   2   26.50    1.07
   3   0   2    2.78    0.17
   3   0   2    2.61    0.26
   4   0   2    2.79    0.31
   4   0   2    2.67    0.20
   5   0   2    0.19    0.11
   5   0   2   -0.01    0.18
   6   0   2    1.47    0.30
   6   0   2    0.93    0.18
   7   0   2   -0.10    0.28
   8   0   2    6.86    0.70
   9   0   2    5.60    0.73
  10   0   2    8.12    0.94
  11   0   2   12.84    1.25
  11  -1  -2    5.44    0.80
  10  -1  -2   -0.60    0.37
   9  -1  -2    7.48    0.76
   8  -1  -2    0.94    0.37
   8  -1  -2    1.66    0.32
   7  -1  -2    0.00    0.17
   7  -1  -2    0.30    0.26
   6  -1  -2    0.02    0.11
   6  -1  -2    0.51    0.18
   4  -1  -2    0.06    0.13
   4  -1  -2    0.45    0.17
   3  -1  -2   17.46    0.78
   3  -1  -2   18.27    0.78
   2  -1  -2  363.00   13.20
   2  -1  -2  364.29   13.40
   1  -1  -2  103.14    3.80
   1  -1  -2  104.08    3.76
  -1   1   2  102.89    3.82
   0  -1  -2  543.63   20.18
   0   1   2  563.09   20.14
   0   1   2  558.55   20.53
  -1  -1  -2   53.88    1.99
   1   1   2   54.71    2.02
   2   1   2  168.61    5.99
   2   1   2  158.09    5.91
   3   1   2   52.37    1.93
   3   1   2   51.69    2.03
   4   1   2  122.31    4.58
   4   1   2  128.10    4.71
   5   1   2   75.87    2.89
   5   1   2   78.68    3.05
   6   1   2   22.69    1.12
   6   1   2   22.38    0.95
   7   1   2   17.83    1.01
   8   1   2    3.17    0.53
   9   1   2   -0.03    0.33
  10   1   2    1.75    0.57
  11   1   2    0.80    0.52
  11  -2  -2   10.95    1.15
  10  -2  -2   14.63    1.13
   9  -2  -2   24.00    1.41
   8  -2  -2   22.08    1.25
   8  -2  -2   22.44    1.13
   6  -2  -2   38.51    1.64
   5  -2  -2   38.71    1.63
   5  -2  -2   40.27    1.69
   4  -2  -2    0.47    0.16
   4  -2  -2    0.88    0.21
   3  -2  -2   13.21    0.65
   3  -2  -2   14.23    0.65
   2  -2  -2   43.79    1.72
   2  -2  -2   44.67    1.70
   1  -2  -2   34.34    1.28
   1  -2  -2   32.98    1.33
  -1   2   2   34.60    1.33
   0  -2  -2   89.15    3.29
  -1  -2  -2  119.92    4.33
   1   2   2  116.50    4.34
   2   2   2   18.53    0.70
   2   2   2   17.42    0.76
   3   2   2    4.22    0.29
   3   2   2    4.16    0.24
   4   2   2    6.61    0.35
   4   2   2    6.31    0.42
   5   2   2    3.21    0.25
   5   2   2    3.18    0.37
   6   2   2    1.13    0.27
   6   2   2    1.11    0.17
   7   2   2    4.41    0.53
   8   2   2    0.91    0.38
   9   2   2    4.18    0.64
  10   2   2    5.39    0.77
  11  -3  -2    0.22    0.47
  10  -3  -2    2.66    0.58
   9  -3  -2   -0.05    0.31
   8  -3  -2    4.79    0.51
   7  -3  -2   -0.04    0.18
   7  -3  -2    0.54    0.25
   6  -3  -2    4.95    0.44
   6  -3  -2    3.62    0.45
   5  -3  -2    2.35    0.29
   5  -3  -2    1.78    0.32
   4  -3  -2   31.83    1.41
   4  -3  -2   34.27    1.41
   3  -3  -2    3.56    0.31
   3  -3  -2    4.21    0.31
   2  -3  -2   27.13    1.09
   2  -3  -2   26.92    1.13
   1  -3  -2  430.45   15.72
   1  -3  -2  442.72   15.75
  -1   3   2  427.31   15.89
  -1  -3  -2  396.76   14.39
   2   3   2    2.01    0.19
   2   3   2    1.75    0.16
   3   3   2   31.71    1.34
   3   3   2   33.92    1.27
   4   3   2  155.49    5.73
   4   3   2  151.21    5.64
   5   3   2   98.76    3.73
   5   3   2  100.75    3.85
   6   3   2   55.00    2.15
   6   3   2   56.73    2.33
   7   3   2   23.25    1.22
   8   3   2    0.29    0.35
   9   3   2    0.17    0.40
  10   3   2    0.58    0.44
  11  -4  -2    6.68    0.86
  10  -4  -2    0.46    0.25
   8  -4  -2    3.44    0.52
   7  -4  -2   29.89    1.55
   7  -4  -2   33.47    1.51
   6  -4  -2   73.51    2.93
   6  -4  -2   71.73    2.97
   5  -4  -2  105.31    4.15
   5  -4  -2  108.89    4.14
   4  -4  -2    3.80    0.39
   4  -4  -2    4.19    0.37
   3  -4  -2    4.36    0.34
   3  -4  -2    4.33    0.37
   2  -4  -2    3.85    0.34
   2  -4  -2    3.37    0.26
  -2   4   2    3.30    0.24
   1  -4  -2   75.60    2.92
   1  -4  -2   75.92    2.86
  -1   4   2   77.68    2.89
  -1  -4  -2    4.89    0.31
   2   4   2   22.46    0.92
   3   4   2    7.26    0.43
   3   4   2    6.77    0.36
   4   4   2   19.43    0.84
   4   4   2   19.71    0.92
   5   4   2    9.70    0.51
   5   4   2    8.11    0.55
   6   4   2    3.34    0.32
   6   4   2    3.40    0.43
   7   4   2   -0.06    0.26
   8   4   2    2.36    0.47
   9   4   2    1.83    0.48
  10   4   2    4.48    0.68
  11  -5  -2    0.15    0.22
  10  -5  -2    0.51    0.28
   9  -5  -2    3.78    0.62
   9  -5  -2    5.27    0.62
   8  -5  -2    0.28    0.34
   8  -5  -2   -0.27    0.26
   7  -5  -2   19.60    1.07
   7  -5  -2   19.09    1.12
   6  -5  -2    1.51    0.33
   6  -5  -2    1.43    0.33
   5  -5  -2    3.91    0.42
   5  -5  -2    3.21    0.39
   4  -5  -2    1.68    0.29
   4  -5  -2    2.02    0.27
   3  -5  -2    5.78    0.40
   3  -5  -2    5.70    0.44
   2  -5  -2  122.15    4.72
   2  -5  -2  126.56    4.66
  -2   5   2  125.68    4.60
   1  -5  -2  117.04    4.48
   1  -5  -2  116.47    4.41
  -1   5   2  122.61    4.42
   0  -5  -2  118.28    4.44
  -1  -5  -2   31.93    1.32
   2   5   2  164.56    6.07
   3   5   2   67.76    2.64
   3   5   2   68.69    2.59
   4   5   2   63.49    2.57
   4   5   2   67.01    2.50
   5   5   2   64.45    2.52
   5   5   2   60.41    2.42
   6   5   2   23.55    1.19
   6   5   2   25.18    1.12
   7   5   2    5.94    0.59
   8   5   2   10.09    0.83
   9   5   2   12.58    1.00
  10   5   2    0.07    0.47
  11  -6  -2    4.90    0.79
  10  -6  -2    6.42    0.80
   9  -6  -2   12.81    0.92
   9  -6  -2   10.15    0.98
   8  -6  -2   33.41    1.63
   8  -6  -2   32.15    1.67
   7  -6  -2    8.19    0.71
   7  -6  -2    7.42    0.70
   6  -6  -2   39.31    1.76
   6  -6  -2   37.79    1.76
   5  -6  -2   44.90    1.97
   5  -6  -2   45.75    1.94
   4  -6  -2   17.26    0.86
   4  -6  -2   15.77    0.88
   3  -6  -2   78.93    3.17
   3  -6  -2   81.44    3.11
   2  -6  -2   11.97    0.61
   2  -6  -2   11.36    0.67
  -2   6   2   11.42    0.52
   1  -6  -2   15.10    0.71
   1  -6  -2   15.12    0.79
   0  -6  -2    5.63    0.42
  -1  -6  -2   11.21    0.61
   2   6   2    1.46    0.21
   3   6   2   33.17    1.36
   4   6   2   61.77    2.34
   4   6   2   58.38    2.41
   5   6   2   16.61    0.80
   5   6   2   16.04    0.86
   6   6   2    0.25    0.23
   6   6   2    0.12    0.20
   7   6   2    1.61    0.41
   8   6   2    0.42    0.37
   9   6   2   -0.08    0.34
  10   6   2    0.84    0.47
  10  -7  -2    1.77    0.53
   9  -7  -2    4.64    0.68
   9  -7  -2    5.08    0.66
   8  -7  -2   15.64    1.04
   8  -7  -2   15.77    1.07
   7  -7  -2    0.33    0.33
   7  -7  -2    0.74    0.36
   6  -7  -2    5.31    0.59
   6  -7  -2    5.27    0.57
   5  -7  -2    7.28    0.61
   5  -7  -2    6.65    0.56
   4  -7  -2    7.04    0.53
   4  -7  -2    7.35    0.60
   3  -7  -2    0.08    0.16
   3  -7  -2    0.15    0.23
   2  -7  -2    0.24    0.20
   2  -7  -2    0.06    0.15
  -2   7   2    0.31    0.11
   1  -7  -2   -0.23    0.16
   0  -7  -2  158.25    5.95
  -1  -7  -2  116.03    4.41
   2   7   2   40.55    1.67
   3   7   2  173.30    6.43
   4   7   2  105.04    4.13
   4   7   2  109.66    4.06
   5   7   2   42.39    1.73
   5   7   2   41.30    1.81
   6   7   2   18.17    1.01
   6   7   2   18.77    0.93
   7   7   2   19.49    1.12
   8   7   2   21.18    1.23
   9   7   2    6.02    0.75
  10   7   2    1.86    0.54
  10  -8  -2    8.47    0.96
   9  -8  -2    8.71    0.89
   9  -8  -2    9.26    0.90
   8  -8  -2   32.62    1.68
   8  -8  -2   32.96    1.71
   7  -8  -2   76.51    3.30
   7  -8  -2   80.66    3.31
   6  -8  -2    1.00    0.38
   6  -8  -2    1.34    0.36
   5  -8  -2   42.58    1.87
   5  -8  -2   41.27    1.92
   4  -8  -2    8.91    0.61
   4  -8  -2    9.29    0.70
   3  -8  -2   25.39    1.25
   3  -8  -2   24.95    1.17
   2  -8  -2   48.11    2.08
   2  -8  -2   47.46    1.99
  -2   8   2   49.65    1.88
   1  -8  -2   48.75    2.06
   0  -8  -2    8.10    0.56
   2   8   2   11.49    0.65
   3   8   2    0.23    0.16
   4   8   2    3.53    0.41
   4   8   2    2.64    0.31
   5   8   2    0.21    0.20
   5   8   2    0.32    0.28
   6   8   2    0.61    0.40
   6   8   2    1.00    0.31
   7   8   2    0.81    0.39
   8   8   2    2.27    0.48
   9   8   2   -0.27    0.35
  10  -9  -2    0.08    0.42
   9  -9  -2    7.60    0.85
   9  -9  -2    7.31    0.82
   8  -9  -2   11.97    0.96
   8  -9  -2   11.70    0.94
   7  -9  -2    1.84    0.47
   7  -9  -2    1.84    0.45
   6  -9  -2   21.90    1.27
   6  -9  -2   21.03    1.19
   5  -9  -2   16.49    1.02
   5  -9  -2   16.19    0.95
   4  -9  -2    0.75    0.28
   4  -9  -2    0.43    0.28
   3  -9  -2    2.87    0.43
   3  -9  -2    3.79    0.42
   2  -9  -2    8.53    0.65
   2  -9  -2    9.39    0.59
  -2   9   2    9.53    0.49
   1  -9  -2    0.88    0.30
   0  -9  -2    9.94    0.68
   2   9   2   50.21    2.09
   3   9   2   62.29    2.51
   4   9   2   63.42    2.51
   4   9   2   61.79    2.57
   5   9   2   21.50    1.06
   5   9   2   22.54    1.16
   6   9   2   14.47    0.93
   7   9   2   48.12    2.17
   8   9   2   12.99    1.00
   9   9   2    5.72    0.79
  10 -10  -2    4.84    0.78
   9 -10  -2    8.85    0.92
   9 -10  -2    7.15    0.86
   8 -10  -2   20.87    1.32
   8 -10  -2   20.69    1.29
   7 -10  -2   18.56    1.20
   7 -10  -2   17.42    1.12
   6 -10  -2   22.08    1.24
   6 -10  -2   22.95    1.33
   5 -10  -2   17.83    1.02
   5 -10  -2   16.58    1.07
   4 -10  -2  106.95    4.22
   4 -10  -2  107.39    4.32
   3 -10  -2   43.74    1.86
   3 -10  -2   40.51    1.94
   2 -10  -2   35.04    1.65
   2 -10  -2   35.41    1.55
  -2  10   2   33.24    1.40
   1 -10  -2   18.09    1.01
   0 -10  -2    6.18    0.60
   1  10   2    3.65    0.44
   2  10   2   13.56    0.79
   3  10   2    8.71    0.60
   4  10   2    1.73    0.31
   5  10   2    7.07    0.64
   5  10   2    6.78    0.55
   6  10   2    0.07    0.27
   7  10   2    1.44    0.44
   8  10   2    0.68    0.43
   9  10   2   -0.05    0.41
   9 -11  -2    4.21    0.71
   9 -11  -2    5.26    0.76
   8 -11  -2    3.37    0.64
   8 -11  -2    4.10    0.63
   7 -11  -2    0.13    0.40
   7 -11  -2    0.10    0.32
   6 -11  -2    4.53    0.59
   6 -11  -2    4.29    0.67
   5 -11  -2   10.88    0.86
   5 -11  -2   10.38    0.79
   4 -11  -2    4.35    0.59
   4 -11  -2    5.21    0.57
   3 -11  -2   12.97    0.82
   3 -11  -2   12.76    0.93
   2 -11  -2    1.72    0.40
   1 -11  -2    8.08    0.68
   0 -11  -2    2.28    0.45
   1  11   2    5.21    0.54
   2  11   2   13.99    0.85
   3  11   2    9.47    0.68
   4  11   2   31.23    1.44
   5  11   2    3.58    0.45
   5  11   2    2.80    0.46
   6  11   2   32.66    1.64
   7  11   2   26.30    1.44
   8  11   2    8.87    0.87
   9 -12  -2    4.78    0.79
   9 -12  -2    6.13    0.82
   8 -12  -2   11.65    1.04
   8 -12  -2   10.94    1.04
   7 -12  -2   13.86    1.02
   7 -12  -2   12.87    1.08
   6 -12  -2   27.46    1.48
   6 -12  -2   27.20    1.57
   5 -12  -2   17.77    1.17
   5 -12  -2   19.38    1.13
   4 -12  -2    4.73    0.55
   4 -12  -2    4.16    0.61
   3 -12  -2   54.23    2.35
   3 -12  -2   53.98    2.45
   2 -12  -2   28.51    1.49
   1 -12  -2   12.03    0.91
   1  12   2   12.71    0.83
   2  12   2    0.01    0.25
   3  12   2   -0.24    0.24
   4  12   2    1.34    0.33
   5  12   2    0.49    0.30
   5  12   2    0.25    0.35
   6  12   2    4.50    0.64
   7  12   2    0.84    0.41
   8  12   2   -0.06    0.42
   9 -13  -2    0.55    0.45
   9 -13  -2    0.06    0.46
   8 -13  -2    1.09    0.51
   8 -13  -2    1.49    0.52
   7 -13  -2    2.04    0.51
   7 -13  -2    1.29    0.51
   6 -13  -2    1.82    0.46
   6 -13  -2    0.81    0.42
   5 -13  -2   12.96    1.04
   5 -13  -2   11.66    0.89
   4 -13  -2   32.45    1.61
   4 -13  -2   31.85    1.73
   3 -13  -2    0.07    0.28
   3 -13  -2    0.04    0.38
   2 -13  -2    0.92    0.41
   1 -13  -2    0.39    0.36
   0  13   2    0.24    0.30
   1  13   2    4.68    0.57
   2  13   2    5.97    0.62
   3  13   2   22.83    1.22
   4  13   2   16.11    0.98
   5  13   2   11.36    0.87
   5  13   2   13.26    0.84
   6  13   2   16.53    1.09
   7  13   2   14.64    1.11
   8 -14  -2    0.99    0.48
   8 -14  -2    0.64    0.52
   7 -14  -2    4.86    0.69
   7 -14  -2    4.64    0.73
   6 -14  -2   32.57    1.72
   6 -14  -2   31.87    1.83
   5 -14  -2   15.91    1.20
   5 -14  -2   16.17    1.08
   4 -14  -2   15.42    1.16
   4 -14  -2   16.86    1.07
   3 -14  -2    7.63    0.84
   2 -14  -2    5.69    0.75
   1 -14  -2   18.72    1.20
   0  14   2   29.00    1.54
   1  14   2    8.33    0.73
   2  14   2   10.44    0.82
   3  14   2    2.22    0.43
   4  14   2    1.57    0.40
   5  14   2    1.18    0.44
   5  14   2    1.75    0.39
   6  14   2    1.02    0.45
   7 -15  -2    2.80    0.59
   7 -15  -2    2.60    0.61
   6 -15  -2    5.06    0.78
   6 -15  -2    3.31    0.62
   5 -15  -2    5.57    0.69
   5 -15  -2    5.68    0.79
   4 -15  -2   10.06    1.02
   4 -15  -2    9.74    0.85
   3 -15  -2   13.70    1.07
   2 -15  -2   -0.10    0.36
   0  15   2   -0.06    0.35
   1  15   2   -0.26    0.31
   2  15   2    1.96    0.49
   3  15   2    3.19    0.53
   4  15   2    1.53    0.39
   5  15   2   10.64    0.94
   6  15   2   13.97    1.11
   7 -16  -2    1.97    0.63
   7 -16  -2    1.85    0.53
   6 -16  -2    9.15    1.05
   6 -16  -2    8.31    0.89
   5 -16  -2   26.25    1.53
   5 -16  -2   26.97    1.70
   4 -16  -2   24.57    1.54
   3 -16  -2   15.05    1.21
   2 -16  -2    8.55    0.93
  -1  16   2    7.66    0.83
   0  16   2   14.65    1.09
   1  16   2    7.78    0.81
   2  16   2    5.01    0.65
   3  16   2    1.31    0.40
   4  16   2    0.55    0.31
   5  16   2    0.11    0.43
   6 -17  -2    3.91    0.69
   6 -17  -2    3.03    0.71
   5 -17  -2    3.24    0.76
   4 -17  -2    2.03    0.65
   3 -17  -2    0.81    0.51
  -2  17   2   10.91    1.07
  -1  17   2    3.67    0.66
   0  17   2    7.53    0.86
   1  17   2    0.76    0.41
   2  17   2    0.75    0.39
   3  17   2    1.19    0.39
   4  17   2    0.17    0.31
   4 -18  -2   12.68    1.16
  -2  18   2   17.40    1.33
  -1  18   2   16.98    1.28
   0  18   2    4.39    0.72
   1  18   2    6.91    0.81
   2  18   2    5.60    0.72
  -2  19   2    3.85    0.78
  -1  19   2    7.13    0.94
   0  19   2    0.52    0.51
   1  19  -3   14.15    1.16
   0  19  -3    7.39    0.91
  -1  19  -3    8.79    1.04
  -2  19  -3    8.62    1.01
   3  18  -3    0.67    0.45
   2  18  -3    2.40    0.57
   1  18  -3    4.50    0.69
   0  18  -3    0.55    0.42
  -1  18  -3    4.33    0.75
  -2  18  -3    5.13    0.80
  -3  18  -3    2.37    0.68
  -4  18  -3    1.44    0.58
   4  17  -3    3.38    0.62
   3  17  -3   11.22    0.96
   2  17  -3   31.76    1.72
   1  17  -3    4.28    0.64
   0  17  -3   10.12    0.99
  -1  17  -3   17.21    1.20
  -2  17  -3    7.67    0.90
  -3  17  -3    6.35    0.88
  -4  17  -3    2.23    0.65
   4 -17   3    2.23    0.62
  -5  17  -3    3.34    0.74
   5 -17   3    4.15    0.76
   5  16  -3    0.78    0.43
   4  16  -3    0.16    0.36
   3  16  -3    0.50    0.40
   2  16  -3    1.95    0.47
   1  16  -3    2.54    0.51
   0  16  -3    3.66    0.60
  -1  16  -3    0.74    0.46
  -2  16  -3    1.81    0.55
  -3  16  -3    1.04    0.52
   3 -16   3    0.66    0.47
  -4  16  -3    3.65    0.70
   4 -16   3    3.13    0.66
  -5  16  -3    2.16    0.63
   5 -16   3    1.99    0.60
  -6  16  -3    3.47    0.72
   6 -16   3    3.62    0.73
   6  15  -3    4.81    0.65
   5  15  -3    3.09    0.55
   4  15  -3    3.30    0.55
   3  15  -3    4.27    0.62
   2  15  -3   31.30    1.61
   1  15  -3   22.32    1.32
   0  15  -3   32.21    1.66
  -1  15  -3   21.29    1.32
  -2  15  -3    9.92    0.95
  -3  15  -3   14.68    1.08
   3 -15   3   15.45    1.09
  -4  15  -3    9.78    0.96
   4 -15   3    9.92    0.99
   5 -15   3    3.02    0.61
   6 -15   3    2.54    0.64
   7 -15   3    0.86    0.49
   7  14  -3    4.23    0.68
   6  14  -3    1.01    0.41
   5  14  -3    5.48    0.67
   4  14  -3    1.04    0.38
   3  14  -3    7.30    0.67
   2  14  -3    1.34    0.40
   1  14  -3    1.85    0.45
   0  14  -3   20.14    1.19
  -1  14  -3    5.26    0.64
  -2  14  -3    0.66    0.40
   2 -14   3   -0.36    0.32
  -3  14  -3    1.45    0.46
   3 -14   3    1.39    0.41
   4 -14   3    2.69    0.53
   5 -14   3    0.48    0.43
   6 -14   3    0.54    0.47
   6 -14   3   -0.50    0.33
   7 -14   3    0.15    0.46
   7 -14   3    0.37    0.49
   8 -14   3    2.19    0.68
   8  13  -3    1.17    0.53
   7  13  -3   -0.07    0.39
   7  13  -3   -0.02    0.36
   6  13  -3    1.27    0.42
   6  13  -3    1.05    0.46
   5  13  -3    6.38    0.67
   4  13  -3   16.07    0.99
   3  13  -3    7.66    0.68
   2  13  -3    5.79    0.64
   1  13  -3   45.73    2.09
   0  13  -3   35.80    1.73
  -1  13  -3   62.29    2.71
  -2  13  -3   60.78    2.61
   2 -13   3   55.48    2.56
  -3  13  -3   13.61    1.01
   3 -13   3   14.73    1.00
   4 -13   3   10.75    0.92
   5 -13   3    2.07    0.53
   5 -13   3    2.05    0.53
   6 -13   3    8.57    0.88
   6 -13   3    7.14    0.87
   7 -13   3    4.82    0.75
   7 -13   3    5.41    0.74
   8 -13   3    0.91    0.56
   8  12  -3    9.26    0.94
   7  12  -3    2.02    0.49
   7  12  -3    1.84    0.49
   6  12  -3    9.34    0.83
   6  12  -3    8.59    0.76
   5  12  -3   18.45    1.07
   4  12  -3    0.58    0.31
   3  12  -3    0.13    0.25
   2  12  -3    2.83    0.43
   1  12  -3    0.42    0.28
   0  12  -3    8.24    0.67
  -1  12  -3   20.45    1.16
  -2  12  -3    8.46    0.75
   2 -12   3    7.70    0.68
   3 -12   3   30.43    1.59
   4 -12   3    0.92    0.40
   4 -12   3    1.38    0.45
   5 -12   3    0.30    0.34
   5 -12   3   -0.09    0.33
   6 -12   3    1.27    0.49
   6 -12   3    0.59    0.43
   7 -12   3    1.23    0.52
   7 -12   3    0.88    0.45
   8 -12   3    0.22    0.46
   9 -12   3    1.11    0.61
   9  11  -3   -0.05    0.46
   8  11  -3   -0.06    0.38
   7  11  -3   -0.37    0.31
   7  11  -3   -0.05    0.30
   6  11  -3    3.04    0.48
   6  11  -3    2.11    0.44
   5  11  -3    1.34    0.35
   4  11  -3   12.89    0.82
   3  11  -3   40.85    1.80
   2  11  -3   45.40    1.98
   1  11  -3   20.35    1.09
   0  11  -3   18.96    1.05
  -1  11  -3   31.23    1.52
   1 -11   3   33.12    1.56
  -2  11  -3   53.95    2.37
   2 -11   3   55.66    2.39
   3 -11   3   61.58    2.64
   3 -11   3   60.38    2.65
   4 -11   3   59.34    2.53
   4 -11   3   52.37    2.43
   5 -11   3   22.92    1.27
   5 -11   3   20.21    1.27
   6 -11   3   16.48    1.08
   6 -11   3   15.61    1.14
   7 -11   3    7.72    0.79
   7 -11   3    7.63    0.86
   8 -11   3    2.45    0.59
   9 -11   3    0.88    0.54
   9  10  -3   14.51    1.13
   8  10  -3   14.34    1.05
   7  10  -3    8.43    0.76
   7  10  -3    9.70    0.86
   6  10  -3   16.71    1.01
   6  10  -3   17.81    1.06
   5  10  -3    4.93    0.51
   4  10  -3   14.96    0.87
   3  10  -3   36.72    1.63
   2  10  -3    0.15    0.20
   1  10  -3   35.16    1.58
   0  10  -3    2.00    0.37
  -1  10  -3    5.67    0.51
   1 -10   3    4.43    0.48
   2 -10   3   13.89    0.86
   3 -10   3    9.05    0.71
   3 -10   3   11.30    0.79
   4 -10   3    5.02    0.59
   4 -10   3    5.12    0.65
   5 -10   3    9.97    0.82
   5 -10   3   10.73    0.82
   6 -10   3   10.81    0.84
   6 -10   3   11.86    0.96
   7 -10   3    0.17    0.35
   7 -10   3    0.27    0.33
   8 -10   3    0.10    0.44
   9 -10   3    0.45    0.45
   9   9  -3    1.51    0.50
   8   9  -3    0.00    0.36
   7   9  -3   -0.10    0.31
   7   9  -3    0.22    0.34
   6   9  -3    4.21    0.52
   6   9  -3    4.52    0.52
   5   9  -3    7.45    0.59
   4   9  -3   -0.13    0.20
   3   9  -3   32.40    1.44
   2   9  -3   26.67    1.23
   1   9  -3   48.67    2.04
   0   9  -3   26.99    1.27
  -1   9  -3   45.69    1.92
   1  -9   3   43.23    1.91
   2  -9   3   71.47    2.97
   2  -9   3   74.10    2.97
   3  -9   3   59.39    2.51
   3  -9   3   60.21    2.55
   4  -9   3   59.45    2.58
   4  -9   3   60.28    2.54
   5  -9   3   41.35    1.94
   5  -9   3   39.99    1.85
   6  -9   3   14.10    1.02
   6  -9   3   15.96    0.96
   7  -9   3    5.11    0.60
   7  -9   3    5.06    0.69
   8  -9   3    7.56    0.92
   9  -9   3    0.17    0.46
  10  -9   3   -0.03    0.45
  10   8  -3    7.13    0.87
   9   8  -3   12.41    0.99
   8   8  -3   10.20    0.83
   7   8  -3   38.32    1.77
   7   8  -3   37.57    1.80
   6   8  -3   45.12    2.00
   6   8  -3   46.36    2.03
   5   8  -3   23.22    1.14
   4   8  -3   18.41    0.93
   3   8  -3   32.26    1.40
   2   8  -3   17.63    0.88
   1   8  -3    1.41    0.27
   0   8  -3    0.48    0.23
  -1   8  -3   15.20    0.83
   1  -8   3   15.31    0.84
   2  -8   3    9.83    0.64
   2  -8   3    7.92    0.59
   3  -8   3    1.45    0.32
   3  -8   3    1.83    0.34
   4  -8   3    1.55    0.37
   4  -8   3    1.06    0.30
   5  -8   3    5.65    0.62
   5  -8   3    5.23    0.53
   6  -8   3    3.45    0.54
   6  -8   3    4.44    0.52
   7  -8   3    8.43    0.71
   7  -8   3    8.72    0.88
   8  -8   3    0.23    0.40
   9  -8   3    0.25    0.39
  10  -8   3    0.33    0.48
  10   7  -3    1.59    0.51
   9   7  -3    0.59    0.40
   8   7  -3    0.55    0.36
   8   7  -3    1.26    0.39
   7   7  -3    0.01    0.25
   7   7  -3    0.12    0.32
   6   7  -3    1.27    0.33
   6   7  -3    2.07    0.38
   5   7  -3   13.91    0.80
   5   7  -3   13.60    0.78
   4   7  -3    0.29    0.20
   3   7  -3    8.26    0.52
   2   7  -3   27.78    1.21
   1   7  -3   27.85    1.22
   0   7  -3   37.63    1.60
   0  -7   3   38.33    1.61
  -1   7  -3  115.99    4.43
   1  -7   3  116.40    4.45
   2  -7   3   12.35    0.72
   2  -7   3   12.98    0.75
   3  -7   3   50.98    2.15
   3  -7   3   50.13    2.10
   4  -7   3  120.53    4.45
   4  -7   3  117.66    4.59
   4  -7   3  119.33    4.68
   5  -7   3   51.45    2.31
   5  -7   3   53.54    2.22
   6  -7   3    9.42    0.67
   6  -7   3    8.86    0.79
   7  -7   3   27.41    1.36
   7  -7   3   28.00    1.55
   8  -7   3    9.43    0.97
   9  -7   3    2.52    0.64
  10  -7   3    3.08    0.68
  10   6  -3   10.26    0.98
   9   6  -3   15.90    1.05
   8   6  -3   18.86    1.10
   8   6  -3   20.08    1.12
   7   6  -3   31.28    1.44
   7   6  -3   28.46    1.49
   6   6  -3   53.28    2.24
   6   6  -3   53.60    2.27
   5   6  -3   29.73    1.35
   5   6  -3   30.21    1.36
   4   6  -3   27.85    1.23
   3   6  -3   87.64    3.36
   2   6  -3    8.50    0.48
   1   6  -3   13.53    0.68
   0   6  -3    8.24    0.48
   0  -6   3    7.96    0.50
  -1   6  -3   22.16    1.00
   1  -6   3   22.20    1.02
   2  -6   3   -0.14    0.15
   2  -6   3    0.54    0.21
   3  -6   3    0.58    0.21
   3  -6   3    0.40    0.23
   3  -6   3    0.59    0.15
   4  -6   3   15.60    0.84
   4  -6   3   17.09    0.93
   5  -6   3    0.16    0.28
   5  -6   3   -0.16    0.19
   6  -6   3   11.26    0.71
   6  -6   3    9.67    0.78
   7  -6   3    2.50    0.39
   7  -6   3    1.93    0.48
   8  -6   3    1.76    0.46
   9  -6   3    0.27    0.38
  10  -6   3    1.09    0.52
  10   5  -3   -0.04    0.34
   9   5  -3    0.42    0.33
   8   5  -3    0.46    0.34
   8   5  -3    0.88    0.32
   7   5  -3   13.54    0.82
   7   5  -3   14.08    0.87
   6   5  -3   -0.03    0.18
   6   5  -3    0.14    0.26
   5   5  -3   -0.20    0.18
   5   5  -3   -0.20    0.14
   4   5  -3    3.39    0.34
   3   5  -3    0.91    0.19
   2   5  -3    0.01    0.11
   1   5  -3    0.49    0.14
   0   5  -3   72.05    2.79
   0  -5   3   73.49    2.80
   1  -5   3  313.77   11.51
   2  -5   3  141.94    5.35
   2  -5   3  141.60    5.31
   2  -5   3  142.65    5.22
   3  -5   3   59.57    2.38
   3  -5   3   58.92    2.44
   3  -5   3   61.84    2.33
   4  -5   3   49.86    1.96
   4  -5   3   45.89    2.04
   5  -5   3   37.74    1.75
   5  -5   3   38.30    1.62
   6  -5   3   88.36    3.45
   6  -5   3   88.22    3.62
   7  -5   3   27.45    1.47
   7  -5   3   26.15    1.25
   8  -5   3   17.32    1.18
   9  -5   3    7.87    0.89
  10  -5   3    4.71    0.80
  11   4  -3    2.70    0.63
  10   4  -3    9.11    0.90
   9   4  -3   16.83    1.07
   8   4  -3   37.88    1.70
   8   4  -3   38.14    1.78
   7   4  -3   27.61    1.34
   7   4  -3   27.85    1.33
   6   4  -3   46.52    1.89
   6   4  -3   43.17    1.92
   5   4  -3   21.82    1.04
   5   4  -3   21.16    1.00
   4   4  -3    1.65    0.26
   4   4  -3    1.72    0.24
   3   4  -3  172.34    6.38
   2   4  -3  267.36    9.77
   1   4  -3  104.72    3.90
   0   4  -3    1.21    0.17
   0  -4   3    1.07    0.17
   1  -4   3   33.19    1.40
   1  -4   3   35.23    1.35
   2  -4   3   -0.01    0.14
   2  -4   3    0.19    0.13
   2  -4   3    0.14    0.13
   3  -4   3   43.31    1.82
   3  -4   3   43.39    1.74
   4  -4   3    5.97    0.41
   4  -4   3    5.58    0.49
   5  -4   3   13.40    0.86
   5  -4   3   14.84    0.74
   6  -4   3    7.82    0.72
   6  -4   3    7.55    0.53
   7  -4   3    8.13    0.63
   7  -4   3    8.21    0.73
   8  -4   3    5.14    0.71
   9  -4   3    3.27    0.63
  10  -4   3    0.20    0.48
  11   3  -3    0.70    0.48
  10   3  -3   -0.01    0.37
   9   3  -3   -0.11    0.29
   8   3  -3    4.07    0.47
   8   3  -3    4.62    0.54
   7   3  -3   14.27    0.82
   7   3  -3   15.37    0.85
   6   3  -3    6.08    0.48
   6   3  -3    5.63    0.48
   5   3  -3    0.89    0.25
   5   3  -3    0.58    0.18
   4   3  -3    2.81    0.31
   4   3  -3    2.91    0.29
   3   3  -3    7.20    0.43
   2   3  -3    0.20    0.10
   1   3  -3   33.38    1.31
   0   3  -3   18.64    0.78
   0  -3   3   19.25    0.82
   0  -3   3   18.56    0.80
  -1   3  -3  135.05    5.05
   1  -3   3  136.88    5.09
   1  -3   3  139.60    5.07
   2  -3   3  129.77    5.01
   2  -3   3  138.30    4.96
   3  -3   3  216.99    8.06
   3  -3   3  217.18    7.96
   4  -3   3   18.02    0.82
   4  -3   3   18.16    0.94
   5  -3   3   73.84    2.96
   5  -3   3   70.30    2.77
   6  -3   3   55.12    2.36
   6  -3   3   52.70    2.14
   7  -3   3   18.04    1.10
   8  -3   3   16.85    1.11
   9  -3   3   25.20    1.49
  10  -3   3    3.69    0.69
  11   2  -3    1.64    0.51
  10   2  -3    2.51    0.52
   9   2  -3   18.49    1.14
   8   2  -3   25.89    1.33
   8   2  -3   26.52    1.25
   7   2  -3   39.41    1.68
   7   2  -3   38.42    1.73
   6   2  -3   75.76    3.01
   6   2  -3   76.81    3.00
   5   2  -3   88.31    3.29
   5   2  -3   80.83    3.24
   4   2  -3   60.56    2.41
   3   2  -3  232.52    8.55
   2   2  -3  674.38   24.76
   1   2  -3   74.50    2.77
   0  -2   3  184.34    6.76
   0  -2   3  185.81    6.79
  -1   2  -3   96.38    3.52
   1  -2   3   97.36    3.60
   1  -2   3   93.31    3.57
   2  -2   3   85.62    3.10
   2  -2   3   81.50    3.19
   3  -2   3   10.00    0.48
   3  -2   3   10.90    0.61
   4  -2   3   10.04    0.51
   4  -2   3   10.54    0.66
   5  -2   3    0.12    0.24
   5  -2   3   -0.19    0.13
   6  -2   3    1.08    0.21
   6  -2   3    1.17    0.35
   7  -2   3   13.11    0.93
   8  -2   3   10.14    0.85
   9  -2   3    1.68    0.52
  10  -2   3    1.33    0.51
  11   1  -3    0.30    0.43
  10   1  -3   -0.32    0.37
   9   1  -3    0.73    0.36
   8   1  -3    7.15    0.57
   8   1  -3    7.86    0.65
   7   1  -3    9.73    0.66
   7   1  -3    8.80    0.60
   6   1  -3    3.01    0.35
   5   1  -3   16.68    0.82
   4   1  -3    3.39    0.32
   4   1  -3    2.68    0.27
   3   1  -3    4.64    0.35
   3   1  -3    5.10    0.29
   2   1  -3    0.59    0.16
   1   1  -3  110.52    4.10
  -1  -1   3  112.13    4.17
   0   1  -3    5.38    0.25
   0  -1   3    5.38    0.27
  -1   1  -3   23.28    0.89
   1  -1   3   24.00    0.97
   2  -1   3    0.03    0.07
   2  -1   3    0.28    0.14
   3  -1   3   24.63    0.98
   3  -1   3   25.91    1.12
   4  -1   3  164.10    6.10
   4  -1   3  160.99    5.95
   5  -1   3  103.39    3.98
   5  -1   3  100.80    3.80
   6  -1   3   63.87    2.68
   6  -1   3   64.83    2.48
   7  -1   3   22.52    1.24
   8  -1   3   20.92    1.23
   9  -1   3    7.54    0.87
  10  -1   3   13.69    1.17
  11  -1   3    3.71    0.74
  11   0  -3   -0.23    0.43
  10   0  -3    5.65    0.75
   9   0  -3   12.19    0.92
   8   0  -3   15.09    0.92
   8   0  -3   14.53    0.82
   6   0  -3   41.45    1.76
   5   0  -3   53.10    2.09
   5   0  -3   50.70    2.08
   4   0  -3  308.21   11.39
   4   0  -3  314.14   11.37
   3   0  -3  120.38    4.50
   3   0  -3  121.38    4.46
   2   0  -3  211.74    7.63
   2   0  -3  208.71    7.69
   1   0  -3   39.38    1.58
  -1   0   3   43.30    1.64
   0   0  -3  149.10    5.45
   0   0   3  150.88    5.44
   0   0   3  149.02    5.54
  -1   0  -3  200.31    7.19
   1   0   3  197.38    7.25
   2   0   3   43.05    1.68
   3   0   3   14.23    0.55
   3   0   3   13.62    0.67
   4   0   3    9.77    0.44
   4   0   3    9.86    0.58
   5   0   3    5.63    0.32
   5   0   3    5.39    0.48
   6   0   3   -0.17    0.12
   6   0   3   -0.35    0.18
   7   0   3    4.22    0.53
   8   0   3    3.73    0.55
   9   0   3    2.19    0.53
  10   0   3    0.31    0.49
  11  -1  -3    3.20    0.66
  10  -1  -3   -0.19    0.34
   9  -1  -3    0.38    0.28
   9  -1  -3   -0.10    0.15
   8  -1  -3    2.06    0.35
   7  -1  -3   -0.11    0.22
   7  -1  -3    0.39    0.21
   6  -1  -3   37.68    1.61
   6  -1  -3   35.90    1.57
   5  -1  -3   67.01    2.61
   5  -1  -3   65.46    2.61
   4  -1  -3   12.24    0.65
   4  -1  -3   13.51    0.65
   3  -1  -3    0.12    0.10
   3  -1  -3    0.02    0.12
   2  -1  -3    0.15    0.09
   2  -1  -3    0.02    0.11
   1  -1  -3  139.13    4.90
   1  -1  -3  135.92    4.97
  -1   1   3  130.99    5.01
   0  -1  -3    5.51    0.27
   0   1   3    5.59    0.24
   0   1   3    5.79    0.36
  -1  -1  -3   69.66    2.53
   1   1   3   69.04    2.57
   2   1   3    4.69    0.29
   3   1   3   17.37    0.67
   3   1   3   18.32    0.80
   4   1   3   84.47    3.26
   4   1   3   84.49    3.10
   5   1   3   88.02    3.29
   5   1   3   90.32    3.48
   6   1   3   46.83    1.82
   6   1   3   48.26    2.05
   7   1   3   32.76    1.58
   8   1   3   10.13    0.80
   9   1   3   17.12    1.13
  10   1   3    7.82    0.92
  11  -2  -3    0.11    0.23
  10  -2  -3   -0.06    0.16
   9  -2  -3    1.14    0.38
   9  -2  -3    5.38    0.55
   8  -2  -3   17.38    1.07
   8  -2  -3   19.25    1.01
   7  -2  -3   31.27    1.45
   7  -2  -3   32.52    1.53
   6  -2  -3   14.89    0.83
   6  -2  -3   14.30    0.77
   5  -2  -3   36.98    1.59
   5  -2  -3   37.71    1.58
   4  -2  -3   61.66    2.44
   4  -2  -3   62.64    2.43
   3  -2  -3  198.00    7.51
   3  -2  -3  211.55    7.55
   2  -2  -3   70.74    2.61
   2  -2  -3   67.88    2.66
  -2   2   3   71.03    2.70
   1  -2  -3   28.07    1.15
   1  -2  -3   28.99    1.08
  -1   2   3   29.27    1.19
   0  -2  -3  454.49   16.53
  -1  -2  -3  507.76   18.31
   1   2   3  497.37   18.17
   2   2   3    0.41    0.07
   2   2   3    0.35    0.10
   3   2   3    0.91    0.11
   3   2   3    0.62    0.15
   4   2   3    0.20    0.17
   4   2   3    0.25    0.09
   5   2   3    1.20    0.26
   5   2   3    1.25    0.14
   6   2   3   17.06    0.95
   6   2   3   17.23    0.74
   7   2   3   -0.27    0.25
   8   2   3    2.84    0.47
   9   2   3    0.26    0.39
  10   2   3   -0.07    0.45
  11  -3  -3    1.59    0.51
  10  -3  -3    3.42    0.66
   9  -3  -3    0.46    0.30
   9  -3  -3    0.79    0.44
   8  -3  -3    5.82    0.57
   8  -3  -3    6.54    0.69
   7  -3  -3    3.91    0.51
   7  -3  -3    4.13    0.46
   6  -3  -3    1.80    0.31
   6  -3  -3    1.85    0.33
   5  -3  -3   17.25    0.88
   5  -3  -3   18.13    0.91
   4  -3  -3  142.19    5.35
   4  -3  -3  142.62    5.34
   3  -3  -3    0.85    0.16
   3  -3  -3    0.93    0.19
   2  -3  -3    0.77    0.13
   2  -3  -3    0.71    0.16
  -2   3   3    0.37    0.13
   1  -3  -3   11.03    0.55
   1  -3  -3   10.85    0.47
  -1   3   3   10.68    0.56
   0  -3  -3    0.28    0.12
  -1  -3  -3   94.53    3.50
   2   3   3    9.93    0.44
   2   3   3   10.24    0.49
   3   3   3   15.72    0.72
   3   3   3   15.41    0.63
   4   3   3   53.80    2.17
   4   3   3   54.98    2.06
   5   3   3   56.64    2.12
   5   3   3   54.75    2.27
   6   3   3   16.55    0.90
   6   3   3   15.86    0.86
   7   3   3   19.60    1.11
   8   3   3   35.11    1.73
   9   3   3   18.88    1.20
  10   3   3   15.07    1.19
  11  -4  -3    0.15    0.45
  10  -4  -3    0.47    0.42
   9  -4  -3    0.05    0.29
   9  -4  -3   -0.16    0.34
   8  -4  -3    7.44    0.70
   8  -4  -3    7.55    0.76
   7  -4  -3   29.26    1.42
   7  -4  -3   30.65    1.49
   6  -4  -3   67.90    2.79
   6  -4  -3   68.12    2.76
   5  -4  -3   50.27    2.11
   5  -4  -3   51.69    2.12
   4  -4  -3   42.84    1.84
   4  -4  -3   46.15    1.82
   3  -4  -3   78.78    3.04
   3  -4  -3   77.41    2.97
   2  -4  -3  202.12    7.25
   2  -4  -3  193.77    7.32
  -2   4   3  197.54    7.27
   1  -4  -3   44.97    1.76
   1  -4  -3   42.42    1.67
  -1   4   3   43.59    1.76
   0  -4  -3  191.44    7.05
  -1  -4  -3   18.76    0.81
   2   4   3   37.87    1.46
   2   4   3   36.77    1.48
   3   4   3    4.05    0.33
   3   4   3    4.29    0.26
   4   4   3    6.70    0.44
   4   4   3    6.50    0.36
   5   4   3    0.35    0.22
   5   4   3    0.48    0.16
   6   4   3    0.15    0.24
   7   4   3    0.06    0.26
   8   4   3    1.74    0.47
   9   4   3    1.46    0.52
  10   4   3    4.30    0.74
  11  -5  -3    0.70    0.47
  10  -5  -3   11.38    1.02
   9  -5  -3    4.69    0.59
   9  -5  -3    4.11    0.62
   8  -5  -3    1.65    0.42
   8  -5  -3    1.73    0.40
   7  -5  -3    2.42    0.42
   7  -5  -3    2.12    0.41
   6  -5  -3    3.38    0.42
   6  -5  -3    3.78    0.44
   5  -5  -3    0.11    0.21
   5  -5  -3    0.42    0.21
   4  -5  -3   28.11    1.28
   4  -5  -3   27.67    1.22
   3  -5  -3   18.80    0.95
   3  -5  -3   20.44    0.89
   2  -5  -3    9.05    0.54
   2  -5  -3    8.32    0.45
  -2   5   3    8.59    0.45
   1  -5  -3   85.18    3.38
  -1   5   3   90.87    3.37
   0  -5  -3    0.13    0.07
  -1  -5  -3    8.06    0.46
   2   5   3   16.27    0.73
   3   5   3    9.41    0.53
   3   5   3    9.22    0.46
   4   5   3   30.25    1.21
   4   5   3   29.54    1.31
   5   5   3   33.50    1.38
   5   5   3   34.40    1.50
   6   5   3   14.40    0.84
   7   5   3   14.45    0.93
   8   5   3   15.73    1.04
   9   5   3   11.08    1.01
  10   5   3   16.29    1.25
  11  -6  -3    1.48    0.51
  10  -6  -3   -0.02    0.39
   9  -6  -3   -0.10    0.32
   9  -6  -3   -0.20    0.30
   8  -6  -3    6.38    0.69
   8  -6  -3    8.08    0.72
   7  -6  -3   46.68    2.09
   7  -6  -3   46.09    2.09
   6  -6  -3   30.65    1.42
   6  -6  -3   27.96    1.42
   5  -6  -3   38.48    1.67
   5  -6  -3   38.68    1.73
   4  -6  -3   66.71    2.58
   4  -6  -3   62.57    2.64
   3  -6  -3   34.86    1.44
   3  -6  -3   33.89    1.53
   2  -6  -3  313.70   11.58
   2  -6  -3  316.30   11.68
  -2   6   3  319.84   11.56
   1  -6  -3  423.78   15.84
  -1   6   3  441.97   15.81
  -1  -6  -3  138.20    5.18
   2   6   3    6.48    0.41
   3   6   3   41.40    1.71
   3   6   3   42.20    1.67
   4   6   3   41.91    1.67
   4   6   3   41.55    1.76
   5   6   3   13.45    0.68
   5   6   3   13.51    0.78
   6   6   3   -0.03    0.21
   7   6   3    0.79    0.31
   8   6   3    0.69    0.40
   9   6   3    0.58    0.44
  10   6   3   -0.70    0.45
  11  -7  -3    5.16    0.81
  10  -7  -3    4.91    0.72
   9  -7  -3   15.00    1.05
   9  -7  -3   11.82    0.95
   8  -7  -3    0.05    0.31
   8  -7  -3    0.31    0.34
   7  -7  -3    0.70    0.32
   7  -7  -3    1.12    0.38
   6  -7  -3    0.55    0.26
   6  -7  -3    0.68    0.32
   5  -7  -3    3.19    0.39
   5  -7  -3    3.51    0.48
   4  -7  -3    5.76    0.45
   4  -7  -3    5.14    0.52
   3  -7  -3    0.27    0.16
   3  -7  -3    0.52    0.23
   2  -7  -3    2.40    0.36
   2  -7  -3    2.36    0.28
  -2   7   3    2.43    0.26
   1  -7  -3   37.22    1.65
  -1   7   3   38.69    1.59
   0  -7  -3   53.91    2.21
  -1  -7  -3    0.13    0.18
   2   7   3    0.23    0.16
   3   7   3    0.16    0.14
   3   7   3    0.14    0.16
   4   7   3    5.96    0.52
   4   7   3    5.55    0.39
   5   7   3    8.85    0.54
   5   7   3    9.14    0.65
   6   7   3    4.83    0.54
   7   7   3   15.69    1.00
   8   7   3   14.40    1.02
   9   7   3    7.51    0.84
  10  -8  -3    1.17    0.47
   9  -8  -3   -0.04    0.34
   9  -8  -3   -0.01    0.37
   8  -8  -3    0.67    0.41
   8  -8  -3    1.45    0.40
   7  -8  -3    3.74    0.53
   7  -8  -3    2.24    0.50
   6  -8  -3   24.62    1.33
   6  -8  -3   25.86    1.30
   5  -8  -3   36.54    1.73
   5  -8  -3   37.11    1.66
   4  -8  -3   12.11    0.82
   4  -8  -3   12.35    0.72
   3  -8  -3   46.27    1.94
   3  -8  -3   47.42    2.06
   2  -8  -3  153.95    5.69
   2  -8  -3  147.88    5.78
  -2   8   3  151.78    5.64
   1  -8  -3   69.99    2.84
   0  -8  -3   33.87    1.52
  -1  -8  -3  141.02    5.36
   2   8   3   91.85    3.55
   3   8   3   25.09    1.13
   4   8   3   82.77    3.25
   4   8   3   81.27    3.16
   5   8   3   14.89    0.78
   5   8   3   15.78    0.88
   6   8   3    0.78    0.29
   7   8   3    0.89    0.35
   8   8   3   -0.09    0.34
   9   8   3    1.38    0.48
  10  -9  -3    4.71    0.75
   9  -9  -3   11.07    0.96
   9  -9  -3   10.02    0.91
   8  -9  -3    8.31    0.87
   8  -9  -3    8.73    0.85
   7  -9  -3    9.30    0.85
   7  -9  -3   10.27    0.81
   6  -9  -3   55.09    2.39
   6  -9  -3   55.13    2.48
   5  -9  -3    2.22    0.37
   5  -9  -3    3.04    0.52
   4  -9  -3   22.73    1.27
   4  -9  -3   24.73    1.18
   3  -9  -3   26.28    1.35
   3  -9  -3   27.41    1.25
  -3   9   3   26.73    1.09
   2  -9  -3   23.61    1.10
   2  -9  -3   23.27    1.21
  -2   9   3   22.47    1.03
   1  -9  -3    1.01    0.29
   0  -9  -3    0.31    0.25
  -1  -9  -3   23.20    1.14
   2   9   3    1.64    0.29
   3   9   3    7.95    0.54
   4   9   3    0.68    0.28
   4   9   3   -0.10    0.18
   5   9   3    0.19    0.25
   5   9   3    0.01    0.20
   6   9   3    5.54    0.59
   7   9   3   10.27    0.85
   8   9   3    5.68    0.73
   9   9   3    4.44    0.72
  10 -10  -3    1.33    0.53
   9 -10  -3    0.25    0.45
   9 -10  -3    0.28    0.40
   8 -10  -3    0.46    0.41
   8 -10  -3   -0.11    0.33
   7 -10  -3    0.81    0.35
   7 -10  -3    1.71    0.49
   6 -10  -3    0.07    0.36
   6 -10  -3   -0.15    0.25
   5 -10  -3    1.82    0.38
   5 -10  -3    1.57    0.45
   4 -10  -3    1.34    0.42
   4 -10  -3    1.60    0.33
   3 -10  -3   69.99    2.98
   3 -10  -3   70.57    2.85
   2 -10  -3   52.44    2.22
  -2  10   3   48.17    2.01
   1 -10  -3   22.20    1.19
   0 -10  -3   34.84    1.63
   2  10   3   48.78    2.07
   3  10   3   49.64    2.09
   4  10   3   21.50    1.08
   4  10   3   23.01    1.16
   5  10   3    5.08    0.55
   5  10   3    5.89    0.50
   6  10   3    9.63    0.75
   7  10   3    1.98    0.48
   8  10   3   -0.38    0.37
   9 -11  -3    7.97    0.88
   9 -11  -3    9.67    1.00
   8 -11  -3    7.25    0.78
   8 -11  -3    6.04    0.77
   7 -11  -3    3.36    0.61
   7 -11  -3    3.81    0.57
   6 -11  -3    7.09    0.79
   6 -11  -3   10.77    0.80
   5 -11  -3   12.54    0.96
   5 -11  -3   10.83    0.80
   4 -11  -3   10.11    0.81
   4 -11  -3    9.77    0.72
   3 -11  -3    0.04    0.34
   3 -11  -3    0.31    0.25
   2 -11  -3    1.02    0.36
  -2  11   3    1.11    0.34
   1 -11  -3    0.26    0.28
   0 -11  -3    2.79    0.43
   1  11   3    5.30    0.55
   2  11   3    3.42    0.45
   3  11   3   13.17    0.80
   4  11   3    2.14    0.37
   4  11   3    2.75    0.44
   5  11   3    1.90    0.37
   5  11   3    2.79    0.47
   6  11   3    0.75    0.37
   7  11   3    1.68    0.48
   8  11   3    2.76    0.56
   9 -12  -3    2.42    0.62
   9 -12  -3    3.54    0.63
   8 -12  -3    1.20    0.44
   8 -12  -3    0.54    0.48
   7 -12  -3    1.44    0.52
   7 -12  -3    1.23    0.41
   6 -12  -3    0.00    0.27
   6 -12  -3    0.13    0.35
   5 -12  -3    0.25    0.40
   5 -12  -3    0.14    0.29
   4 -12  -3    5.12    0.69
   4 -12  -3    4.53    0.54
   3 -12  -3   38.57    1.94
   3 -12  -3   40.28    1.81
   2 -12  -3   21.82    1.29
   1 -12  -3   48.34    2.23
  -1  12   3   49.54    2.10
   0 -12  -3   27.94    1.47
   1  12   3   58.09    2.50
   2  12   3   49.24    2.16
   3  12   3   30.69    1.48
   4  12   3    3.60    0.48
   5  12   3    3.62    0.55
   5  12   3    3.37    0.45
   6  12   3    8.17    0.79
   7  12   3    7.60    0.83
   9 -13  -3    4.40    0.71
   9 -13  -3    4.18    0.75
   8 -13  -3    6.39    0.78
   8 -13  -3    5.50    0.81
   7 -13  -3    9.11    0.99
   7 -13  -3    8.02    0.81
   6 -13  -3    2.70    0.59
   6 -13  -3    2.76    0.50
   5 -13  -3    1.11    0.39
   5 -13  -3    0.24    0.40
   4 -13  -3    1.81    0.47
   4 -13  -3    0.81    0.34
   3 -13  -3    1.04    0.43
   2 -13  -3    2.79    0.54
   1 -13  -3    1.01    0.44
   1  13   3    2.79    0.48
   2  13   3    6.19    0.64
   3  13   3   10.40    0.78
   4  13   3    0.89    0.32
   5  13   3   -0.45    0.27
   6  13   3    0.49    0.42
   7  13   3   -0.17    0.41
   8 -14  -3    0.50    0.51
   8 -14  -3    0.80    0.45
   7 -14  -3    0.50    0.40
   7 -14  -3    0.62    0.44
   6 -14  -3   -0.63    0.38
   6 -14  -3    0.08    0.36
   5 -14  -3   -0.13    0.40
   5 -14  -3    0.55    0.35
   4 -14  -3    0.82    0.45
   4 -14  -3    0.25    0.33
   3 -14  -3   -0.20    0.38
   2 -14  -3   24.95    1.49
   1 -14  -3    7.62    0.82
   0  14   3   32.53    1.67
   1  14   3   47.81    2.21
   2  14   3   26.03    1.40
   3  14   3   21.39    1.21
   4  14   3   24.92    1.31
   5  14   3   15.25    1.03
   6  14   3   12.07    1.01
   7 -15  -3   14.40    1.12
   7 -15  -3   13.24    1.21
   6 -15  -3   11.90    1.16
   6 -15  -3   10.52    0.92
   5 -15  -3    1.59    0.47
   5 -15  -3    0.81    0.45
   4 -15  -3    0.41    0.46
   3 -15  -3    3.89    0.70
   2 -15  -3   -0.56    0.40
   1 -15  -3    7.96    0.90
   0  15   3    3.90    0.59
   1  15   3    2.55    0.51
   2  15   3    7.48    0.77
   3  15   3   -0.16    0.29
   4  15   3    0.11    0.27
   5  15   3    4.42    0.67
   6  15   3    2.41    0.60
   7 -16  -3    4.45    0.71
   7 -16  -3    4.18    0.80
   6 -16  -3    1.65    0.49
   6 -16  -3    0.97    0.58
   5 -16  -3    0.26    0.38
   5 -16  -3    0.51    0.49
   4 -16  -3    1.38    0.56
   3 -16  -3    0.07    0.44
   2 -16  -3   -0.04    0.40
   0  16   3   12.54    1.01
   1  16   3   24.10    1.39
   2  16   3    9.71    0.85
   3  16   3   10.26    0.84
   4  16   3    7.33    0.73
   5  16   3   14.37    1.06
   6 -17  -3   11.91    1.05
   6 -17  -3   12.33    1.27
   5 -17  -3   19.59    1.43
   4 -17  -3    4.23    0.78
   3 -17  -3    1.19    0.59
  -1  17   3    0.07    0.43
   0  17   3    0.47    0.44
   1  17   3   -0.13    0.34
   2  17   3    3.52    0.57
   3  17   3    1.52    0.43
   4  17   3    1.97    0.45
   4 -18  -3    1.17    0.57
  -2  18   3    2.15    0.61
  -1  18   3    0.12    0.43
   0  18   3    6.57    0.83
   1  18   3    5.63    0.78
   2  18   3    7.11    0.79
  -2  19   3    5.00    0.85
  -1  19   3    0.75    0.50
   0  19   3    0.17    0.44
   0  19  -4    3.19    0.69
  -1  19  -4    5.65    0.81
   3  18  -4    3.30    0.64
   2  18  -4    1.63    0.50
   1  18  -4    2.78    0.61
   0  18  -4    0.82    0.49
  -1  18  -4    1.31    0.54
  -2  18  -4    1.29    0.52
  -3  18  -4    2.25    0.65
  -4  18  -4    0.24    0.55
   4 -18   4    0.50    0.49
   4  17  -4   -0.10    0.36
   3  17  -4    1.41    0.50
   2  17  -4    0.73    0.45
   1  17  -4    2.41    0.57
   0  17  -4    0.83    0.43
  -1  17  -4    4.48    0.72
  -2  17  -4    2.65    0.61
  -3  17  -4    4.64    0.77
  -4  17  -4   13.10    1.12
   4 -17   4   13.91    1.20
  -5  17  -4    5.22    0.84
   5 -17   4    3.92    0.77
   5  16  -4   15.38    1.11
   4  16  -4   28.44    1.56
   3  16  -4    7.83    0.81
   2  16  -4    2.76    0.51
   1  16  -4   10.62    0.91
   0  16  -4    2.51    0.52
  -1  16  -4    3.23    0.62
  -2  16  -4    1.87    0.55
  -3  16  -4    4.66    0.75
   3 -16   4    4.79    0.75
  -4  16  -4    2.44    0.60
   4 -16   4    2.88    0.66
  -5  16  -4    3.37    0.68
   5 -16   4    4.66    0.79
  -6  16  -4    1.16    0.54
   6 -16   4    2.35    0.64
   6  15  -4    0.59    0.43
   5  15  -4    1.21    0.42
   4  15  -4    0.93    0.36
   3  15  -4   -0.14    0.32
   2  15  -4    1.80    0.43
   1  15  -4    0.64    0.35
   0  15  -4    8.49    0.78
  -2  15  -4    2.53    0.53
  -3  15  -4    5.58    0.72
   3 -15   4    3.48    0.60
  -4  15  -4   13.69    1.11
   4 -15   4   14.08    1.14
  -5  15  -4   10.19    1.03
   5 -15   4   12.49    1.11
  -6  15  -4    2.73    0.63
   6 -15   4    2.63    0.65
  -7  15  -4   18.83    1.36
   7 -15   4   19.58    1.42
   7  14  -4    6.73    0.80
   7  14  -4    7.90    0.87
   6  14  -4   12.01    0.95
   5  14  -4   22.23    1.29
   4  14  -4   13.53    0.94
   3  14  -4   23.36    1.29
   2  14  -4   23.03    1.26
   1  14  -4    8.58    0.76
   0  14  -4   21.21    1.26
  -1  14  -4    0.65    0.37
  -2  14  -4    1.07    0.45
   2 -14   4    0.44    0.35
  -3  14  -4    0.15    0.34
   3 -14   4    0.14    0.33
  -4  14  -4    0.02    0.40
   4 -14   4   -0.17    0.37
  -5  14  -4    0.31    0.19
   5 -14   4    1.18    0.51
   6 -14   4    5.85    0.83
   7 -14   4    0.62    0.54
   8  13  -4   -0.50    0.39
   7  13  -4    0.40    0.39
   7  13  -4   -0.41    0.36
   6  13  -4    0.29    0.36
   5  13  -4    0.44    0.35
   4  13  -4    1.84    0.42
   3  13  -4   12.70    0.87
   2  13  -4    1.26    0.37
   1  13  -4    0.43    0.33
   0  13  -4    0.25    0.32
  -1  13  -4    0.29    0.34
  -2  13  -4    6.66    0.69
   2 -13   4    7.20    0.76
  -3  13  -4   44.01    2.08
   3 -13   4   44.31    2.14
  -4  13  -4   24.52    1.43
   4 -13   4   25.87    1.49
   5 -13   4    7.96    0.85
   6 -13   4   23.75    1.53
   7 -13   4   10.20    0.99
   7 -13   4   13.15    1.17
   8 -13   4    5.37    0.84
   8  12  -4    6.24    0.75
   7  12  -4    9.72    0.90
   7  12  -4    7.06    0.80
   6  12  -4   23.53    1.32
   5  12  -4   51.60    2.27
   4  12  -4   23.38    1.24
   3  12  -4   20.21    1.11
   2  12  -4   20.49    1.12
   1  12  -4   18.87    1.06
   0  12  -4   57.73    2.49
  -1  12  -4   10.61    0.77
   1 -12   4   10.35    0.82
  -2  12  -4    4.01    0.56
   2 -12   4    2.62    0.50
  -3  12  -4    2.11    0.47
   3 -12   4    1.68    0.44
   4 -12   4    0.61    0.40
   5 -12   4    0.55    0.43
   5 -12   4    1.34    0.46
   6 -12   4    2.70    0.61
   6 -12   4    2.39    0.52
   7 -12   4    3.07    0.63
   7 -12   4    4.62    0.66
   8 -12   4    0.18    0.44
   9  11  -4    2.07    0.58
   8  11  -4    0.60    0.40
   7  11  -4    2.92    0.55
   7  11  -4    1.98    0.49
   6  11  -4    0.01    0.32
   6  11  -4    0.51    0.35
   5  11  -4    2.61    0.44
   4  11  -4   21.82    1.15
   3  11  -4    9.71    0.67
   2  11  -4    4.66    0.49
   1  11  -4    3.92    0.49
   0  11  -4   -0.01    0.27
  -1  11  -4    8.07    0.65
   1 -11   4    9.01    0.71
  -2  11  -4    4.21    0.53
   2 -11   4    5.47    0.63
  -3  11  -4    0.55    0.34
   3 -11   4    0.93    0.37
   4 -11   4    0.18    0.35
   4 -11   4    0.54    0.34
   5 -11   4   19.05    1.19
   5 -11   4   17.35    1.11
   6 -11   4   12.72    0.93
   6 -11   4   12.98    1.01
   7 -11   4    9.94    1.05
   7 -11   4    7.73    0.77
   8 -11   4   11.71    1.19
   9 -11   4    7.48    0.99
   9  10  -4    4.52    0.67
   8  10  -4    3.76    0.61
   8  10  -4    2.76    0.98
   7  10  -4    3.52    0.58
   7  10  -4    4.36    0.57
   6  10  -4   24.66    1.33
   6  10  -4   26.51    1.36
   5  10  -4   41.97    1.88
   4  10  -4   59.39    2.47
   3  10  -4   55.26    2.31
   2  10  -4   47.75    2.03
   1  10  -4  101.63    3.98
   0  10  -4   28.56    1.36
  -1  10  -4   49.61    2.12
   1 -10   4   48.59    2.13
  -2  10  -4   19.27    1.04
   2 -10   4   19.52    1.10
   3 -10   4    7.28    0.70
   4 -10   4    0.74    0.34
   4 -10   4    1.21    0.38
   5 -10   4    3.00    0.52
   5 -10   4    2.68    0.47
   6 -10   4    1.74    0.43
   6 -10   4    1.37    0.44
   7 -10   4   -0.01    0.39
   7 -10   4    0.72    0.36
   8 -10   4    4.10    0.71
   9 -10   4    0.31    0.45
   9   9  -4    6.18    0.72
   8   9  -4    1.09    0.49
   8   9  -4    1.10    0.44
   7   9  -4    1.04    0.40
   7   9  -4    1.06    0.40
   6   9  -4    0.20    0.28
   6   9  -4    0.30    0.27
   5   9  -4    4.19    0.49
   4   9  -4    1.15    0.29
   3   9  -4    0.16    0.19
   2   9  -4   11.79    0.71
   1   9  -4   11.05    0.68
   0   9  -4   58.91    2.42
  -1   9  -4    0.35    0.23
   1  -9   4    0.52    0.26
  -2   9  -4   11.53    0.71
   2  -9   4   10.91    0.76
   3  -9   4   -0.06    0.25
   3  -9   4   -0.45    0.23
   4  -9   4    0.40    0.31
   4  -9   4    0.18    0.27
   5  -9   4    2.83    0.53
   5  -9   4    2.61    0.44
   6  -9   4    7.08    0.80
   6  -9   4    6.15    0.63
   7  -9   4   12.74    0.89
   7  -9   4   13.70    1.06
   8  -9   4   17.01    1.27
   9  -9   4    4.95    0.79
  10   8  -4    0.66    0.48
   9   8  -4    1.03    0.45
   8   8  -4    9.53    0.90
   8   8  -4    8.54    0.78
   7   8  -4    7.94    0.71
   7   8  -4    8.09    0.76
   6   8  -4    6.91    0.62
   6   8  -4    6.16    0.60
   5   8  -4   36.81    1.65
   4   8  -4   39.56    1.70
   3   8  -4   23.33    1.10
   2   8  -4  102.08    3.92
   1   8  -4  100.77    3.88
   0   8  -4  253.95    9.59
   0  -8   4  264.23    9.63
  -1   8  -4   47.04    1.98
   1  -8   4   48.18    2.02
  -2   8  -4   27.89    1.29
   2  -8   4   27.95    1.33
   3  -8   4   54.20    2.29
   3  -8   4   52.09    2.22
   4  -8   4    3.45    0.44
   4  -8   4    3.41    0.49
   5  -8   4    0.21    0.27
   5  -8   4    0.88    0.36
   6  -8   4    1.89    0.44
   6  -8   4    1.53    0.36
   7  -8   4    3.30    0.47
   7  -8   4    3.16    0.61
   8  -8   4    0.29    0.38
   9  -8   4    1.80    0.60
  10  -8   4    1.79    0.65
  10   7  -4    5.82    0.77
   9   7  -4    1.15    0.44
   8   7  -4   15.37    1.07
   8   7  -4   18.56    1.06
   7   7  -4   12.62    0.93
   7   7  -4   15.52    0.92
   6   7  -4    9.28    0.71
   6   7  -4   10.25    0.72
   5   7  -4    9.20    0.64
   4   7  -4    1.06    0.25
   3   7  -4    5.66    0.44
   2   7  -4    1.44    0.23
   1   7  -4   19.49    0.92
   0   7  -4   34.48    1.47
   0  -7   4   34.25    1.49
  -1   7  -4   20.54    1.00
   1  -7   4   21.63    1.04
  -2   7  -4    0.92    0.19
   2  -7   4    2.23    0.33
   3  -7   4   18.15    0.92
   3  -7   4   18.10    0.76
   3  -7   4   17.13    0.98
   4  -7   4   31.35    1.52
   4  -7   4   31.55    1.41
   4  -7   4   30.60    1.32
   5  -7   4    1.94    0.41
   5  -7   4    1.80    0.33
   6  -7   4   10.69    0.71
   6  -7   4   10.49    0.82
   7  -7   4   20.42    1.27
   7  -7   4   20.78    1.10
   8  -7   4    6.13    0.77
   9  -7   4    9.21    0.99
  10  -7   4    7.08    0.97
  10   6  -4    1.21    0.51
   9   6  -4    1.00    0.38
   8   6  -4    1.52    0.41
   8   6  -4    2.53    0.45
   7   6  -4    6.13    0.60
   7   6  -4    4.52    0.59
   6   6  -4    2.69    0.42
   6   6  -4    2.17    0.37
   5   6  -4  108.63    4.19
   5   6  -4  107.68    4.16
   4   6  -4   76.58    3.01
   3   6  -4   65.63    2.57
   2   6  -4   69.67    2.70
   1   6  -4   30.80    1.30
   0   6  -4  165.89    6.15
   0  -6   4  164.06    6.17
  -1   6  -4  183.58    6.78
   1  -6   4  181.54    6.82
   2  -6   4   57.54    2.23
   2  -6   4   59.56    2.39
   3  -6   4   53.29    2.16
   3  -6   4   55.85    2.32
   3  -6   4   56.71    2.23
   4  -6   4   13.17    0.73
   4  -6   4   13.73    0.71
   4  -6   4   12.42    0.82
   5  -6   4    7.40    0.53
   5  -6   4    7.90    0.74
   6  -6   4    0.10    0.32
   6  -6   4    0.18    0.23
   7  -6   4    0.53    0.38
   8  -6   4    0.65    0.40
   9  -6   4    0.56    0.44
  10  -6   4    4.61    0.81
  10   5  -4    5.39    0.72
   9   5  -4    2.95    0.51
   8   5  -4   16.05    0.97
   8   5  -4   14.30    0.94
   7   5  -4   21.79    1.19
   7   5  -4   23.81    1.17
   6   5  -4    0.38    0.28
   6   5  -4    0.28    0.22
   5   5  -4    0.76    0.21
   5   5  -4    0.17    0.21
   4   5  -4    1.95    0.29
   3   5  -4   22.61    1.01
   2   5  -4    4.83    0.34
   1   5  -4    5.05    0.34
   0   5  -4    0.46    0.15
   0  -5   4    0.78    0.17
   1  -5   4    3.53    0.33
   1  -5   4    2.71    0.25
   2  -5   4  283.95   10.45
   2  -5   4  287.48   10.55
   3  -5   4    0.11    0.16
   3  -5   4    0.21    0.16
   3  -5   4    0.25    0.21
   4  -5   4    0.43    0.22
   4  -5   4    0.44    0.19
   5  -5   4    0.10    0.23
   5  -5   4    0.29    0.19
   6  -5   4   26.67    1.37
   6  -5   4   24.07    1.15
   7  -5   4   16.89    1.12
   8  -5   4   12.09    0.99
   9  -5   4   17.99    1.29
  10  -5   4    7.23    0.93
  11   4  -4    0.91    0.51
  10   4  -4    0.82    0.46
   9   4  -4   -0.19    0.28
   8   4  -4    0.47    0.30
   8   4  -4    0.93    0.34
   7   4  -4    1.02    0.27
   7   4  -4    0.66    0.31
   6   4  -4    3.54    0.38
   6   4  -4    4.00    0.48
   5   4  -4    5.16    0.40
   5   4  -4    5.78    0.49
   4   4  -4  134.35    5.07
   3   4  -4  275.02   10.10
   2   4  -4   78.30    2.97
   1   4  -4  106.84    3.99
   0   4  -4   16.97    0.77
   0  -4   4   18.17    0.80
  -1   4  -4   13.85    0.65
   1  -4   4   14.63    0.70
   1  -4   4   13.77    0.66
   2  -4   4  138.29    5.31
   2  -4   4  143.73    5.28
   3  -4   4  193.53    6.95
   3  -4   4  182.84    7.05
   4  -4   4  173.40    6.50
   4  -4   4  169.66    6.35
   5  -4   4    2.16    0.27
   5  -4   4    2.36    0.38
   6  -4   4    0.33    0.20
   6  -4   4    0.60    0.32
   7  -4   4    0.27    0.34
   8  -4   4    0.16    0.37
   9  -4   4   -0.10    0.34
  10  -4   4   -0.23    0.40
  11   3  -4    4.62    0.72
  10   3  -4   10.47    0.98
   9   3  -4   14.50    0.98
   8   3  -4   33.91    1.57
   8   3  -4   30.60    1.49
   7   3  -4    2.88    0.41
   7   3  -4    2.39    0.37
   6   3  -4   11.03    0.66
   6   3  -4   11.74    0.71
   5   3  -4    0.34    0.22
   5   3  -4    0.02    0.06
   4   3  -4   31.78    1.38
   3   3  -4    5.38    0.38
   2   3  -4  362.36   13.19
   1   3  -4  166.98    6.13
   0   3  -4    0.04    0.08
   0  -3   4    0.27    0.13
   0  -3   4    0.05    0.15
  -1   3  -4    4.17    0.27
   1  -3   4    3.77    0.32
   1  -3   4    3.81    0.31
  -2   3  -4    4.63    0.30
   2  -3   4    5.28    0.37
   2  -3   4    4.86    0.37
   3  -3   4  102.30    3.97
   3  -3   4  104.00    3.85
   4  -3   4   37.73    1.63
   4  -3   4   35.37    1.45
   5  -3   4    6.09    0.60
   5  -3   4    4.27    0.34
   6  -3   4    1.55    0.38
   6  -3   4    0.95    0.21
   7  -3   4    1.10    0.42
   8  -3   4    4.08    0.64
   9  -3   4    7.62    0.89
  10  -3   4    7.24    0.93
  11   2  -4    0.12    0.42
  10   2  -4    3.13    0.57
   9   2  -4   -0.18    0.30
   9   2  -4    0.20    0.25
   8   2  -4    3.07    0.41
   8   2  -4    2.24    0.39
   7   2  -4    1.16    0.28
   7   2  -4    0.10    0.13
   5   2  -4   10.56    0.64
   5   2  -4   10.68    0.58
   4   2  -4   36.95    1.62
   4   2  -4   39.71    1.54
   3   2  -4   84.90    3.29
   3   2  -4   87.16    3.22
   2   2  -4   42.35    1.67
   1   2  -4  889.23   30.22
  -1  -2   4  760.27   30.30
   0   2  -4  129.13    5.40
   0  -2   4  159.60    5.44
   0  -2   4  155.23    5.50
  -1   2  -4  352.31   12.57
   1  -2   4  351.28   12.71
   1  -2   4  337.09   12.64
  -2   2  -4  247.79    8.86
   2  -2   4  239.72    8.97
   3  -2   4  103.19    3.83
   3  -2   4  104.38    3.98
   4  -2   4  170.32    6.38
   4  -2   4  167.28    6.18
   5  -2   4   29.20    1.35
   5  -2   4   27.21    1.14
   6  -2   4    6.10    0.39
   6  -2   4    6.22    0.63
   7  -2   4    2.81    0.52
   8  -2   4    1.03    0.46
   9  -2   4    0.17    0.42
  10  -2   4    0.34    0.48
  11   1  -4    8.83    0.93
  10   1  -4    4.90    0.67
   9   1  -4   31.15    1.49
   7   1  -4   27.79    1.30
   7   1  -4   26.79    1.27
   6   1  -4   16.59    0.85
   6   1  -4   16.02    0.84
   5   1  -4    6.91    0.49
   5   1  -4    6.97    0.45
   4   1  -4   30.07    1.33
   4   1  -4   31.69    1.26
   3   1  -4    9.50    0.43
   3   1  -4    8.34    0.50
   2   1  -4    0.74    0.17
   1   1  -4   41.17    1.52
  -1  -1   4   35.79    1.57
   0   1  -4   20.25    0.81
   0  -1   4   19.99    0.81
  -1   1  -4    8.26    0.35
   1  -1   4    7.96    0.44
   1  -1   4    8.06    0.48
  -2   1  -4    8.11    0.35
   2  -1   4    8.49    0.47
   3  -1   4   18.57    0.72
   3  -1   4   17.57    0.86
   4  -1   4    3.44    0.23
   4  -1   4    4.34    0.44
   5  -1   4    4.57    0.29
   5  -1   4    5.56    0.53
   6  -1   4    0.28    0.15
   6  -1   4   -0.03    0.26
   7  -1   4    0.59    0.33
   8  -1   4   -0.04    0.32
   9  -1   4    2.37    0.58
  10  -1   4    7.59    0.93
  11   0  -4    0.04    0.20
  10   0  -4   -0.06    0.19
   9   0  -4    6.77    0.60
   9   0  -4    6.22    0.69
   8   0  -4    1.57    0.33
   8   0  -4    1.83    0.40
   7   0  -4    6.21    0.51
   7   0  -4    6.74    0.60
   6   0  -4    5.64    0.44
   6   0  -4    5.03    0.44
   5   0  -4   23.38    1.04
   5   0  -4   23.35    1.08
   4   0  -4   38.47    1.57
   4   0  -4   37.48    1.52
   3   0  -4   40.27    1.65
   3   0  -4   42.23    1.59
   2   0  -4   70.73    2.78
   2   0  -4   75.35    2.69
   1   0  -4  206.50    7.79
  -1   0   4  220.32    7.87
   0   0  -4  130.29    4.76
   0   0   4  128.52    4.89
   0   0   4  130.98    4.75
  -1   0  -4  218.59    7.92
   1   0   4  218.14    7.98
   2   0   4   94.74    3.56
   3   0   4  131.96    4.95
   4   0   4  111.32    4.06
   4   0   4  112.10    4.26
   5   0   4   70.80    2.85
   5   0   4   71.03    2.63
   6   0   4    7.83    0.61
   7   0   4   28.35    1.45
   8   0   4   13.15    0.98
   9   0   4    0.19    0.40
  10   0   4    0.51    0.51
  11  -1  -4    4.21    0.72
  10  -1  -4   22.50    1.38
   9  -1  -4   25.95    1.45
   9  -1  -4   27.80    1.35
   8  -1  -4   23.13    1.15
   8  -1  -4   21.78    1.21
   7  -1  -4   15.08    0.88
   7  -1  -4   15.07    0.83
   6  -1  -4   13.22    0.74
   6  -1  -4   12.70    0.72
   5  -1  -4   87.83    3.39
   5  -1  -4   88.83    3.42
   4  -1  -4   57.28    2.22
   4  -1  -4   57.09    2.26
   3  -1  -4    6.81    0.42
   3  -1  -4    7.27    0.37
   2  -1  -4    4.89    0.34
   2  -1  -4    5.22    0.26
  -2   1   4    4.92    0.39
   1  -1  -4  138.59    5.08
  -1   1   4  137.28    5.15
   0  -1  -4   59.67    2.23
   0   1   4   59.60    2.19
   0   1   4   59.82    2.37
  -1  -1  -4    1.49    0.16
   1   1   4    1.68    0.20
   2   1   4   88.68    3.33
   3   1   4   13.35    0.66
   4   1   4   -0.15    0.17
   5   1   4    1.82    0.29
   5   1   4    1.72    0.15
   6   1   4    1.43    0.34
   7   1   4    2.22    0.44
   8   1   4    2.46    0.51
   9   1   4    1.78    0.52
  10   1   4    4.51    0.78
  11  -2  -4    0.25    0.47
  10  -2  -4    1.72    0.51
   9  -2  -4    4.80    0.64
   9  -2  -4    4.75    0.55
   8  -2  -4    0.64    0.29
   8  -2  -4    0.79    0.35
   7  -2  -4    5.90    0.59
   7  -2  -4    6.21    0.52
   6  -2  -4   10.77    0.68
   6  -2  -4   10.71    0.66
   5  -2  -4   -0.05    0.15
   5  -2  -4   -0.03    0.16
   4  -2  -4   15.60    0.75
   4  -2  -4   16.10    0.79
   3  -2  -4    2.66    0.23
   3  -2  -4    2.25    0.25
   2  -2  -4    0.10    0.13
   2  -2  -4    0.32    0.08
  -2   2   4    0.18    0.17
   1  -2  -4    0.97    0.17
  -1   2   4    1.57    0.23
   0  -2  -4  378.11   13.79
   0   2   4  382.36   13.81
  -1  -2  -4   87.54    3.16
   1   2   4   83.71    3.16
   2   2   4  102.76    3.87
   2   2   4  104.84    3.78
   3   2   4   90.71    3.47
   3   2   4   92.04    3.33
   4   2   4   28.18    1.22
   4   2   4   27.24    1.04
   5   2   4   63.13    2.59
   5   2   4   65.54    2.38
   6   2   4   67.22    2.76
   7   2   4   32.29    1.56
   8   2   4   -0.18    0.34
   9   2   4   -0.04    0.40
  10   2   4    2.69    0.60
  11  -3  -4    4.21    0.70
  10  -3  -4    5.93    0.78
   9  -3  -4   18.07    1.20
   9  -3  -4   19.82    1.10
   8  -3  -4   35.34    1.58
   8  -3  -4   30.19    1.61
   7  -3  -4   26.55    1.37
   7  -3  -4   28.92    1.34
   6  -3  -4    2.74    0.37
   6  -3  -4    2.88    0.36
   5  -3  -4   63.67    2.59
   5  -3  -4   66.19    2.61
   4  -3  -4   24.44    1.03
   4  -3  -4   21.80    1.05
   3  -3  -4    4.03    0.28
   3  -3  -4    3.76    0.32
   2  -3  -4   77.31    2.81
   2  -3  -4   75.52    2.90
  -2   3   4   74.32    2.92
   1  -3  -4   13.91    0.65
  -1   3   4   13.32    0.70
   0  -3  -4    3.89    0.29
  -1  -3  -4   90.66    3.38
   1   3   4   91.27    3.37
   2   3   4   56.09    2.19
   2   3   4   58.36    2.14
   3   3   4    1.25    0.12
   3   3   4    0.81    0.17
   4   3   4    0.67    0.20
   4   3   4    0.67    0.12
   5   3   4    0.16    0.09
   5   3   4    0.39    0.22
   6   3   4   12.12    0.75
   7   3   4   26.13    1.35
   8   3   4    0.04    0.33
   9   3   4    1.97    0.53
  10   3   4    3.62    0.70
  11  -4  -4    0.82    0.48
  10  -4  -4   13.77    1.08
   9  -4  -4    0.50    0.33
   9  -4  -4    0.85    0.40
   8  -4  -4    0.18    0.31
   8  -4  -4    0.08    0.27
   7  -4  -4    4.17    0.51
   7  -4  -4    4.76    0.52
   6  -4  -4    6.10    0.54
   6  -4  -4    7.58    0.57
   5  -4  -4   24.96    1.23
   5  -4  -4   27.63    1.21
   4  -4  -4    0.71    0.23
   4  -4  -4    0.68    0.17
   3  -4  -4   39.86    1.57
   3  -4  -4   39.51    1.66
   2  -4  -4   28.74    1.15
   2  -4  -4   28.96    1.25
  -2   4   4   29.39    1.23
   1  -4  -4  140.51    5.22
  -1   4   4  138.88    5.27
   0  -4  -4   21.40    0.93
  -1  -4  -4   81.29    3.07
   2   4   4  226.00    8.25
   2   4   4  224.19    8.22
   3   4   4  183.28    6.84
   3   4   4  186.57    6.75
   4   4   4   41.20    1.62
   4   4   4   43.13    1.75
   5   4   4   72.49    2.72
   5   4   4   71.08    2.86
   6   4   4   36.91    1.68
   7   4   4   14.48    0.90
   8   4   4    6.78    0.73
   9   4   4    9.51    0.90
  10   4   4   -0.39    0.43
  11  -5  -4   10.27    1.05
  10  -5  -4    2.72    0.57
   9  -5  -4    3.84    0.58
   9  -5  -4    3.81    0.55
   8  -5  -4   34.15    1.67
   8  -5  -4   33.44    1.66
   7  -5  -4   54.59    2.35
   7  -5  -4   54.12    2.35
   6  -5  -4   75.83    3.01
   6  -5  -4   73.28    3.04
   5  -5  -4   82.31    3.36
   5  -5  -4   86.25    3.30
   4  -5  -4   58.68    2.43
   4  -5  -4   59.81    2.34
   3  -5  -4   54.76    2.19
   3  -5  -4   57.22    2.30
  -3   5   4   57.14    2.24
   2  -5  -4   16.68    0.73
   2  -5  -4   16.35    0.84
  -2   5   4   16.48    0.79
   1  -5  -4    2.62    0.31
  -1   5   4    2.56    0.31
   0  -5  -4   35.77    1.49
  -1  -5  -4    0.88    0.18
   2   5   4   47.06    1.81
   2   5   4   45.56    1.83
   3   5   4    5.29    0.39
   3   5   4    4.91    0.31
   4   5   4   10.79    0.51
   4   5   4   10.20    0.60
   5   5   4    5.15    0.50
   5   5   4    5.14    0.35
   6   5   4    2.37    0.38
   7   5   4    3.30    0.46
   8   5   4   -0.33    0.27
   9   5   4   -0.15    0.40
  10   5   4    0.07    0.49
  11  -6  -4    0.08    0.42
  10  -6  -4    4.07    0.63
   9  -6  -4    5.57    0.67
   9  -6  -4    4.62    0.63
   8  -6  -4    2.87    0.47
   8  -6  -4    2.80    0.50
   7  -6  -4    0.93    0.32
   7  -6  -4    0.95    0.34
   6  -6  -4    6.99    0.67
   6  -6  -4    7.58    0.60
   5  -6  -4   29.13    1.29
   5  -6  -4   26.77    1.34
   4  -6  -4    4.17    0.36
   4  -6  -4    3.38    0.41
   3  -6  -4   15.95    0.79
   3  -6  -4   17.95    0.92
  -3   6   4   17.47    0.82
   2  -6  -4   22.44    1.11
   2  -6  -4   23.58    1.01
  -2   6   4   24.39    1.06
   1  -6  -4   96.45    3.74
  -1   6   4   97.08    3.74
   0  -6  -4   72.27    2.83
  -1  -6  -4   18.66    0.88
   2   6   4   24.47    1.06
   3   6   4   13.16    0.70
   3   6   4   13.41    0.64
   4   6   4  141.69    5.54
   4   6   4  151.84    5.44
   5   6   4  119.73    4.52
   5   6   4  122.39    4.66
   6   6   4   44.56    1.96
   7   6   4    7.14    0.69
   8   6   4   16.37    1.06
   9   6   4   11.18    1.00
  11  -7  -4    5.49    0.79
  10  -7  -4    7.58    0.85
  10  -7  -4    6.84    0.92
   9  -7  -4    3.37    0.56
   9  -7  -4    2.16    0.51
   8  -7  -4   30.28    1.56
   8  -7  -4   30.55    1.59
   7  -7  -4   44.87    2.10
   7  -7  -4   45.62    2.03
   6  -7  -4   54.55    2.25
   6  -7  -4   51.15    2.33
   5  -7  -4   28.55    1.38
   5  -7  -4   26.77    1.27
   4  -7  -4   76.99    3.15
   4  -7  -4   77.41    3.02
   3  -7  -4   29.52    1.38
   3  -7  -4   29.00    1.25
  -3   7   4   28.91    1.24
   2  -7  -4   20.09    1.04
   2  -7  -4   20.91    0.93
  -2   7   4   20.08    0.95
   1  -7  -4   38.48    1.72
  -1   7   4   41.39    1.72
  -1  -7  -4    3.02    0.34
   2   7   4    5.09    0.40
   3   7   4    1.56    0.27
   3   7   4    1.17    0.21
   4   7   4    0.42    0.21
   4   7   4    0.30    0.15
   5   7   4    9.41    0.68
   5   7   4    9.57    0.54
   6   7   4    3.34    0.47
   7   7   4    0.63    0.32
   8   7   4   -0.81    0.31
   9   7   4    0.19    0.44
  10  -8  -4    0.72    0.45
  10  -8  -4    0.48    0.44
   9  -8  -4   10.47    0.89
   9  -8  -4   10.74    0.96
   8  -8  -4    6.46    0.77
   8  -8  -4    6.34    0.70
   7  -8  -4    0.70    0.39
   7  -8  -4    0.85    0.34
   6  -8  -4   48.59    2.18
   6  -8  -4   46.08    2.05
   5  -8  -4   15.11    0.98
   5  -8  -4   15.75    0.87
   4  -8  -4    7.47    0.63
   4  -8  -4    8.40    0.56
   3  -8  -4    6.64    0.57
   3  -8  -4    7.22    0.50
  -3   8   4    6.85    0.43
   2  -8  -4   13.77    0.84
   2  -8  -4   14.10    0.74
  -2   8   4   15.18    0.76
   1  -8  -4    1.33    0.30
  -1   8   4    1.23    0.27
  -1  -8  -4   41.40    1.77
   2   8   4    3.76    0.38
   3   8   4   31.32    1.34
   3   8   4   30.75    1.38
   4   8   4   56.67    2.38
   4   8   4   59.01    2.30
   5   8   4   27.95    1.35
   5   8   4   27.71    1.22
   6   8   4   16.99    0.98
   7   8   4   23.74    1.32
   8   8   4    9.92    0.90
   9   8   4   14.44    1.13
  10  -9  -4    2.82    0.64
  10  -9  -4    2.73    0.60
   9  -9  -4    3.94    0.61
   9  -9  -4    2.75    0.60
   8  -9  -4   17.60    1.11
   8  -9  -4   16.62    1.16
   7  -9  -4   23.12    1.37
   7  -9  -4   26.64    1.36
   6  -9  -4    0.65    0.29
   6  -9  -4    0.12    0.35
   5  -9  -4   72.24    3.04
   5  -9  -4   69.76    2.89
   4  -9  -4   56.16    2.33
   4  -9  -4   57.13    2.49
   3  -9  -4   39.31    1.67
   3  -9  -4   38.32    1.80
  -3   9   4   39.01    1.59
   2  -9  -4   37.96    1.75
  -2   9   4   38.44    1.63
   1  -9  -4   29.46    1.41
  -1   9   4   29.09    1.35
   0  -9  -4   19.57    1.04
  -1  -9  -4    6.10    0.53
   2   9   4    3.74    0.40
   3   9   4    0.27    0.20
   4   9   4    1.43    0.33
   4   9   4    1.17    0.26
   5   9   4   -0.06    0.26
   5   9   4   -0.22    0.18
   6   9   4    1.34    0.37
   7   9   4    0.91    0.37
   8   9   4    2.59    0.53
   9   9   4    0.57    0.50
  10 -10  -4    0.26    0.45
  10 -10  -4    0.91    0.52
   9 -10  -4    4.48    0.67
   9 -10  -4    3.47    0.65
   8 -10  -4    3.87    0.65
   8 -10  -4    3.32    0.56
   7 -10  -4    0.48    0.40
   7 -10  -4   -0.02    0.28
   6 -10  -4    0.02    0.27
   6 -10  -4    0.77    0.40
   5 -10  -4    0.43    0.26
   5 -10  -4    0.65    0.36
   4 -10  -4   16.26    1.03
   4 -10  -4   16.64    0.92
   3 -10  -4    3.37    0.54
   3 -10  -4    3.57    0.42
  -3  10   4    3.55    0.34
   2 -10  -4   11.15    0.78
  -2  10   4   10.43    0.64
   1 -10  -4    7.36    0.64
  -1  10   4    6.19    0.53
   0 -10  -4    2.22    0.40
  -1 -10  -4    2.11    0.39
   2  10   4   11.95    0.73
   3  10   4   12.27    0.74
   4  10   4   51.01    2.16
   4  10   4   49.39    2.08
   5  10   4   11.57    0.82
   6  10   4   11.97    0.84
   7  10   4   24.61    1.39
   8  10   4    8.80    0.87
   9 -11  -4    4.05    0.69
   9 -11  -4    5.30    0.71
   8 -11  -4   12.62    0.96
   8 -11  -4   12.74    1.08
   7 -11  -4    8.69    0.78
   7 -11  -4    8.09    0.90
   6 -11  -4   39.05    1.99
   6 -11  -4   39.51    1.84
   5 -11  -4    7.44    0.65
   5 -11  -4    6.87    0.75
   4 -11  -4   37.81    1.91
   4 -11  -4   39.88    1.77
   3 -11  -4   52.32    2.42
   3 -11  -4   56.27    2.31
   2 -11  -4   51.21    2.21
  -2  11   4   45.05    1.99
   1 -11  -4   14.14    0.96
  -1  11   4   15.09    0.87
   0 -11  -4   18.25    1.08
   2  11   4   -0.11    0.21
   3  11   4   -0.09    0.22
   4  11   4    1.42    0.32
   4  11   4    0.56    0.29
   5  11   4    0.63    0.37
   6  11   4    0.51    0.35
   7  11   4    0.29    0.37
   8  11   4    2.97    0.63
   9 -12  -4    0.37    0.48
   8 -12  -4   -0.16    0.32
   8 -12  -4    0.36    0.46
   7 -12  -4    3.03    0.65
   7 -12  -4    3.54    0.55
   6 -12  -4    0.92    0.47
   6 -12  -4    1.05    0.37
   5 -12  -4    1.48    0.38
   5 -12  -4    0.82    0.45
   4 -12  -4    0.98    0.41
   4 -12  -4    1.25    0.34
   3 -12  -4   16.00    1.10
   2 -12  -4    9.31    0.88
   1 -12  -4    0.23    0.31
  -1  12   4    0.75    0.30
   0 -12  -4    1.43    0.42
   1  12   4    2.47    0.44
   2  12   4    4.76    0.54
   3  12   4   17.15    0.99
   4  12   4   12.20    0.79
   4  12   4   13.19    0.87
   5  12   4    8.04    0.76
   6  12   4   24.90    1.37
   7  12   4   11.14    0.96
   9 -13  -4    2.81    0.67
   8 -13  -4    1.11    0.53
   8 -13  -4    2.05    0.51
   7 -13  -4    6.20    0.71
   7 -13  -4    7.12    0.90
   6 -13  -4   13.03    0.93
   6 -13  -4   13.31    1.10
   5 -13  -4   21.24    1.35
   5 -13  -4   19.61    1.16
   4 -13  -4   14.51    1.07
   4 -13  -4   15.34    0.96
   3 -13  -4   35.65    1.84
   2 -13  -4   16.44    1.10
   1 -13  -4   52.31    2.40
   0 -13  -4   20.42    1.24
   1  13   4   11.09    0.84
   2  13   4   10.99    0.81
   3  13   4    1.17    0.35
   4  13   4    0.35    0.33
   4  13   4    0.03    0.27
   5  13   4    0.59    0.35
   6  13   4    1.65    0.48
   7  13   4    0.74    0.43
   8 -14  -4    0.24    0.46
   7 -14  -4    0.50    0.45
   7 -14  -4    1.33    0.45
   6 -14  -4   12.47    1.09
   6 -14  -4   10.35    0.91
   5 -14  -4   11.45    0.86
   5 -14  -4   10.40    0.96
   4 -14  -4   11.86    1.04
   3 -14  -4    0.75    0.46
   2 -14  -4    3.96    0.61
   1 -14  -4    7.75    0.84
   1  14   4    1.18    0.42
   2  14   4    0.17    0.32
   3  14   4    1.08    0.36
   4  14   4    1.41    0.39
   4  14   4    1.41    0.37
   5  14   4    5.53    0.69
   6  14   4   12.10    0.96
   7 -15  -4    8.11    1.03
   6 -15  -4    3.95    0.70
   6 -15  -4    4.81    0.65
   5 -15  -4    9.03    0.82
   5 -15  -4   10.00    1.06
   4 -15  -4   32.61    1.82
   3 -15  -4    4.20    0.68
   2 -15  -4   22.09    1.40
   1 -15  -4   30.43    1.71
   0  15   4   13.60    0.99
   1  15   4   18.77    1.18
   2  15   4    9.17    0.81
   3  15   4    0.82    0.35
   4  15   4    3.58    0.60
   4  15   4    3.18    0.49
   5  15   4    0.47    0.37
   7 -16  -4    1.11    0.60
   6 -16  -4    1.26    0.57
   6 -16  -4    1.03    0.48
   5 -16  -4   12.74    1.23
   4 -16  -4    3.36    0.68
   3 -16  -4    2.75    0.63
   2 -16  -4    0.96    0.52
   0  16   4    5.72    0.72
   1  16   4    1.85    0.48
   2  16   4    1.03    0.36
   3  16   4   -0.21    0.24
   4  16   4    0.15    0.41
   6 -17  -4    0.43    0.56
   5 -17  -4    2.70    0.70
   4 -17  -4    4.69    0.79
   3 -17  -4   13.51    1.24
   2 -17  -4    9.96    1.09
  -1  17   4   12.81    1.04
   0  17   4   17.73    1.25
   1  17   4   11.15    0.93
   2  17   4    3.65    0.58
   3  17   4    2.33    0.50
   4 -18  -4    1.30    0.59
   3 -18  -4    0.32    0.55
  -1  18   4    0.71    0.49
   0  18   4    1.27    0.52
   1  18   4    1.50    0.50
   2  18   4    0.25    0.32
   0  19  -5    2.98    0.61
   3  18  -5    8.79    0.93
   2  18  -5   11.26    0.96
   1  18  -5    4.75    0.75
   0  18  -5    2.61    0.58
  -1  18  -5    8.66    0.94
  -2  18  -5   18.50    1.32
  -3  18  -5    9.57    1.06
   4  17  -5    0.56    0.47
   3  17  -5   -0.15    0.39
   2  17  -5    1.26    0.49
   1  17  -5    3.30    0.58
   0  17  -5    0.40    0.42
  -1  17  -5    6.27    0.82
  -2  17  -5    4.74    0.75
  -3  17  -5    1.43    0.54
  -4  17  -5    3.93    0.77
   4 -17   5    3.25    0.72
  -5  17  -5    0.08    0.48
   5 -17   5    0.52    0.57
   5  16  -5    3.94    0.65
   4  16  -5    0.71    0.40
   3  16  -5    5.37    0.70
   2  16  -5   31.77    1.68
   1  16  -5   18.40    1.19
   0  16  -5    6.76    0.77
  -1  16  -5   10.06    0.99
  -2  16  -5   18.07    1.22
  -3  16  -5   13.71    1.11
   3 -16   5   11.97    1.16
  -4  16  -5    9.09    0.98
   4 -16   5    6.44    0.86
  -5  16  -5    4.76    0.73
   5 -16   5    4.27    0.81
  -6  16  -5    2.56    0.65
   6 -16   5    1.30    0.57
   6  15  -5    2.91    0.61
   5  15  -5    3.98    0.63
   4  15  -5    3.73    0.59
   3  15  -5    1.98    0.45
   2  15  -5   -0.41    0.33
   1  15  -5    0.26    0.32
   0  15  -5    4.08    0.62
  -1  15  -5    0.59    0.43
  -2  15  -5    1.26    0.48
  -3  15  -5    4.54    0.68
   3 -15   5    3.35    0.60
  -4  15  -5    2.82    0.58
   4 -15   5    1.57    0.51
   5 -15   5    1.75    0.56
  -6  15  -5    0.47    0.49
   6 -15   5    0.18    0.50
  -7  15  -5    0.27    0.54
   7 -15   5    0.61    0.52
   7  14  -5    1.00    0.49
   7  14  -5    0.57    0.45
   6  14  -5    0.49    0.44
   5  14  -5    1.16    0.39
   4  14  -5    2.02    0.45
   3  14  -5    2.96    0.51
   2  14  -5   29.94    1.52
   1  14  -5   23.40    1.28
   0  14  -5   34.99    1.74
  -1  14  -5   78.55    3.33
  -2  14  -5   28.93    1.56
   2 -14   5   28.19    1.56
  -3  14  -5   18.89    1.23
   3 -14   5   19.08    1.27
  -4  14  -5   10.43    0.91
   4 -14   5    8.60    0.95
  -5  14  -5    7.77    0.85
   5 -14   5    6.90    0.91
  -6  14  -5    5.80    0.76
   6 -14   5    4.14    0.71
  -7  14  -5    2.09    0.78
   7 -14   5    2.13    0.68
   8  13  -5    7.92    0.90
   7  13  -5    7.36    0.83
   7  13  -5    6.03    0.73
   6  13  -5    6.31    0.72
   5  13  -5   11.55    0.87
   4  13  -5    0.78    0.36
   3  13  -5    1.12    0.35
   2  13  -5    1.80    0.42
   1  13  -5    1.91    0.40
   0  13  -5   -0.24    0.33
  -1  13  -5    3.03    0.50
  -2  13  -5   19.76    1.20
   2 -13   5   19.96    1.23
  -3  13  -5    7.30    0.76
   3 -13   5    7.26    0.78
  -4  13  -5    3.62    0.56
   4 -13   5    6.60    0.75
  -5  13  -5    2.55    0.55
   5 -13   5    2.17    0.55
  -6  13  -5    2.28    0.55
   6 -13   5    2.41    0.61
   7 -13   5    0.43    0.53
   8 -13   5    2.44    0.72
   8  12  -5    0.36    0.45
   7  12  -5    0.10    0.40
   7  12  -5    0.10    0.39
   6  12  -5    0.50    0.39
   5  12  -5   -0.10    0.27
   4  12  -5    0.25    0.28
   3  12  -5   16.36    0.98
   2  12  -5    8.54    0.66
   1  12  -5    9.07    0.69
   0  12  -5   21.96    1.21
  -1  12  -5   40.69    1.90
   1 -12   5   40.72    1.92
  -2  12  -5   60.16    2.63
   2 -12   5   61.62    2.69
  -3  12  -5   22.50    1.26
   3 -12   5   21.97    1.32
  -4  12  -5   29.38    1.59
   4 -12   5   35.56    1.76
  -5  12  -5   19.31    1.19
   5 -12   5   19.74    1.32
   6 -12   5   15.78    1.18
   7 -12   5   11.00    1.16
   8 -12   5    1.07    0.57
   9  11  -5    8.99    0.95
   8  11  -5    9.87    0.95
   8  11  -5   10.61    1.00
   7  11  -5   15.28    0.99
   7  11  -5   12.21    1.00
   6  11  -5   49.36    2.24
   5  11  -5   29.05    1.45
   4  11  -5   -0.07    0.24
   3  11  -5    3.27    0.43
   2  11  -5    0.15    0.26
   1  11  -5    1.42    0.32
   0  11  -5    1.11    0.32
  -1  11  -5   13.53    0.84
   1 -11   5   12.69    0.85
  -2  11  -5    4.15    0.54
   2 -11   5    4.54    0.60
  -3  11  -5    9.69    0.76
   3 -11   5   11.30    0.87
  -4  11  -5    7.56    0.72
   4 -11   5    6.82    0.73
   5 -11   5    7.62    0.83
   6 -11   5    3.86    0.67
   7 -11   5    1.08    0.52
   8 -11   5    0.51    0.51
   9 -11   5    2.30    0.69
   9  10  -5    0.01    0.37
   8  10  -5    5.11    0.73
   8  10  -5    4.29    0.62
   7  10  -5    3.02    0.57
   7  10  -5    3.49    0.57
   6  10  -5    1.10    0.39
   5  10  -5    3.61    0.50
   4  10  -5   -0.09    0.26
   3  10  -5    0.33    0.23
   2  10  -5   18.95    0.99
   1  10  -5    8.13    0.61
   0  10  -5    6.30    0.53
  -1  10  -5   64.79    2.62
   1 -10   5   60.55    2.63
  -2  10  -5   38.53    1.73
   2 -10   5   38.18    1.80
   4 -10   5   19.65    1.18
   5 -10   5   35.14    1.82
   6 -10   5   28.41    1.63
   6 -10   5   28.10    1.45
   7 -10   5    7.44    0.91
   7 -10   5    9.95    0.97
   8 -10   5    3.67    0.73
   9 -10   5    2.06    0.65
   9   9  -5   10.50    0.89
   8   9  -5    0.52    0.46
   8   9  -5    0.82    0.36
   7   9  -5   23.51    1.34
   7   9  -5   24.91    1.33
   6   9  -5   76.62    3.16
   6   9  -5   77.03    3.18
   5   9  -5   61.56    2.58
   4   9  -5   20.38    1.04
   3   9  -5   16.38    0.88
   2   9  -5   15.46    0.82
   1   9  -5    6.60    0.53
   0   9  -5    0.81    0.25
   0  -9   5    0.69    0.24
  -1   9  -5    0.42    0.22
   1  -9   5    0.42    0.23
  -2   9  -5    2.79    0.37
   2  -9   5    3.48    0.45
  -3   9  -5    2.92    0.42
   3  -9   5    2.89    0.44
   4  -9   5   10.54    0.84
   5  -9   5   18.66    1.18
   5  -9   5   19.96    1.09
   6  -9   5   17.13    1.19
   6  -9   5   17.46    1.00
   7  -9   5    0.84    0.41
   8  -9   5   -0.01    0.38
   9  -9   5    1.53    0.59
  10   8  -5   -0.16    0.44
   9   8  -5   -0.16    0.37
   8   8  -5    4.43    0.68
   8   8  -5    4.59    0.61
   7   8  -5    6.94    0.68
   7   8  -5    6.59    0.72
   6   8  -5    0.07    0.27
   6   8  -5   -0.15    0.24
   5   8  -5    0.23    0.25
   4   8  -5    0.08    0.22
   3   8  -5   -0.16    0.19
   2   8  -5   14.14    0.75
   1   8  -5    1.26    0.25
   0   8  -5   34.55    1.49
   0  -8   5   32.66    1.50
  -1   8  -5  142.84    5.36
   1  -8   5  139.51    5.41
   2  -8   5   69.05    2.84
  -3   8  -5   17.55    0.94
   3  -8   5   18.52    0.82
   3  -8   5   17.75    1.03
   4  -8   5   69.48    2.78
   4  -8   5   67.05    2.90
   5  -8   5   51.33    2.11
   5  -8   5   46.52    2.24
   6  -8   5   19.76    1.26
   6  -8   5   23.50    1.15
   7  -8   5    9.83    0.88
   8  -8   5    7.38    0.90
   9  -8   5    2.58    0.64
  10   7  -5   12.13    1.04
   9   7  -5   26.95    1.49
   8   7  -5    5.75    0.70
   8   7  -5    7.00    0.69
   7   7  -5   32.74    1.55
   7   7  -5   32.29    1.63
   6   7  -5   45.22    2.00
   6   7  -5   47.19    2.06
   5   7  -5   26.10    1.27
   4   7  -5   59.60    2.42
   3   7  -5   35.98    1.54
   2   7  -5   78.39    3.05
   1   7  -5    6.86    0.46
   0   7  -5  106.92    4.08
   0  -7   5  106.46    4.11
  -1   7  -5    6.40    0.46
   1  -7   5    6.80    0.53
  -2   7  -5   12.18    0.66
   2  -7   5   11.06    0.70
   2  -7   5   10.88    0.57
  -3   7  -5    4.72    0.43
   3  -7   5    4.40    0.50
   3  -7   5    5.07    0.37
   4  -7   5    0.28    0.22
   4  -7   5    0.73    0.28
   4  -7   5    0.64    0.21
   5  -7   5   37.28    1.59
   5  -7   5   33.48    1.71
   6  -7   5    6.75    0.73
   6  -7   5    5.71    0.53
   7  -7   5    0.28    0.39
   8  -7   5    0.26    0.42
   9  -7   5    1.98    0.56
  10  -7   5    0.64    0.52
  10   6  -5   -0.07    0.39
   9   6  -5    2.07    0.47
   8   6  -5    3.02    0.51
   8   6  -5    4.11    0.55
   7   6  -5    9.27    0.66
   7   6  -5    7.68    0.77
   6   6  -5    3.63    0.44
   6   6  -5    4.11    0.52
   5   6  -5    1.69    0.33
   4   6  -5    7.66    0.52
   3   6  -5    0.12    0.15
   2   6  -5    0.11    0.14
   1   6  -5    1.64    0.23
   0   6  -5    9.63    0.52
   0  -6   5    8.22    0.54
   1  -6   5  100.74    3.82
   1  -6   5   96.93    3.74
  -2   6  -5  148.44    5.51
   2  -6   5  146.00    5.48
   2  -6   5  146.55    5.59
   3  -6   5   98.61    4.03
   3  -6   5  106.29    3.93
   4  -6   5   30.76    1.53
   4  -6   5   33.79    1.46
   4  -6   5   32.93    1.42
   5  -6   5   56.85    2.32
   5  -6   5   58.43    2.51
   6  -6   5   34.05    1.69
   6  -6   5   33.26    1.48
   7  -6   5   50.30    2.37
   8  -6   5   17.12    1.18
   9  -6   5    3.79    0.71
  10  -6   5    3.28    0.73
  10   5  -5    4.79    0.69
   9   5  -5   13.33    0.95
   9   5  -5   14.37    0.98
   8   5  -5   30.22    1.53
   8   5  -5   31.31    1.52
   7   5  -5   16.82    0.91
   7   5  -5   14.23    0.95
   6   5  -5   50.89    2.23
   6   5  -5   52.27    2.15
   5   5  -5  100.23    3.82
   5   5  -5   98.20    3.88
   4   5  -5   12.91    0.72
   3   5  -5   52.43    2.10
   2   5  -5   84.58    3.23
   1   5  -5   58.25    2.26
   0   5  -5   28.25    1.20
   0  -5   5   29.57    1.25
  -1   5  -5   19.17    0.87
   1  -5   5   18.48    0.88
   1  -5   5   20.39    0.93
  -2   5  -5   20.27    0.90
   2  -5   5   20.02    0.99
   2  -5   5   19.50    0.93
   3  -5   5   11.07    0.66
   3  -5   5   10.14    0.68
   4  -5   5   39.90    1.62
   4  -5   5   38.04    1.75
   5  -5   5    6.00    0.46
   5  -5   5    6.91    0.60
   6  -5   5    2.90    0.47
   6  -5   5    3.09    0.35
   7  -5   5    1.17    0.43
   8  -5   5    2.52    0.53
   9  -5   5    9.44    1.01
  10  -5   5    0.28    0.42
  11   4  -5    0.64    0.49
  10   4  -5    0.42    0.39
   9   4  -5   -0.18    0.28
   9   4  -5   -0.15    0.29
   8   4  -5   -0.12    0.27
   8   4  -5    0.14    0.30
   7   4  -5   33.58    1.63
   7   4  -5   36.28    1.59
   6   4  -5    0.25    0.14
   6   4  -5    0.59    0.29
   5   4  -5    4.05    0.45
   4   4  -5   72.58    2.87
   3   4  -5   -0.12    0.15
   2   4  -5    3.18    0.29
   1   4  -5   60.66    2.33
   0   4  -5   14.71    0.70
   0  -4   5   16.52    0.75
   0  -4   5   17.10    0.80
  -1   4  -5   21.38    0.92
   1  -4   5   22.45    0.99
   1  -4   5   21.19    0.98
  -2   4  -5   96.64    3.60
   2  -4   5   90.40    3.68
   2  -4   5  100.46    3.71
  -3   4  -5    6.69    0.41
   3  -4   5    7.06    0.50
   3  -4   5    7.04    0.53
   4  -4   5   64.92    2.65
   4  -4   5   63.84    2.48
   5  -4   5   33.29    1.56
   5  -4   5   31.70    1.35
   6  -4   5   27.69    1.40
   6  -4   5   24.74    1.12
   7  -4   5   32.76    1.68
   8  -4   5   38.89    1.98
   9  -4   5   18.64    1.32
  10  -4   5    5.31    0.83
  11   3  -5    0.21    0.42
  10   3  -5    3.97    0.61
   9   3  -5   11.49    0.80
   9   3  -5    9.53    0.77
   8   3  -5   45.34    2.00
   6   3  -5   70.43    2.72
   6   3  -5   66.25    2.78
   5   3  -5   83.96    3.43
   5   3  -5   88.91    3.33
   4   3  -5   81.16    3.20
   4   3  -5   81.84    3.11
   3   3  -5  423.46   15.46
   1   3  -5   39.30    1.54
   0  -3   5    3.91    0.34
   0  -3   5    4.26    0.30
  -1   3  -5  101.86    3.68
   1  -3   5   96.61    3.80
   1  -3   5   99.38    3.76
  -2   3  -5   77.92    2.85
   2  -3   5   73.64    2.95
   2  -3   5   75.92    2.98
  -3   3  -5    6.41    0.36
   3  -3   5    6.39    0.50
   4  -3   5   10.73    0.54
   4  -3   5   12.40    0.74
   5  -3   5   13.61    0.65
   5  -3   5   14.58    0.88
   6  -3   5    5.09    0.61
   7  -3   5    1.80    0.48
   8  -3   5    5.43    0.74
   9  -3   5    1.16    0.51
  10  -3   5    1.01    0.54
  11   2  -5   -0.09    0.19
  10   2  -5   -0.17    0.16
   9   2  -5    0.57    0.29
   9   2  -5    0.15    0.24
   8   2  -5    5.72    0.60
   8   2  -5    6.81    0.63
   7   2  -5    4.46    0.47
   7   2  -5    4.12    0.47
   6   2  -5    1.75    0.27
   6   2  -5    1.24    0.29
   5   2  -5   17.50    0.80
   5   2  -5   15.79    0.87
   4   2  -5   11.68    0.69
   4   2  -5   12.66    0.60
   3   2  -5   30.26    1.31
   2   2  -5  128.58    4.80
   1   2  -5   29.51    1.17
  -1  -2   5   28.01    1.26
   0   2  -5    3.46    0.23
   0  -2   5    3.41    0.25
   0  -2   5    3.35    0.32
  -1   2  -5   15.99    0.65
   1  -2   5   15.39    0.73
   1  -2   5   16.73    0.83
  -2   2  -5   61.17    2.29
   2  -2   5   61.77    2.42
  -3   2  -5   75.63    2.89
   3  -2   5   80.92    3.08
   4  -2   5   14.87    0.83
   5  -2   5   55.47    2.29
   5  -2   5   51.47    2.01
   6  -2   5   22.56    1.22
   7  -2   5   20.69    1.21
   8  -2   5   34.50    1.81
   9  -2   5   18.94    1.32
  10  -2   5    6.63    0.89
  11   1  -5    0.82    0.48
  10   1  -5    0.20    0.38
   9   1  -5   10.12    0.76
   9   1  -5   11.09    0.84
   8   1  -5   13.66    0.83
   8   1  -5   13.73    0.88
   7   1  -5   38.22    1.71
   7   1  -5   39.87    1.73
   6   1  -5   66.17    2.62
   6   1  -5   65.59    2.66
   5   1  -5   65.31    2.50
   5   1  -5   62.87    2.57
   4   1  -5  108.33    4.37
   4   1  -5  121.28    4.29
   3   1  -5  177.82    6.37
   3   1  -5  170.21    6.47
   2   1  -5  212.19    7.82
   1   1  -5   98.82    3.59
  -1  -1   5   92.03    3.67
   0   1  -5   84.73    2.90
   0  -1   5   65.86    3.00
   0  -1   5   81.87    2.90
  -1   1  -5  288.51   10.57
   1  -1   5  295.38   10.65
  -2   1  -5   36.82    1.39
   2  -1   5   37.88    1.53
  -3   1  -5   18.18    0.69
   3  -1   5   17.61    0.87
  -4   1  -5    4.82    0.24
   4  -1   5    5.24    0.44
   5  -1   5    5.26    0.27
   5  -1   5    5.99    0.56
   6  -1   5    1.49    0.38
   7  -1   5    6.35    0.70
   8  -1   5    6.95    0.77
   9  -1   5    0.87    0.49
  10  -1   5    0.15    0.49
  11   0  -5    1.41    0.52
  10   0  -5    1.97    0.49
   9   0  -5    0.52    0.27
   9   0  -5    0.24    0.32
   8   0  -5    1.03    0.30
   8   0  -5    0.75    0.32
   7   0  -5    0.18    0.22
   7   0  -5    0.44    0.24
   6   0  -5    1.05    0.25
   6   0  -5    1.09    0.24
   5   0  -5   16.25    0.79
   5   0  -5   17.46    0.87
   4   0  -5    5.68    0.36
   4   0  -5    6.19    0.45
   3   0  -5   17.42    0.70
   3   0  -5   16.07    0.80
   2   0  -5   13.28    0.69
   2   0  -5   16.07    0.59
  -2   0   5   14.68    0.79
   1   0  -5   97.90    4.07
  -1   0   5  121.85    4.19
   0   0  -5   15.05    0.65
   0   0   5   14.76    0.62
   0   0   5   15.28    0.79
  -1   0  -5   23.61    0.92
   1   0   5   24.24    1.11
   1   0   5   23.27    0.98
   2   0   5   10.99    0.56
   3   0   5   61.16    2.41
   4   0   5   66.73    2.66
   5   0   5   40.42    1.77
   6   0   5   18.98    1.04
   7   0   5    9.71    0.80
   8   0   5   37.20    1.84
   9   0   5    6.24    0.77
  10   0   5   10.77    1.13
  11  -1  -5    0.63    0.47
  10  -1  -5    1.73    0.51
   9  -1  -5    4.22    0.53
   9  -1  -5    3.41    0.55
   8  -1  -5    0.20    0.28
   8  -1  -5   -0.02    0.22
   7  -1  -5    8.52    0.61
   7  -1  -5    8.11    0.62
   6  -1  -5   17.28    0.89
   6  -1  -5   18.45    0.93
   5  -1  -5   62.88    2.52
   5  -1  -5   62.85    2.47
   4  -1  -5  326.69   11.95
   4  -1  -5  324.65   11.88
   3  -1  -5   90.24    3.44
   3  -1  -5   90.14    3.35
   2  -1  -5  149.04    5.45
   2  -1  -5  145.45    5.33
  -2   1   5  145.21    5.53
  -1   1   5   17.01    0.86
   0  -1  -5   41.59    1.61
   0   1   5   43.31    1.57
   0   1   5   40.47    1.77
  -1  -1  -5  239.57    8.51
   1   1   5  229.20    8.54
   2   1   5   23.14    0.98
   3   1   5   24.93    1.09
   4   1   5    2.29    0.31
   5   1   5   -0.10    0.18
   6   1   5   -0.19    0.21
   7   1   5   16.34    1.02
   8   1   5   -0.20    0.30
   9   1   5   -0.13    0.40
  10   1   5    0.45    0.49
  11  -2  -5    4.76    0.76
  10  -2  -5    2.21    0.52
   9  -2  -5    2.99    0.47
   9  -2  -5    3.33    0.56
   8  -2  -5    0.56    0.28
   8  -2  -5    0.05    0.27
   7  -2  -5    4.05    0.47
   7  -2  -5    3.81    0.46
   6  -2  -5   -0.08    0.18
   6  -2  -5   -0.20    0.17
   5  -2  -5    7.59    0.52
   5  -2  -5    6.29    0.46
   4  -2  -5  107.39    3.99
   4  -2  -5  100.89    3.91
   3  -2  -5   17.10    0.82
   3  -2  -5   17.11    0.73
   2  -2  -5    5.77    0.27
   2  -2  -5    5.77    0.39
  -2   2   5    5.50    0.41
  -1   2   5   15.13    0.79
   0  -2  -5    4.40    0.30
   0   2   5    5.44    0.45
   0   2   5    4.74    0.23
  -1  -2  -5    0.72    0.12
   1   2   5    0.63    0.11
  -2  -2  -5    9.57    0.39
   2   2   5    9.11    0.48
   3   2   5   14.26    0.70
   4   2   5    6.03    0.45
   5   2   5   21.69    1.08
   6   2   5   19.73    1.07
   7   2   5   25.92    1.34
   8   2   5   32.03    1.65
   9   2   5   16.16    1.13
  10   2   5    8.84    1.00
  11  -3  -5    1.96    0.57
  10  -3  -5    2.58    0.57
  10  -3  -5    2.54    0.57
   9  -3  -5    8.12    0.82
   9  -3  -5    8.16    0.73
   8  -3  -5    1.69    0.38
   8  -3  -5    1.77    0.41
   7  -3  -5    4.38    0.49
   7  -3  -5    3.15    0.45
   6  -3  -5    5.22    0.50
   6  -3  -5    5.72    0.54
   5  -3  -5   92.71    3.62
   5  -3  -5   92.80    3.58
   4  -3  -5   75.71    2.87
   4  -3  -5   73.48    2.93
   3  -3  -5  178.73    6.58
   3  -3  -5  179.43    6.69
  -3   3   5  180.88    6.75
   2  -3  -5  212.26    7.77
   2  -3  -5  209.49    7.64
  -2   3   5  209.12    7.81
   1  -3  -5  105.38    4.55
  -1   3   5  140.18    4.70
   0  -3  -5  128.51    4.83
   0   3   5  131.78    4.75
   0   3   5  129.70    4.95
  -1  -3  -5   77.11    2.83
   1   3   5   73.45    2.81
  -2  -3  -5   12.06    0.52
   2   3   5   12.21    0.58
   3   3   5   16.57    0.81
   3   3   5   17.73    0.68
   4   3   5   11.35    0.47
   4   3   5   11.16    0.63
   5   3   5    0.82    0.24
   6   3   5    0.02    0.24
   7   3   5    0.47    0.30
   8   3   5    4.23    0.61
   9   3   5    0.92    0.46
  10   3   5    0.07    0.51
  11  -4  -5    2.16    0.57
  10  -4  -5   11.30    0.92
  10  -4  -5   12.10    1.02
   9  -4  -5   15.53    1.01
   9  -4  -5   16.29    1.10
   8  -4  -5    1.41    0.38
   8  -4  -5    1.57    0.38
   7  -4  -5    9.92    0.73
   7  -4  -5   10.02    0.72
   6  -4  -5    0.05    0.19
   6  -4  -5    0.05    0.19
   5  -4  -5    0.47    0.19
   5  -4  -5    0.25    0.22
   4  -4  -5    1.33    0.28
   4  -4  -5    1.30    0.20
   3  -4  -5   18.34    0.89
   3  -4  -5   17.47    0.76
  -3   4   5   17.06    0.88
   2  -4  -5    8.35    0.41
   2  -4  -5    8.34    0.52
  -2   4   5    9.42    0.55
   1  -4  -5   15.16    0.77
  -1   4   5   16.91    0.86
   0  -4  -5  139.18    5.19
  -1  -4  -5   17.35    0.77
   1   4   5   17.10    0.73
  -2  -4  -5    0.20    0.11
   2   4   5    0.31    0.14
   3   4   5   23.69    1.06
   3   4   5   24.50    0.96
   4   4   5   22.67    1.04
   4   4   5   21.71    0.88
   5   4   5    7.91    0.56
   6   4   5    7.62    0.62
   7   4   5   13.38    0.91
   8   4   5    4.39    0.63
   9   4   5   11.68    0.96
  10   4   5   10.28    1.08
  11  -5  -5    5.45    0.75
  10  -5  -5    0.01    0.35
  10  -5  -5    0.71    0.40
   9  -5  -5    0.62    0.38
   9  -5  -5   -0.01    0.31
   8  -5  -5    6.69    0.68
   8  -5  -5    6.41    0.67
   7  -5  -5    2.77    0.42
   7  -5  -5    2.99    0.47
   6  -5  -5   19.66    1.08
   6  -5  -5   20.18    1.01
   5  -5  -5   50.37    2.16
   5  -5  -5   51.12    2.07
   4  -5  -5   29.70    1.39
   4  -5  -5   30.80    1.28
   3  -5  -5   17.24    0.76
   3  -5  -5   17.67    0.90
  -3   5   5   16.18    0.84
   2  -5  -5  299.71   10.85
   2  -5  -5  289.57   10.98
  -2   5   5  304.27   10.99
   1  -5  -5  505.56   18.48
  -1   5   5  507.42   18.55
   0  -5  -5  136.70    5.13
  -1  -5  -5  201.64    7.45
  -2  -5  -5  141.15    5.34
   2   5   5  147.06    5.36
   3   5   5   11.51    0.61
   3   5   5   10.45    0.52
   4   5   5   39.71    1.71
   4   5   5   41.45    1.58
   5   5   5    4.66    0.48
   6   5   5    8.78    0.66
   7   5   5    1.04    0.36
   8   5   5    0.42    0.35
   9   5   5    0.29    0.38
  10   5   5    1.36    0.54
  11  -6  -5    0.47    0.44
  10  -6  -5    9.22    0.90
  10  -6  -5    9.63    0.93
   9  -6  -5   27.82    1.51
   9  -6  -5   28.00    1.52
   8  -6  -5    0.40    0.32
   8  -6  -5   -0.10    0.31
   7  -6  -5   -0.20    0.28
   7  -6  -5   -0.14    0.22
   6  -6  -5    0.37    0.21
   6  -6  -5    0.15    0.28
   5  -6  -5    0.78    0.27
   5  -6  -5    0.15    0.18
   4  -6  -5    2.52    0.39
   4  -6  -5    3.60    0.34
   3  -6  -5    2.60    0.26
   3  -6  -5    2.59    0.38
  -3   6   5    2.22    0.30
   2  -6  -5   49.15    2.07
   2  -6  -5   49.45    1.92
  -2   6   5   48.82    2.03
   1  -6  -5   57.48    2.34
  -1   6   5   57.65    2.38
   0  -6  -5  104.21    4.00
  -1  -6  -5   50.38    2.03
  -2  -6  -5    6.33    0.43
   2   6   5    6.82    0.43
   3   6   5    2.50    0.30
   3   6   5    2.83    0.27
   4   6   5   14.81    0.81
   4   6   5   15.26    0.69
   5   6   5    2.96    0.38
   6   6   5    1.35    0.33
   7   6   5   10.33    0.82
   8   6   5    7.97    0.79
   9   6   5    2.63    0.62
  10  -7  -5    9.16    0.94
  10  -7  -5   11.51    0.95
   9  -7  -5    0.52    0.37
   9  -7  -5    0.79    0.41
   8  -7  -5    8.56    0.73
   8  -7  -5    8.99    0.81
   7  -7  -5    0.17    0.27
   7  -7  -5    0.43    0.27
   6  -7  -5   23.17    1.14
   6  -7  -5   21.88    1.24
   5  -7  -5   38.93    1.80
   5  -7  -5   38.96    1.67
   4  -7  -5   16.48    0.81
   4  -7  -5   16.00    0.93
   3  -7  -5    6.36    0.57
   3  -7  -5    6.22    0.43
  -3   7   5    6.81    0.47
   2  -7  -5   85.52    3.35
  -2   7   5   82.42    3.30
   1  -7  -5  151.78    5.83
  -1   7   5  154.78    5.85
   0  -7  -5   52.19    2.16
  -1  -7  -5  113.03    4.33
   3   7   5   55.99    2.21
   3   7   5   56.40    2.27
   4   7   5   44.38    1.91
   4   7   5   45.75    1.80
   5   7   5   20.02    1.04
   6   7   5    1.23    0.35
   7   7   5    1.65    0.44
   8   7   5    1.69    0.48
   9   7   5    0.52    0.47
  10  -8  -5    5.55    0.73
  10  -8  -5    4.28    0.70
   9  -8  -5   19.07    1.17
   9  -8  -5   17.79    1.22
   8  -8  -5    6.23    0.73
   8  -8  -5    5.66    0.63
   7  -8  -5   10.53    0.83
   7  -8  -5    9.89    0.74
   6  -8  -5   19.30    1.16
   6  -8  -5   18.48    1.02
   5  -8  -5    1.82    0.31
   5  -8  -5    1.04    0.34
   4  -8  -5    6.07    0.47
   4  -8  -5    6.76    0.65
   3  -8  -5    4.67    0.40
   3  -8  -5    4.64    0.51
  -3   8   5    4.76    0.39
   2  -8  -5    8.79    0.64
  -2   8   5    8.32    0.57
   1  -8  -5    0.40    0.25
  -1   8   5    0.56    0.23
   0  -8  -5    3.00    0.39
  -1  -8  -5   22.08    1.08
   3   8   5    0.07    0.16
   3   8   5    0.32    0.20
   4   8   5    6.40    0.46
   4   8   5    7.53    0.57
   5   8   5    1.08    0.32
   6   8   5    0.52    0.32
   7   8   5    9.39    0.82
   8   8   5    9.46    0.89
   9   8   5    6.38    0.79
  10  -9  -5    1.52    0.52
   9  -9  -5    0.87    0.47
   9  -9  -5    1.10    0.41
   8  -9  -5    1.12    0.45
   8  -9  -5    0.76    0.36
   7  -9  -5    5.01    0.57
   7  -9  -5    6.26    0.73
   6  -9  -5    0.77    0.35
   6  -9  -5    0.97    0.31
   5  -9  -5    5.59    0.64
   5  -9  -5    5.43    0.52
   4  -9  -5    0.23    0.20
   4  -9  -5   -0.06    0.29
   3  -9  -5   28.89    1.45
   3  -9  -5   27.94    1.28
  -3   9   5   28.40    1.26
   2  -9  -5   35.66    1.63
  -2   9   5   32.90    1.52
   1  -9  -5   18.35    1.00
  -1   9   5   17.70    0.98
  -1  -9  -5   57.44    2.40
   2   9   5   37.68    1.64
   3   9   5   43.91    1.85
   3   9   5   42.46    1.82
   4   9   5   43.22    1.76
   4   9   5   40.68    1.83
   5   9   5   29.82    1.45
   6   9   5    1.84    0.43
   7   9   5    0.04    0.36
   8   9   5    2.65    0.56
  10 -10  -5    9.84    1.03
   9 -10  -5    7.12    0.88
   9 -10  -5    6.10    0.78
   8 -10  -5   11.20    0.84
   8 -10  -5    8.68    0.91
   7 -10  -5   12.56    1.02
   7 -10  -5   13.27    0.89
   6 -10  -5    4.69    0.68
   6 -10  -5    4.85    0.55
   5 -10  -5    4.62    0.63
   5 -10  -5    4.04    0.46
   4 -10  -5    1.49    0.43
   4 -10  -5    1.58    0.32
   3 -10  -5    7.94    0.57
   3 -10  -5    8.62    0.71
  -3  10   5    7.18    0.52
   2 -10  -5    3.61    0.53
  -2  10   5    3.81    0.45
   1 -10  -5    2.42    0.40
  -1  10   5    2.23    0.38
   0 -10  -5   -0.02    0.17
  -1 -10  -5   40.12    1.81
   2  10   5    1.68    0.31
   3  10   5   11.14    0.71
   3  10   5   11.37    0.72
   4  10   5    0.00    0.28
   4  10   5    0.22    0.20
   5  10   5    0.47    0.32
   6  10   5    0.15    0.28
   7  10   5   -0.23    0.37
   8  10   5    1.84    0.53
   9 -11  -5    2.33    0.62
   8 -11  -5    0.45    0.34
   8 -11  -5   -0.07    0.43
   7 -11  -5    9.17    0.96
   7 -11  -5    9.26    0.76
   6 -11  -5    2.75    0.44
   6 -11  -5    2.47    0.56
   5 -11  -5    1.68    0.48
   5 -11  -5    2.38    0.40
   4 -11  -5    7.60    0.79
   4 -11  -5    6.61    0.59
   3 -11  -5   35.14    1.75
   2 -11  -5   28.02    1.44
  -2  11   5   26.05    1.30
   1 -11  -5   16.37    1.04
  -1  11   5   15.84    0.96
   0 -11  -5   45.85    2.08
  -1 -11  -5   16.69    1.00
   2  11   5   76.28    3.11
   3  11   5   43.35    1.90
   4  11   5   19.04    1.06
   4  11   5   17.97    0.97
   5  11   5   20.69    1.15
   6  11   5    2.99    0.52
   7  11   5    4.06    0.65
   8  11   5    0.70    0.50
   9 -12  -5    5.73    0.85
   8 -12  -5    8.30    0.98
   7 -12  -5   10.51    0.83
   7 -12  -5   11.59    1.03
   6 -12  -5    3.60    0.62
   6 -12  -5    4.75    0.58
   5 -12  -5   20.50    1.14
   5 -12  -5   21.25    1.34
   4 -12  -5   -0.02    0.34
   4 -12  -5    0.01    0.26
   3 -12  -5    0.26    0.38
   2 -12  -5    1.73    0.47
   1 -12  -5    0.61    0.35
  -1  12   5    0.45    0.29
   0 -12  -5   14.61    1.00
   2  12   5   26.01    1.32
   3  12   5   24.57    1.25
   4  12   5    0.79    0.35
   4  12   5    1.05    0.31
   5  12   5    1.13    0.40
   6  12   5   -0.07    0.31
   7  12   5    0.05    0.44
   9 -13  -5    1.81    0.63
   8 -13  -5    7.00    0.93
   7 -13  -5    0.98    0.52
   7 -13  -5    2.08    0.48
   6 -13  -5    1.45    0.41
   6 -13  -5    0.71    0.44
   5 -13  -5    1.40    0.37
   5 -13  -5    1.64    0.54
   4 -13  -5    1.78    0.52
   4 -13  -5    1.69    0.39
   3 -13  -5   11.95    1.00
   2 -13  -5    1.31    0.44
   1 -13  -5   35.02    1.80
   0 -13  -5   15.93    1.08
   1  13   5   17.97    1.09
   2  13   5   21.15    1.18
   3  13   5   27.58    1.40
   4  13   5   38.32    1.81
   4  13   5   37.16    1.74
   5  13   5   20.46    1.20
   6  13   5    9.21    0.86
   8 -14  -5   10.04    1.09
   7 -14  -5    7.56    0.97
   6 -14  -5   11.75    1.05
   6 -14  -5   11.62    0.92
   5 -14  -5    2.93    0.49
   5 -14  -5    3.47    0.67
   4 -14  -5    1.90    0.52
   3 -14  -5    3.82    0.67
   2 -14  -5    7.54    0.85
   1 -14  -5    5.82    0.77
   0 -14  -5    1.36    0.48
   1  14   5    2.30    0.49
   2  14   5    2.58    0.48
   3  14   5    1.00    0.36
   4  14   5    0.96    0.41
   5  14   5    5.15    0.66
   6  14   5   -0.74    0.37
   7 -15  -5   12.83    1.15
   6 -15  -5    4.09    0.77
   5 -15  -5    0.97    0.39
   5 -15  -5    0.88    0.48
   4 -15  -5    0.27    0.46
   3 -15  -5    6.23    0.83
   2 -15  -5    3.93    0.70
   1 -15  -5    0.75    0.49
   1  15   5   22.41    1.33
   2  15   5   15.02    1.01
   3  15   5    9.33    0.76
   4  15   5   12.19    0.93
   5  15   5   10.83    0.91
   6 -16  -5   17.04    1.33
   5 -16  -5    7.65    0.97
   4 -16  -5    3.86    0.71
   3 -16  -5   13.40    1.13
   2 -16  -5    0.18    0.47
   1 -16  -5    0.44    0.45
   0  16   5   -0.11    0.35
   1  16   5    0.83    0.37
   2  16   5    1.47    0.42
   3  16   5    0.20    0.28
   4  16   5    2.69    0.52
   5 -17  -5   -0.05    0.51
   4 -17  -5   14.92    1.31
   3 -17  -5    1.00    0.53
   2 -17  -5   -0.30    0.50
   0  17   5    1.99    0.55
   1  17   5    7.51    0.82
   2  17   5    2.58    0.50
   3  17   5    9.19    0.82
   4 -18  -5    7.24    0.99
   3 -18  -5    1.72    0.67
  -1  18   5    1.54    0.55
   0  18   5    0.07    0.43
   1  18   5   -0.38    0.26
   3  18  -6    1.81    0.52
   2  18  -6    3.44    0.64
   1  18  -6    0.03    0.39
   0  18  -6    3.42    0.69
  -1  18  -6    3.45    0.66
  -2  18  -6    2.28    0.61
  -3  18  -6    2.76    0.65
   4  17  -6   25.71    1.50
   3  17  -6   11.66    0.96
   2  17  -6    4.68    0.66
   1  17  -6    4.86    0.70
   0  17  -6    0.94    0.50
  -1  17  -6    1.17    0.51
  -2  17  -6   -0.07    0.44
  -3  17  -6    2.55    0.65
   3 -17   6    2.23    0.63
  -4  17  -6    0.28    0.51
   4 -17   6   -0.11    0.50
   5  16  -6    2.84    0.60
   4  16  -6    0.87    0.45
   3  16  -6    0.07    0.40
   2  16  -6    0.37    0.36
   1  16  -6   -0.05    0.34
   0  16  -6    0.79    0.40
  -1  16  -6    4.80    0.68
  -2  16  -6   -0.47    0.40
  -3  16  -6    0.04    0.39
   3 -16   6    0.72    0.47
  -4  16  -6   12.32    1.10
   4 -16   6   12.91    1.23
   5 -16   6    5.14    0.88
  -6  16  -6    9.24    1.03
   6  15  -6    9.29    0.95
   5  15  -6   15.51    1.10
   4  15  -6   25.31    1.44
   3  15  -6   21.22    1.24
   2  15  -6   15.73    1.06
   1  15  -6   14.84    1.01
   0  15  -6    8.25    0.83
  -1  15  -6    4.72    0.65
  -2  15  -6    1.26    0.48
   2 -15   6    1.27    0.50
  -3  15  -6   -0.18    0.40
   3 -15   6    0.43    0.43
  -4  15  -6    0.70    0.45
   4 -15   6    0.94    0.50
  -5  15  -6    0.77    0.49
   5 -15   6    0.67    0.49
  -6  15  -6    0.49    0.47
   6 -15   6    0.58    0.55
   7  14  -6   -0.30    0.38
   7  14  -6   -0.39    0.38
   6  14  -6    0.34    0.44
   5  14  -6    3.65    0.58
   4  14  -6    3.90    0.54
   3  14  -6    1.52    0.40
   2  14  -6    2.19    0.44
   1  14  -6   -0.04    0.29
   0  14  -6    0.11    0.36
  -1  14  -6    4.35    0.65
  -2  14  -6    1.29    0.47
   2 -14   6    1.67    0.50
  -3  14  -6   14.37    1.07
   3 -14   6   14.90    1.13
  -4  14  -6    4.51    0.65
   4 -14   6    7.64    0.91
  -5  14  -6    6.69    0.75
   5 -14   6    6.54    0.87
  -6  14  -6    8.15    0.87
   6 -14   6    7.63    0.96
   7 -14   6   14.77    1.28
   8  13  -6    3.59    0.70
   8  13  -6    3.90    0.71
   7  13  -6    2.76    0.55
   7  13  -6    2.88    0.60
   6  13  -6   11.86    0.97
   5  13  -6   29.71    1.54
   4  13  -6   24.76    1.32
   3  13  -6   15.35    0.99
   2  13  -6   17.55    1.03
   1  13  -6   11.98    0.86
   0  13  -6   44.87    2.07
  -1  13  -6   29.23    1.50
   1 -13   6   29.01    1.55
  -2  13  -6   14.52    0.98
   2 -13   6   14.94    1.06
  -3  13  -6    0.10    0.37
   3 -13   6    0.23    0.39
  -4  13  -6    0.14    0.37
   4 -13   6    0.45    0.38
  -5  13  -6    0.05    0.37
   5 -13   6    0.27    0.37
  -6  13  -6    3.17    0.58
   6 -13   6    3.64    0.74
   7 -13   6    2.68    0.69
   8 -13   6    3.64    0.83
   8  12  -6   -0.03    0.42
   8  12  -6    0.45    0.47
   7  12  -6    1.13    0.44
   7  12  -6    0.57    0.44
   6  12  -6    0.03    0.36
   5  12  -6    1.82    0.45
   4  12  -6    5.79    0.63
   3  12  -6   26.88    1.37
   2  12  -6    3.07    0.45
   1  12  -6    1.86    0.40
   0  12  -6    6.86    0.63
  -1  12  -6    4.08    0.52
   1 -12   6    4.22    0.56
  -2  12  -6    4.14    0.56
   2 -12   6    2.78    0.50
  -3  12  -6    4.18    0.57
   3 -12   6    4.71    0.63
  -4  12  -6    2.61    0.50
   4 -12   6    2.15    0.51
  -5  12  -6    2.43    0.49
   5 -12   6    2.03    0.53
  -6  12  -6    6.18    0.71
   6 -12   6    7.32    0.89
   7 -12   6    5.63    0.88
   8 -12   6   11.78    1.24
   9  11  -6    2.07    0.57
   8  11  -6    4.03    0.64
   8  11  -6    3.55    0.66
   7  11  -6   12.00    0.90
   7  11  -6   12.05    0.96
   6  11  -6   18.10    1.13
   5  11  -6   23.53    1.25
   4  11  -6   38.23    1.77
   3  11  -6   39.25    1.77
   2  11  -6   46.89    2.04
   1  11  -6   47.16    2.05
   0  11  -6   46.82    2.06
  -1  11  -6   19.42    1.07
   1 -11   6   18.06    1.10
  -2  11  -6   14.56    0.90
   2 -11   6   14.70    1.00
   3 -11   6    8.36    0.81
  -4  11  -6    1.38    0.40
   4 -11   6    0.61    0.36
  -5  11  -6    1.80    0.40
   5 -11   6    2.37    0.56
  -6  11  -6    0.57    0.37
   6 -11   6    0.46    0.40
   7 -11   6    0.35    0.47
   8 -11   6    1.73    0.60
   9  10  -6    2.14    0.55
   8  10  -6    3.35    0.55
   8  10  -6    2.39    0.61
   7  10  -6    5.18    0.61
   7  10  -6    4.85    0.67
   6  10  -6    1.78    0.45
   5  10  -6    1.52    0.38
   4  10  -6    1.87    0.36
   3  10  -6    2.40    0.38
   2  10  -6   11.93    0.74
   1  10  -6    3.79    0.43
   0  10  -6   22.60    1.14
  -1  10  -6    2.88    0.40
   1 -10   6    2.93    0.43
  -2  10  -6    1.46    0.34
   2 -10   6    1.11    0.34
  -3  10  -6    0.18    0.27
   3 -10   6    0.05    0.28
  -4  10  -6   -0.12    0.26
   4 -10   6    0.41    0.35
  -5  10  -6    2.94    0.46
   5 -10   6    2.14    0.50
  -6  10  -6    1.17    0.37
   6 -10   6    1.65    0.51
   7 -10   6    8.24    0.92
   8 -10   6    8.08    1.00
   9 -10   6    9.32    1.12
   9   9  -6   -0.74    0.35
   8   9  -6    0.64    0.46
   8   9  -6    0.54    0.34
   7   9  -6   11.62    0.85
   7   9  -6   12.42    0.94
   6   9  -6   19.03    1.12
   5   9  -6   10.04    0.72
   4   9  -6   39.56    1.75
   3   9  -6   50.16    2.11
   2   9  -6   58.48    2.39
   1   9  -6  173.06    6.53
   0   9  -6  100.09    3.86
   0  -9   6   97.87    3.91
  -1   9  -6   32.57    1.48
   1  -9   6   32.00    1.53
   2  -9   6   13.05    0.86
  -3   9  -6    6.55    0.55
   3  -9   6    4.98    0.58
  -4   9  -6   21.23    1.08
   4  -9   6   19.22    1.20
  -5   9  -6    1.27    0.34
   5  -9   6    1.43    0.43
   6  -9   6    0.27    0.40
   7  -9   6    0.74    0.45
   8  -9   6    0.12    0.46
   9  -9   6    0.28    0.44
  10   8  -6    6.80    0.81
   9   8  -6    0.75    0.43
   8   8  -6    3.61    0.66
   8   8  -6    3.89    0.58
   7   8  -6    1.13    0.37
   7   8  -6    1.18    0.43
   6   8  -6    1.71    0.34
   6   8  -6    1.00    0.37
   5   8  -6    0.73    0.29
   4   8  -6    7.25    0.55
   3   8  -6    1.94    0.31
   2   8  -6    0.25    0.20
   1   8  -6   64.90    2.60
   0   8  -6   13.90    0.75
   0  -8   6   13.71    0.79
  -1   8  -6   18.24    0.94
   1  -8   6   18.91    0.99
  -2   8  -6   -0.02    0.19
   2  -8   6   -0.32    0.21
  -3   8  -6    0.60    0.24
   3  -8   6    0.26    0.28
   3  -8   6    0.51    0.17
  -4   8  -6    0.36    0.25
   4  -8   6    0.54    0.34
  -5   8  -6    0.14    0.25
   5  -8   6    0.39    0.35
   6  -8   6   17.14    1.17
   7  -8   6    2.84    0.61
   8  -8   6    3.75    0.63
   9  -8   6    4.86    0.77
  10   7  -6    0.42    0.39
   9   7  -6    4.04    0.60
   9   7  -6    4.33    0.64
   8   7  -6    0.33    0.39
   8   7  -6    0.39    0.32
   7   7  -6    1.35    0.38
   7   7  -6    1.49    0.47
   6   7  -6   11.57    0.81
   6   7  -6   10.12    0.69
   5   7  -6   33.84    1.56
   4   7  -6    7.58    0.57
   3   7  -6   36.67    1.58
   2   7  -6   58.32    2.34
   1   7  -6   78.39    3.05
   0   7  -6  292.98   10.82
   0  -7   6  294.96   10.87
  -1   7  -6   56.57    2.27
  -2   7  -6   46.59    1.94
   2  -7   6   46.16    1.90
   2  -7   6   48.31    2.03
  -3   7  -6   46.33    1.93
   3  -7   6   47.41    2.06
   3  -7   6   46.07    1.91
  -4   7  -6   22.68    1.08
   4  -7   6   20.93    1.22
   4  -7   6   23.71    1.11
   5  -7   6    9.29    0.80
   6  -7   6   -0.06    0.30
   7  -7   6    3.73    0.65
   8  -7   6    0.43    0.45
   9  -7   6   -0.41    0.36
  10   6  -6   10.98    0.97
   9   6  -6    6.02    0.69
   9   6  -6    5.44    0.67
   8   6  -6   17.02    1.02
   8   6  -6   15.66    1.06
   7   6  -6   13.11    0.84
   7   6  -6   12.83    0.95
   6   6  -6    4.91    0.56
   6   6  -6    5.35    0.48
   5   6  -6    0.33    0.26
   4   6  -6    0.63    0.24
   3   6  -6   32.85    1.42
   2   6  -6   11.40    0.62
   1   6  -6  148.54    5.55
   0   6  -6   18.82    0.89
   0  -6   6   19.88    0.94
  -1   6  -6   37.42    1.69
   1  -6   6   45.84    1.81
   1  -6   6   42.66    1.74
  -2   6  -6   24.16    1.10
   2  -6   6   24.62    1.12
   2  -6   6   25.41    1.20
  -3   6  -6    1.67    0.26
   3  -6   6    2.24    0.35
   3  -6   6    1.96    0.31
  -4   6  -6   -0.10    0.16
   4  -6   6    0.50    0.28
   4  -6   6    0.10    0.23
   5  -6   6    1.09    0.32
   5  -6   6    0.55    0.30
   6  -6   6   10.08    0.82
   7  -6   6    9.92    0.95
   8  -6   6    0.89    0.42
   9  -6   6    7.74    0.90
  10  -6   6    7.15    0.95
  10   5  -6    0.30    0.39
   9   5  -6   -0.32    0.30
   9   5  -6    0.03    0.32
   8   5  -6    0.54    0.36
   8   5  -6    0.35    0.28
   7   5  -6    5.68    0.62
   7   5  -6    2.85    0.40
   6   5  -6    1.30    0.37
   5   5  -6   21.15    1.08
   4   5  -6   57.92    2.36
   3   5  -6  178.43    6.66
   2   5  -6   15.87    0.77
   1   5  -6   50.36    1.99
   0   5  -6   87.51    3.34
   0  -5   6   89.30    3.39
   0  -5   6   87.17    3.43
  -1   5  -6   63.26    2.40
   1  -5   6   60.29    2.46
   1  -5   6   61.17    2.47
  -2   5  -6  190.63    6.87
   2  -5   6  183.05    6.97
   2  -5   6  183.24    6.96
  -3   5  -6  106.03    3.96
   3  -5   6  104.63    4.09
   3  -5   6  103.33    4.09
  -4   5  -6   54.86    2.16
   4  -5   6   55.28    2.30
   4  -5   6   53.36    2.33
   5  -5   6   18.32    1.05
   6  -5   6    4.44    0.57
   7  -5   6   12.28    0.93
   8  -5   6    1.10    0.47
   9  -5   6    0.54    0.41
  10  -5   6    0.03    0.48
  11   4  -6    2.26    0.53
  10   4  -6    0.15    0.21
   8   4  -6   27.54    1.41
   7   4  -6   28.66    1.36
   7   4  -6   29.31    1.44
   6   4  -6    9.31    0.59
   6   4  -6    8.22    0.68
   5   4  -6    6.15    0.44
   5   4  -6    6.01    0.57
   4   4  -6   13.31    0.74
   3   4  -6    8.50    0.54
   2   4  -6   11.63    0.60
   1   4  -6   71.77    2.74
   0  -4   6    3.42    0.30
   0  -4   6    2.90    0.34
  -1   4  -6   30.38    1.22
   1  -4   6   29.39    1.30
   1  -4   6   30.30    1.34
  -2   4  -6   26.07    1.09
   2  -4   6   25.84    1.23
  -3   4  -6   18.97    0.83
   3  -4   6   18.46    0.98
   3  -4   6   19.02    0.98
  -4   4  -6   50.53    1.99
   4  -4   6   51.70    2.19
   5  -4   6    0.15    0.23
   6  -4   6    3.56    0.52
   7  -4   6    0.31    0.36
   8  -4   6    1.42    0.45
   9  -4   6    3.01    0.60
  10  -4   6    4.82    0.78
  11   3  -6    1.43    0.48
  10   3  -6    0.35    0.35
   9   3  -6    8.82    0.76
   9   3  -6    9.74    0.78
   8   3  -6    0.26    0.31
   8   3  -6   -0.12    0.25
   7   3  -6    0.45    0.24
   7   3  -6    0.49    0.29
   6   3  -6    1.58    0.26
   6   3  -6    2.29    0.39
   5   3  -6    0.34    0.17
   5   3  -6    0.39    0.26
   4   3  -6   12.40    0.61
   4   3  -6   11.64    0.72
   3   3  -6   72.21    2.83
   2   3  -6  162.05    6.02
   1   3  -6  294.24   10.80
  -1  -3   6  297.42   10.80
   0   3  -6   28.18    1.15
   0  -3   6   28.70    1.28
   0  -3   6   28.48    1.19
  -1   3  -6  146.58    5.28
   1  -3   6  143.29    5.36
   1  -3   6  140.02    5.44
  -2   3  -6  338.06   12.30
   2  -3   6  340.85   12.51
   2  -3   6  337.00   12.43
  -3   3  -6  152.66    5.68
   3  -3   6  157.19    5.87
  -4   3  -6   43.71    1.70
   4  -3   6   44.26    1.91
  -5   3  -6   10.09    0.50
   5  -3   6   11.12    0.76
   6  -3   6    7.67    0.74
   7  -3   6   24.90    1.41
   8  -3   6    4.90    0.69
   9  -3   6    1.25    0.48
  10  -3   6    0.46    0.49
  11   2  -6    6.28    0.78
  10   2  -6   17.49    1.15
   9   2  -6   25.93    1.34
   9   2  -6   26.29    1.39
   8   2  -6   25.00    1.27
   8   2  -6   23.44    1.23
   7   2  -6   17.60    0.93
   7   2  -6   16.97    0.97
   6   2  -6   18.57    0.89
   6   2  -6   16.96    0.94
   5   2  -6   34.13    1.37
   5   2  -6   30.60    1.46
   4   2  -6   14.13    0.77
   4   2  -6   13.23    0.64
   3   2  -6   23.43    1.08
   2   2  -6   21.13    0.95
   1   2  -6   22.82    0.95
  -1  -2   6   21.01    1.05
  -1  -2   6   22.72    0.92
   0   2  -6    3.66    0.25
   0  -2   6    3.97    0.27
  -1   2  -6   24.70    0.99
   1  -2   6   25.64    1.19
   1  -2   6   24.47    1.07
  -2   2  -6   -0.03    0.08
   2  -2   6    0.06    0.19
   2  -2   6   -0.01    0.15
  -3   2  -6  101.97    3.77
   3  -2   6  103.96    3.98
  -4   2  -6    7.07    0.34
   4  -2   6    6.65    0.56
   5  -2   6    8.95    0.66
   6  -2   6    3.17    0.51
   7  -2   6    0.21    0.32
   8  -2   6    2.54    0.54
   9  -2   6    2.45    0.59
  10  -2   6    4.10    0.78
  11   1  -6   -0.32    0.41
  10   1  -6    6.40    0.73
   9   1  -6    1.17    0.35
   9   1  -6    1.20    0.40
   8   1  -6    8.02    0.65
   8   1  -6    7.46    0.63
   7   1  -6    7.49    0.61
   7   1  -6    7.43    0.56
   6   1  -6    0.15    0.22
   6   1  -6    0.02    0.16
   5   1  -6    0.71    0.24
   5   1  -6    0.41    0.15
   4   1  -6   12.33    0.57
   4   1  -6   11.84    0.68
   3   1  -6   28.83    1.13
   3   1  -6   28.23    1.25
   2   1  -6   79.33    2.98
  -2  -1   6   74.30    3.06
   1   1  -6    3.80    0.33
  -1  -1   6    5.67    0.27
  -1  -1   6    5.04    0.44
   0   1  -6    6.17    0.34
   0  -1   6    5.53    0.32
   0  -1   6    5.86    0.46
  -1   1  -6  414.70   15.12
   1  -1   6  420.71   15.20
  -2   1  -6  201.25    7.44
   2  -1   6  209.47    7.60
  -3   1  -6  231.42    8.53
   3  -1   6  240.81    8.75
   4  -1   6  115.76    4.47
   5  -1   6    2.48    0.39
   6  -1   6   15.74    0.95
   7  -1   6   17.72    1.09
   8  -1   6    6.43    0.79
   9  -1   6    4.08    0.72
  10  -1   6   -0.22    0.46
  11   0  -6    8.32    0.92
  10   0  -6   20.49    1.27
  10   0  -6   20.50    1.26
   9   0  -6   14.71    1.01
   9   0  -6   15.77    0.97
   8   0  -6   24.46    1.24
   8   0  -6   22.85    1.22
   7   0  -6   42.20    1.85
   7   0  -6   43.23    1.87
   6   0  -6   18.65    0.93
   6   0  -6   20.00    1.01
   5   0  -6   35.62    1.55
   5   0  -6   35.03    1.46
   4   0  -6   47.09    1.80
   4   0  -6   45.17    1.91
   3   0  -6    7.25    0.34
   3   0  -6    7.15    0.47
   2   0  -6   58.04    2.36
  -2   0   6   63.67    2.49
  -1   0   6   56.30    2.26
  -1   0   6   53.55    2.02
   0   0  -6   37.72    1.45
   0   0   6   36.51    1.41
   0   0   6   36.19    1.61
  -1   0  -6   30.10    1.17
   1   0   6   31.22    1.23
   1   0   6   29.37    1.38
  -2   0  -6   96.34    3.62
   2   0   6  102.79    3.76
   3   0   6    0.97    0.22
   4   0   6   -0.13    0.16
   5   0   6    2.07    0.33
   6   0   6    2.30    0.43
   7   0   6    0.10    0.29
   8   0   6    0.50    0.39
   9   0   6    3.23    0.65
  10   0   6    0.66    0.54
  11  -1  -6    0.11    0.45
  10  -1  -6    0.93    0.35
  10  -1  -6    0.92    0.43
   9  -1  -6    3.03    0.52
   9  -1  -6    4.28    0.54
   8  -1  -6    4.19    0.51
   8  -1  -6    3.44    0.48
   7  -1  -6    6.53    0.56
   7  -1  -6    6.09    0.53
   6  -1  -6    5.44    0.47
   6  -1  -6    5.13    0.43
   5  -1  -6    1.43    0.22
   5  -1  -6    1.78    0.30
   4  -1  -6    8.39    0.45
   4  -1  -6    9.09    0.57
   3  -1  -6   39.36    1.63
   3  -1  -6   39.17    1.50
   2  -1  -6   47.97    1.80
   2  -1  -6   49.42    1.95
  -2   1   6   50.18    2.05
  -1   1   6    0.88    0.24
   0  -1  -6    2.87    0.23
   0   1   6    2.64    0.19
   0   1   6    2.83    0.38
  -1  -1  -6   82.00    2.96
   1   1   6   78.27    3.18
   1   1   6   79.05    2.99
  -2  -1  -6  181.39    6.51
   2   1   6  177.84    6.63
   3   1   6  151.81    5.67
   4   1   6   55.85    2.27
   5   1   6   89.32    3.53
   6   1   6   51.07    2.22
   7   1   6   19.52    1.15
   8   1   6    4.36    0.60
   9   1   6    4.39    0.71
  10   1   6    1.66    0.57
  11  -2  -6    6.71    0.86
  10  -2  -6    7.96    0.72
  10  -2  -6    6.30    0.76
   9  -2  -6   13.37    0.97
   9  -2  -6   15.28    0.95
   8  -2  -6   30.44    1.54
   8  -2  -6   32.83    1.54
   7  -2  -6   33.17    1.59
   7  -2  -6   37.20    1.63
   6  -2  -6   33.94    1.56
   6  -2  -6   38.84    1.64
   5  -2  -6   49.22    2.01
   5  -2  -6   51.34    2.10
   4  -2  -6   37.83    1.60
   4  -2  -6   36.68    1.49
   3  -2  -6   21.79    1.01
   3  -2  -6   21.99    0.89
  -3   2   6   21.85    1.09
   2  -2  -6    1.06    0.08
   2  -2  -6    1.61    0.24
  -2   2   6    1.26    0.26
  -1   2   6   26.26    0.95
  -1   2   6   24.90    1.20
   0  -2  -6    8.87    0.44
   0   2   6    9.13    0.60
   0   2   6    8.30    0.38
  -1  -2  -6   42.73    1.62
   1   2   6   41.73    1.63
  -2  -2  -6   13.24    0.54
   2   2   6   13.18    0.63
   3   2   6   11.83    0.63
   4   2   6    2.14    0.29
   5   2   6    4.02    0.46
   6   2   6    3.70    0.48
   7   2   6    9.55    0.78
   8   2   6    0.19    0.37
   9   2   6    0.43    0.43
  10   2   6    3.02    0.70
  11  -3  -6    0.14    0.40
  10  -3  -6    3.43    0.60
  10  -3  -6    3.28    0.54
   9  -3  -6    1.71    0.45
   9  -3  -6    1.97    0.42
   8  -3  -6   10.14    0.78
   8  -3  -6   12.09    0.83
   7  -3  -6    1.23    0.33
   7  -3  -6    1.70    0.36
   6  -3  -6   10.12    0.68
   6  -3  -6    9.98    0.64
   5  -3  -6   24.88    1.11
   5  -3  -6   24.05    1.17
   4  -3  -6   26.34    1.11
   4  -3  -6   26.77    1.22
   3  -3  -6   22.07    1.01
   3  -3  -6   20.78    0.86
  -3   3   6   21.82    1.07
   2  -3  -6   43.60    1.63
   2  -3  -6   44.85    1.79
  -2   3   6   43.12    1.85
  -1   3   6   84.39    3.35
   0  -3  -6   50.26    1.97
   0   3   6   49.61    1.88
   0   3   6   51.75    2.14
  -1  -3  -6   24.70    1.01
   1   3   6   23.93    0.98
  -2  -3  -6  213.10    7.76
   2   3   6  212.66    7.82
   3   3   6   48.22    1.78
   3   3   6   47.85    1.93
   4   3   6   54.37    2.21
   5   3   6   70.25    2.84
   6   3   6   33.13    1.57
   7   3   6   25.02    1.34
   8   3   6    6.90    0.75
   9   3   6    6.05    0.73
  10   3   6    4.92    0.78
  11  -4  -6    7.24    0.87
  10  -4  -6    7.42    0.81
  10  -4  -6    6.58    0.74
   9  -4  -6   23.25    1.31
   9  -4  -6   22.83    1.30
   8  -4  -6   26.34    1.38
   8  -4  -6   26.40    1.38
   7  -4  -6   23.79    1.19
   7  -4  -6   22.10    1.20
   6  -4  -6   69.98    2.76
   6  -4  -6   67.02    2.82
   5  -4  -6   57.28    2.23
   5  -4  -6   54.20    2.33
   4  -4  -6  169.51    6.54
   4  -4  -6  177.07    6.40
   3  -4  -6   68.66    2.60
   3  -4  -6   70.20    2.77
  -3   4   6   69.35    2.79
   2  -4  -6    0.98    0.23
   2  -4  -6    0.97    0.12
  -2   4   6    0.96    0.23
  -1   4   6    8.70    0.60
   0  -4  -6    0.91    0.19
   0   4   6    0.86    0.24
  -1  -4  -6   17.59    0.78
   1   4   6   16.71    0.74
  -2  -4  -6    3.22    0.25
   2   4   6    2.47    0.25
   3   4   6   13.87    0.59
   3   4   6   13.86    0.70
   4   4   6   32.61    1.25
   4   4   6   32.68    1.42
   5   4   6    0.65    0.27
   6   4   6   27.05    1.35
   7   4   6    6.16    0.66
   8   4   6   -0.52    0.32
   9   4   6   -0.07    0.38
  10   4   6    0.46    0.46
  10  -5  -6    0.30    0.37
  10  -5  -6    0.38    0.38
   9  -5  -6    2.90    0.53
   8  -5  -6    3.04    0.47
   8  -5  -6    3.19    0.52
   7  -5  -6    7.47    0.59
   7  -5  -6    7.24    0.66
   6  -5  -6   10.21    0.65
   6  -5  -6   11.41    0.77
   5  -5  -6   21.42    1.12
   5  -5  -6   21.95    1.00
   4  -5  -6   13.78    0.80
   4  -5  -6   12.78    0.64
   3  -5  -6   -0.02    0.20
   3  -5  -6   -0.01    0.10
  -3   5   6    0.01    0.16
   2  -5  -6   35.41    1.55
  -2   5   6   35.49    1.57
   1  -5  -6   24.31    1.11
   0  -5  -6   21.39    0.97
   0   5   6   20.43    1.07
  -1  -5  -6   56.52    2.26
   1   5   6   58.30    2.21
  -2  -5  -6   48.83    1.93
   2   5   6   49.40    1.94
   3   5   6   20.09    0.81
   3   5   6   17.50    0.88
   4   5   6   71.05    2.68
   4   5   6   72.07    2.84
   5   5   6   89.69    3.55
   6   5   6   42.43    1.90
   7   5   6   17.34    1.07
   8   5   6   10.34    0.91
   9   5   6    7.72    0.84
  10  -6  -6    6.13    0.72
  10  -6  -6    5.86    0.76
   9  -6  -6    7.01    0.77
   9  -6  -6    8.18    0.74
   8  -6  -6   31.58    1.63
   8  -6  -6   31.13    1.53
   7  -6  -6   35.84    1.60
   7  -6  -6   33.54    1.70
   6  -6  -6   52.57    2.31
   6  -6  -6   52.24    2.17
   5  -6  -6   45.18    1.82
   5  -6  -6   42.58    1.96
   4  -6  -6   69.39    2.68
   4  -6  -6   68.90    2.85
   3  -6  -6  101.71    3.99
   3  -6  -6  100.95    3.82
  -3   6   6  102.18    3.95
   2  -6  -6   21.56    1.08
  -2   6   6   22.43    1.10
   1  -6  -6   22.09    1.12
  -1   6   6   26.09    1.24
   0  -6  -6   11.67    0.66
  -1  -6  -6    4.19    0.39
  -2  -6  -6    7.52    0.48
   2   6   6    8.29    0.48
   3   6   6    3.47    0.29
   3   6   6    2.93    0.33
   4   6   6   -0.07    0.19
   4   6   6    0.07    0.12
   5   6   6    4.53    0.49
   6   6   6    1.86    0.39
   7   6   6    3.31    0.49
   8   6   6    0.53    0.43
   9   6   6    0.07    0.47
  10  -7  -6   -0.24    0.35
   9  -7  -6   -0.02    0.36
   9  -7  -6    0.35    0.34
   8  -7  -6   -0.06    0.33
   8  -7  -6   -0.20    0.24
   7  -7  -6    8.17    0.64
   7  -7  -6    6.96    0.72
   6  -7  -6   64.79    2.85
   6  -7  -6   68.12    2.71
   5  -7  -6   28.50    1.27
   5  -7  -6   28.30    1.44
   4  -7  -6   15.05    0.91
   4  -7  -6   14.26    0.74
   3  -7  -6   11.69    0.78
   3  -7  -6   11.10    0.59
  -3   7   6   11.70    0.69
   2  -7  -6   30.03    1.42
  -2   7   6   30.46    1.41
   1  -7  -6   12.91    0.77
  -1   7   6   14.26    0.85
   0  -7  -6    0.43    0.22
  -1  -7  -6   19.16    0.95
  -2  -7  -6    9.92    0.59
   2   7   6   10.03    0.57
   3   7   6   17.65    0.90
   3   7   6   18.67    0.85
   4   7   6   53.61    2.21
   4   7   6   53.47    2.10
   5   7   6   37.68    1.69
   6   7   6   38.32    1.77
   7   7   6   14.78    1.01
   8   7   6   16.82    1.16
   9   7   6   12.21    1.13
  10  -8  -6    3.65    0.67
   9  -8  -6    1.40    0.41
   9  -8  -6    1.77    0.52
   8  -8  -6    4.76    0.67
   8  -8  -6    4.17    0.54
   7  -8  -6    8.67    0.67
   7  -8  -6    9.70    0.81
   6  -8  -6   44.62    2.08
   6  -8  -6   44.15    1.92
   5  -8  -6   56.63    2.36
   5  -8  -6   59.76    2.56
   4  -8  -6   46.74    2.14
   4  -8  -6   49.08    1.97
  -4   8   6   47.75    2.02
   3  -8  -6   59.45    2.31
   3  -8  -6   56.27    2.48
  -3   8   6   58.46    2.39
   2  -8  -6   82.29    3.27
  -2   8   6   78.32    3.22
   1  -8  -6   12.36    0.81
  -1   8   6   13.94    0.84
   0  -8  -6   50.17    2.12
  -1  -8  -6    0.24    0.21
  -2  -8  -6    0.32    0.21
   2   8   6    0.52    0.19
   3   8   6    3.30    0.38
   3   8   6    4.08    0.39
   4   8   6    2.80    0.30
   4   8   6    2.21    0.36
   5   8   6    0.23    0.25
   6   8   6    3.52    0.53
   7   8   6    0.72    0.38
   8   8   6   -0.24    0.38
   9   8   6    0.04    0.43
  10  -9  -6    0.09    0.41
   9  -9  -6    3.18    0.63
   8  -9  -6    0.12    0.29
   8  -9  -6    0.05    0.40
   7  -9  -6    0.32    0.26
   7  -9  -6    0.30    0.37
   6  -9  -6    5.16    0.64
   6  -9  -6    5.85    0.55
   5  -9  -6    0.19    0.29
   5  -9  -6    0.81    0.26
   4  -9  -6   49.27    2.04
   4  -9  -6   49.05    2.23
  -4   9   6   49.06    2.05
   3  -9  -6    0.03    0.17
   3  -9  -6   -0.10    0.25
  -3   9   6    0.46    0.20
   2  -9  -6    1.68    0.39
  -2   9   6    1.54    0.33
   1  -9  -6   10.43    0.74
  -1   9   6   10.05    0.74
   0  -9  -6    3.64    0.47
  -1  -9  -6    2.16    0.35
   3   9   6   44.89    1.90
   3   9   6   44.26    1.87
   4   9   6   15.66    0.81
   4   9   6   16.37    0.92
   5   9   6    7.99    0.65
   6   9   6   15.14    0.99
   7   9   6   23.25    1.35
   8   9   6   15.03    1.14
  10 -10  -6   -0.15    0.44
   9 -10  -6    6.27    0.83
   8 -10  -6    2.13    0.55
   8 -10  -6    1.43    0.61
   7 -10  -6   20.04    1.30
   7 -10  -6   19.57    1.12
   6 -10  -6   15.16    0.90
   6 -10  -6   13.48    1.05
   5 -10  -6   38.92    1.70
   5 -10  -6   36.44    1.88
   4 -10  -6   27.89    1.51
   4 -10  -6   27.88    1.30
   3 -10  -6   21.56    1.25
  -3  10   6   23.31    1.11
   2 -10  -6   55.16    2.40
  -2  10   6   53.32    2.32
   1 -10  -6   77.71    3.26
  -1  10   6   80.02    3.28
   0 -10  -6   11.22    0.77
  -1 -10  -6    0.25    0.25
   2  10   6    3.88    0.45
   3  10   6    0.58    0.26
   3  10   6   -0.21    0.19
   4  10   6    1.10    0.28
   4  10   6    1.21    0.35
   5  10   6    0.63    0.35
   6  10   6    2.41    0.46
   7  10   6    1.82    0.49
   8  10   6    0.57    0.47
   9 -11  -6    0.79    0.48
   8 -11  -6    1.36    0.54
   7 -11  -6    2.34    0.45
   7 -11  -6    2.44    0.59
   6 -11  -6    0.16    0.27
   6 -11  -6   -0.28    0.36
   5 -11  -6    3.52    0.45
   5 -11  -6    2.72    0.54
   4 -11  -6    4.48    0.48
   4 -11  -6    3.11    0.57
   3 -11  -6    8.28    0.76
   2 -11  -6   16.44    1.07
  -2  11   6   16.35    0.97
   1 -11  -6   12.42    0.92
  -1  11   6   13.71    0.90
   0 -11  -6    0.12    0.14
  -1 -11  -6    2.99    0.46
   2  11   6   12.40    0.80
   3  11   6   34.30    1.61
   3  11   6   36.28    1.62
   4  11   6   12.13    0.81
   4  11   6   10.36    0.71
   5  11   6    9.34    0.78
   6  11   6    6.40    0.70
   7  11   6    7.08    0.82
   9 -12  -6    0.48    0.46
   8 -12  -6    4.16    0.70
   7 -12  -6    8.33    0.92
   6 -12  -6   13.21    1.10
   6 -12  -6   13.71    0.91
   5 -12  -6   15.28    1.13
   5 -12  -6   15.33    0.94
   4 -12  -6   21.55    1.35
   4 -12  -6   21.63    1.15
   3 -12  -6   24.88    1.42
   2 -12  -6   63.95    2.83
   1 -12  -6   46.34    2.12
  -1  12   6   42.75    2.06
  -1 -12  -6   28.79    1.49
   2  12   6   12.15    0.83
   3  12   6    2.94    0.44
   3  12   6    2.41    0.42
   4  12   6    6.85    0.69
   5  12   6   -0.30    0.29
   6  12   6    1.19    0.40
   7  12   6    0.36    0.42
   8 -13  -6   -0.30    0.40
   7 -13  -6    0.95    0.52
   6 -13  -6    4.48    0.74
   5 -13  -6    4.51    0.54
   5 -13  -6    3.89    0.65
   4 -13  -6    4.11    0.64
   3 -13  -6   20.00    1.28
   2 -13  -6    7.75    0.84
   1 -13  -6   -0.49    0.29
   0 -13  -6   13.45    0.96
   2  13   6    0.81    0.34
   3  13   6    3.75    0.51
   4  13   6    0.75    0.34
   5  13   6   14.97    1.04
   6  13   6   13.87    1.05
   8 -14  -6   -0.26    0.46
   7 -14  -6    2.71    0.67
   6 -14  -6    9.09    1.03
   5 -14  -6   11.20    0.86
   5 -14  -6   10.50    1.06
   4 -14  -6    3.74    0.66
   3 -14  -6   46.08    2.28
   2 -14  -6   51.03    2.46
   1 -14  -6   24.10    1.45
   0 -14  -6   11.74    0.98
   1  14   6   15.10    1.03
   2  14   6    8.95    0.75
   3  14   6    5.04    0.59
   4  14   6   13.16    0.94
   5  14   6    0.55    0.35
   6  14   6    0.40    0.42
   7 -15  -6    2.85    0.66
   6 -15  -6    1.56    0.60
   5 -15  -6    1.75    0.56
   4 -15  -6    4.22    0.74
   3 -15  -6   10.86    1.10
   2 -15  -6    0.93    0.47
   1 -15  -6   12.06    1.07
   0 -15  -6    6.31    0.82
   1  15   6   -0.54    0.28
   2  15   6    0.39    0.31
   3  15   6    4.70    0.60
   4  15   6   -0.17    0.27
   5  15   6    2.27    0.51
   6 -16  -6   -0.09    0.43
   5 -16  -6    0.27    0.50
   4 -16  -6   17.22    1.36
   3 -16  -6   12.42    1.09
   2 -16  -6    8.47    0.95
   1 -16  -6   24.87    1.58
   1  16   6   10.94    0.88
   2  16   6   13.50    0.97
   3  16   6    6.68    0.71
   4  16   6    0.38    0.32
   5 -17  -6    0.09    0.46
   4 -17  -6    0.94    0.64
   3 -17  -6   -0.22    0.43
   2 -17  -6    1.10    0.55
   1 -17  -6    5.88    0.84
   0  17   6    1.17    0.43
   1  17   6    2.28    0.49
   2  17   6    1.23    0.41
   4 -18  -6    6.60    1.01
   3 -18  -6    4.15    0.80
   2 -18  -6    7.58    1.02
  -1  18   6   11.42    1.14
   0  18   6    8.49    0.92
   1  18   6    9.04    0.93
   2  18  -7    1.78    0.55
   1  18  -7   -0.57    0.41
   0  18  -7    0.58    0.50
  -1  18  -7    4.16    0.73
  -2  18  -7    1.88    0.57
  -3  18  -7    4.11    0.77
   4  17  -7    1.76    0.57
   3  17  -7    3.02    0.60
   2  17  -7    8.58    0.90
   1  17  -7   10.19    0.90
   0  17  -7    7.57    0.87
  -1  17  -7   10.81    0.96
  -2  17  -7   15.76    1.17
  -3  17  -7    7.83    0.89
   3 -17   7    8.91    1.04
  -4  17  -7    6.80    0.86
   4 -17   7    7.47    1.01
   5  16  -7    2.59    0.59
   4  16  -7    2.77    0.61
   3  16  -7   -0.43    0.37
   2  16  -7    0.10    0.39
   1  16  -7    2.38    0.50
   0  16  -7    2.09    0.49
  -1  16  -7    3.04    0.59
  -2  16  -7    4.00    0.63
  -3  16  -7    4.30    0.70
   3 -16   7    3.22    0.66
  -4  16  -7    1.24    0.54
   4 -16   7    1.06    0.58
  -5  16  -7   -0.15    0.45
   5 -16   7    0.64    0.57
   6  15  -7   -0.45    0.43
   5  15  -7    1.83    0.54
   4  15  -7    1.65    0.49
   3  15  -7    1.77    0.48
   2  15  -7   11.34    0.88
   1  15  -7   11.34    0.89
   0  15  -7   28.27    1.51
  -1  15  -7   41.46    2.03
  -2  15  -7   24.35    1.40
   2 -15   7   20.81    1.39
  -3  15  -7    8.49    0.85
   3 -15   7    7.04    0.90
  -4  15  -7    7.29    0.82
   4 -15   7    8.85    1.01
  -5  15  -7    9.03    0.91
   5 -15   7   10.63    1.16
  -6  15  -7    4.01    0.68
   6 -15   7    2.66    0.73
   7  14  -7    8.91    0.96
   7  14  -7    7.36    0.86
   6  14  -7    4.21    0.68
   5  14  -7    3.77    0.62
   4  14  -7    3.86    0.58
   3  14  -7    1.22    0.42
   2  14  -7    3.34    0.54
   1  14  -7    0.02    0.35
   0  14  -7    0.69    0.36
  -1  14  -7    3.64    0.59
  -2  14  -7   20.08    1.21
   2 -14   7   17.47    1.24
  -3  14  -7    9.96    0.88
   3 -14   7   10.34    1.05
  -4  14  -7    3.77    0.61
   4 -14   7    4.31    0.75
  -5  14  -7    1.25    0.47
   5 -14   7    1.87    0.56
  -6  14  -7   -0.05    0.41
   6 -14   7    0.27    0.51
   7 -14   7    1.63    0.67
   7  13  -7    0.03    0.36
   7  13  -7   -0.49    0.39
   6  13  -7    0.05    0.38
   5  13  -7    0.04    0.36
   4  13  -7    0.52    0.35
   3  13  -7    3.50    0.54
   2  13  -7    4.58    0.54
   1  13  -7   12.34    0.88
   0  13  -7   33.71    1.66
  -1  13  -7   28.34    1.48
   1 -13   7   27.89    1.54
  -2  13  -7   13.78    0.99
   2 -13   7   15.26    1.09
  -3  13  -7   46.85    2.17
   3 -13   7   46.39    2.30
  -4  13  -7   19.96    1.22
   4 -13   7   20.04    1.36
  -5  13  -7   16.38    1.13
   5 -13   7   17.18    1.30
  -6  13  -7   20.72    1.24
   6 -13   7   17.99    1.37
   7 -13   7    5.97    0.91
   8  12  -7   15.39    1.14
   8  12  -7   18.70    1.28
   7  12  -7   10.76    0.91
   7  12  -7    9.15    0.92
   6  12  -7   16.17    1.11
   5  12  -7   24.47    1.36
   4  12  -7    5.17    0.60
   3  12  -7    0.77    0.35
   2  12  -7    6.44    0.63
   1  12  -7    2.66    0.47
   0  12  -7    0.04    0.30
  -1  12  -7   11.54    0.81
   1 -12   7   10.48    0.83
  -2  12  -7    4.64    0.59
   2 -12   7    3.96    0.61
   3 -12   7    1.99    0.47
  -4  12  -7   10.43    0.83
   4 -12   7   10.92    1.04
  -5  12  -7    2.33    0.48
   5 -12   7    2.75    0.64
  -6  12  -7    1.95    0.47
   6 -12   7    2.18    0.60
   7 -12   7    1.03    0.57
   8 -12   7   -0.11    0.48
   9  11  -7   -0.33    0.41
   8  11  -7    0.07    0.39
   8  11  -7    0.15    0.46
   7  11  -7    3.84    0.58
   7  11  -7    5.03    0.68
   6  11  -7    1.90    0.48
   5  11  -7    0.08    0.29
   4  11  -7    0.08    0.29
   3  11  -7    0.76    0.31
   2  11  -7    0.63    0.28
   1  11  -7   10.60    0.75
   0  11  -7   12.43    0.82
  -1  11  -7   12.45    0.83
   1 -11   7   12.04    0.85
  -2  11  -7   29.18    1.45
   2 -11   7   29.61    1.54
  -3  11  -7   37.43    1.79
   3 -11   7   40.33    1.94
  -4  11  -7   31.35    1.56
   4 -11   7   33.35    1.77
  -5  11  -7   20.68    1.20
   5 -11   7   24.77    1.46
  -6  11  -7   22.21    1.24
   6 -11   7   20.78    1.39
   7 -11   7   13.91    1.21
   8 -11   7    1.27    0.55
   9  10  -7    9.12    0.92
   8  10  -7   11.03    1.02
   8  10  -7   12.38    0.96
   7  10  -7   28.40    1.46
   7  10  -7   27.46    1.54
   6  10  -7   63.48    2.76
   5  10  -7   39.38    1.83
   4  10  -7    7.75    0.66
   3  10  -7   15.43    0.92
   2  10  -7    6.55    0.55
   1  10  -7   23.95    1.19
   0  10  -7    1.82    0.34
   0 -10   7    1.89    0.39
  -1  10  -7    0.37    0.25
   1 -10   7    0.46    0.28
   2 -10   7    7.83    0.75
  -3  10  -7   21.26    1.13
   3 -10   7   21.14    1.24
  -4  10  -7   -0.10    0.27
   4 -10   7   -0.11    0.31
  -5  10  -7   11.58    0.78
   5 -10   7   10.45    0.92
   6 -10   7    6.61    0.85
   7 -10   7    0.08    0.43
   8 -10   7    0.29    0.50
   9 -10   7    1.26    0.62
   9   9  -7    0.27    0.47
   9   9  -7   -0.13    0.38
   8   9  -7   -0.24    0.41
   8   9  -7    0.18    0.34
   7   9  -7    1.39    0.47
   7   9  -7    1.77    0.43
   6   9  -7    9.26    0.78
   5   9  -7    1.66    0.37
   4   9  -7    2.00    0.36
   3   9  -7    0.18    0.25
   2   9  -7   44.73    1.91
   1   9  -7    8.18    0.58
   0   9  -7    8.73    0.61
   0  -9   7    9.66    0.68
  -1   9  -7    9.97    0.67
   1  -9   7    9.51    0.70
  -2   9  -7   11.56    0.74
   2  -9   7   13.81    0.88
  -3   9  -7   34.25    1.56
   3  -9   7   34.79    1.71
  -4   9  -7   35.03    1.57
   4  -9   7   32.46    1.70
  -5   9  -7   34.34    1.56
   5  -9   7   33.52    1.76
   6  -9   7   19.85    1.29
   7  -9   7    9.59    0.99
   8  -9   7    6.29    0.82
   9  -9   7    2.87    0.72
  10   8  -7    6.40    0.80
   9   8  -7    5.91    0.70
   9   8  -7    5.58    0.75
   8   8  -7    6.76    0.82
   8   8  -7    8.17    0.77
   7   8  -7   48.87    2.28
   7   8  -7   49.36    2.19
   6   8  -7   51.31    2.19
   6   8  -7   49.42    2.25
   5   8  -7   27.82    1.38
   4   8  -7   38.77    1.73
   3   8  -7    5.91    0.48
   2   8  -7   48.75    2.03
   1   8  -7   28.02    1.27
   0   8  -7    0.55    0.22
   0  -8   7    0.84    0.26
  -1   8  -7    9.42    0.62
   1  -8   7    9.86    0.67
  -2   8  -7    3.11    0.38
   2  -8   7    3.88    0.38
   2  -8   7    3.22    0.47
  -3   8  -7    1.04    0.28
   3  -8   7    0.87    0.31
   3  -8   7    1.06    0.24
  -4   8  -7    4.34    0.46
   4  -8   7    5.22    0.66
  -5   8  -7   29.25    1.40
   5  -8   7   33.39    1.67
   6  -8   7   17.27    1.16
   7  -8   7    0.37    0.42
   8  -8   7    0.60    0.44
   9  -8   7    0.97    0.49
  10   7  -7    0.21    0.40
   9   7  -7    0.15    0.35
   9   7  -7   -0.34    0.38
   8   7  -7    1.38    0.47
   8   7  -7    2.38    0.44
   7   7  -7   10.09    0.74
   7   7  -7    9.21    0.85
   6   7  -7    0.05    0.31
   6   7  -7    0.00    0.24
   5   7  -7    1.90    0.39
   4   7  -7   16.17    0.90
   3   7  -7   10.61    0.64
   2   7  -7   -0.07    0.17
   1   7  -7   14.31    0.75
   0   7  -7   50.13    2.06
   0  -7   7   51.02    2.12
   1  -7   7   28.56    1.29
   1  -7   7   27.90    1.33
  -2   7  -7   53.40    2.16
   2  -7   7   52.14    2.26
   2  -7   7   53.41    2.18
  -3   7  -7   22.38    1.06
   3  -7   7   21.83    1.18
   3  -7   7   22.70    1.10
  -4   7  -7   39.19    1.70
   4  -7   7   42.41    1.81
   4  -7   7   39.81    1.90
  -5   7  -7   67.06    2.70
   5  -7   7   68.89    2.94
   6  -7   7   34.63    1.77
   7  -7   7   31.87    1.75
   8  -7   7   16.71    1.25
   9  -7   7    4.47    0.75
  10   6  -7    2.40    0.53
   9   6  -7    4.48    0.57
   9   6  -7    5.05    0.66
   8   6  -7   21.82    1.28
   7   6  -7   44.13    2.10
   6   6  -7   26.19    1.37
   5   6  -7   77.12    3.14
   4   6  -7   44.82    1.91
   3   6  -7    5.94    0.47
   2   6  -7   45.63    1.87
   1   6  -7   66.51    2.61
   0   6  -7   12.81    0.67
   0  -6   7   12.93    0.73
  -1   6  -7   24.23    1.07
   1  -6   7   23.97    1.14
   1  -6   7   23.69    1.15
  -2   6  -7    0.83    0.21
   2  -6   7    1.22    0.29
   2  -6   7    1.15    0.27
  -3   6  -7    3.58    0.36
   3  -6   7    3.20    0.45
   3  -6   7    4.75    0.48
  -4   6  -7    3.88    0.37
   4  -6   7    3.57    0.47
   4  -6   7    4.18    0.51
  -5   6  -7   12.47    0.67
   5  -6   7   11.68    0.85
   5  -6   7   11.57    0.82
   6  -6   7    5.91    0.73
   7  -6   7    8.12    0.88
   8  -6   7    3.70    0.68
   9  -6   7    1.72    0.59
  10   5  -7    0.19    0.28
   9   5  -7    0.07    0.28
   9   5  -7    0.02    0.33
   8   5  -7    4.54    0.61
   8   5  -7    5.14    0.57
   7   5  -7   -0.08    0.32
   7   5  -7   -0.35    0.21
   6   5  -7    5.93    0.63
   6   5  -7    6.40    0.51
   5   5  -7    4.41    0.51
   4   5  -7   32.41    1.46
   3   5  -7   11.35    0.65
   2   5  -7    7.47    0.49
   1   5  -7    1.45    0.24
  -1  -5   7    1.33    0.23
   0  -5   7    9.96    0.56
   0  -5   7    8.78    0.60
  -1   5  -7    3.40    0.31
   1  -5   7    3.53    0.40
   1  -5   7    3.34    0.38
  -2   5  -7   20.65    0.90
   2  -5   7   19.37    1.03
   2  -5   7   20.35    1.03
  -3   5  -7   21.71    0.97
   3  -5   7   22.76    1.16
   3  -5   7   21.73    1.12
  -4   5  -7   36.85    1.52
   4  -5   7   37.33    1.72
   4  -5   7   37.32    1.72
  -5   5  -7   57.17    2.25
   5  -5   7   57.22    2.49
   5  -5   7   57.83    2.51
   6  -5   7   27.22    1.47
   7  -5   7   22.38    1.35
   8  -5   7   28.28    1.60
   9  -5   7    9.71    1.07
  10  -5   7    7.19    0.95
  11   4  -7    1.80    0.55
  10   4  -7    0.82    0.42
   9   4  -7    9.50    0.79
   9   4  -7    9.60    0.79
   8   4  -7   33.25    1.52
   8   4  -7   29.04    1.54
   7   4  -7    7.55    0.58
   7   4  -7    6.37    0.66
   6   4  -7   47.89    2.13
   6   4  -7   48.17    1.99
   5   4  -7  117.15    4.55
   5   4  -7  115.33    4.41
   4   4  -7  181.19    6.82
   3   4  -7  350.46   12.87
   2   4  -7  164.99    6.15
   1   4  -7    5.45    0.36
  -1  -4   7    5.49    0.37
  -1  -4   7    5.33    0.47
   0   4  -7   26.37    1.23
   0  -4   7   32.31    1.40
   0  -4   7   33.67    1.31
  -1   4  -7    0.89    0.16
   1  -4   7    0.30    0.16
   1  -4   7    0.45    0.22
  -2   4  -7   52.59    2.01
   2  -4   7   51.53    2.15
   2  -4   7   51.77    2.20
  -3   4  -7    1.52    0.20
   3  -4   7    1.49    0.33
   3  -4   7    1.67    0.29
  -4   4  -7   16.49    0.74
   4  -4   7   16.22    0.96
   4  -4   7   16.90    0.95
  -5   4  -7    0.29    0.19
   5  -4   7    0.26    0.25
   6  -4   7    0.09    0.27
   7  -4   7    1.14    0.42
   8  -4   7    6.57    0.80
   9  -4   7    3.17    0.66
  10  -4   7    1.44    0.57
  11   3  -7    1.45    0.50
  10   3  -7    4.31    0.67
  10   3  -7    3.57    0.57
   9   3  -7    3.39    0.50
   9   3  -7    3.81    0.55
   8   3  -7    1.20    0.39
   8   3  -7    2.04    0.39
   7   3  -7    2.27    0.36
   7   3  -7    2.23    0.42
   6   3  -7    2.56    0.43
   6   3  -7    1.66    0.28
   5   3  -7    0.11    0.14
   5   3  -7    0.17    0.25
   4   3  -7    1.79    0.31
   3   3  -7   24.61    1.13
   2   3  -7   48.44    1.95
   1   3  -7    2.88    0.28
  -1  -3   7    2.67    0.25
   0   3  -7    1.57    0.19
   0  -3   7    1.33    0.20
   0  -3   7    1.84    0.30
  -1   3  -7    5.92    0.34
   1  -3   7    6.36    0.42
   1  -3   7    5.53    0.49
  -2   3  -7    0.27    0.11
   2  -3   7    0.48    0.20
   2  -3   7    0.11    0.24
  -3   3  -7    0.63    0.13
   3  -3   7    0.77    0.25
   3  -3   7    0.32    0.24
  -4   3  -7   11.56    0.53
   4  -3   7   12.12    0.75
   5  -3   7   20.42    1.12
   6  -3   7   50.44    2.28
   7  -3   7   17.68    1.15
   8  -3   7   13.14    1.06
   9  -3   7   16.90    1.23
  10  -3   7    7.89    1.01
  11   2  -7    0.90    0.48
  10   2  -7    0.16    0.35
  10   2  -7    0.94    0.36
   9   2  -7    6.55    0.67
   9   2  -7    6.15    0.67
   8   2  -7    5.58    0.57
   8   2  -7    5.84    0.63
   7   2  -7   44.44    1.91
   7   2  -7   45.90    2.01
   6   2  -7   39.59    1.54
   6   2  -7   31.20    1.60
   5   2  -7   17.59    0.83
   5   2  -7   18.12    0.97
   4   2  -7  116.62    4.35
   4   2  -7  116.90    4.51
   3   2  -7  233.81    8.69
   2   2  -7  174.34    6.36
  -2  -2   7  166.82    6.49
   1   2  -7  203.48    7.91
  -1  -2   7  223.23    7.88
  -1  -2   7  219.20    8.08
   0   2  -7   12.52    0.57
   0  -2   7   11.05    0.57
  -1   2  -7  124.69    4.58
   1  -2   7  124.51    4.82
   1  -2   7  123.57    4.66
  -2   2  -7  107.76    4.04
   2  -2   7  113.52    4.20
   2  -2   7  109.30    4.32
  -3   2  -7    0.37    0.10
   3  -2   7    0.92    0.26
  -4   2  -7    2.80    0.18
   4  -2   7    2.85    0.42
   5  -2   7    0.25    0.26
   6  -2   7    0.14    0.29
   7  -2   7    1.10    0.43
   8  -2   7    5.79    0.72
   9  -2   7    2.36    0.62
  11   1  -7    4.27    0.68
  10   1  -7    0.74    0.35
  10   1  -7    0.55    0.37
   9   1  -7    4.37    0.55
   9   1  -7    3.78    0.54
   8   1  -7    2.17    0.40
   8   1  -7    1.90    0.38
   7   1  -7    0.38    0.22
   7   1  -7    1.31    0.33
   6   1  -7    6.81    0.48
   6   1  -7    7.74    0.60
   5   1  -7    1.69    0.33
   5   1  -7    2.00    0.24
   4   1  -7   23.90    0.98
   4   1  -7   23.18    1.13
   3   1  -7    4.94    0.45
   2   1  -7    1.31    0.26
  -2  -1   7    1.33    0.29
  -1  -1   7   55.31    2.07
  -1  -1   7   54.28    2.29
   0   1  -7    6.80    0.38
   0  -1   7    6.86    0.52
   0  -1   7    6.02    0.35
  -1   1  -7   56.44    2.15
   1  -1   7   57.26    2.21
  -2   1  -7   69.52    2.63
   2  -1   7   72.81    2.78
  -3   1  -7   17.49    0.69
   3  -1   7   18.41    0.92
   4  -1   7    0.56    0.23
   5  -1   7   27.11    1.35
   6  -1   7   18.82    1.09
   7  -1   7   18.74    1.16
   8  -1   7   25.50    1.46
   9  -1   7    7.38    0.87
  10  -1   7    4.33    0.80
  11   0  -7   -0.10    0.40
  10   0  -7    0.53    0.32
  10   0  -7   -0.03    0.34
   9   0  -7    1.09    0.36
   9   0  -7    1.20    0.36
   8   0  -7    2.31    0.40
   8   0  -7    2.12    0.41
   7   0  -7   10.72    0.71
   7   0  -7   12.70    0.79
   6   0  -7   28.57    1.30
   6   0  -7   31.81    1.43
   5   0  -7   30.66    1.43
   5   0  -7   32.37    1.32
   4   0  -7   81.42    2.88
   4   0  -7   70.59    3.00
   3   0  -7   38.35    1.41
   3   0  -7   35.01    1.55
   2   0  -7   69.18    2.69
  -2   0   7   69.33    2.82
  -1   0   7  139.35    5.07
  -1   0   7  138.74    5.34
   0   0  -7  139.48    5.13
   0   0   7  138.47    5.33
   0   0   7  137.83    5.09
  -1   0  -7  187.57    6.75
   1   0   7  185.38    6.81
   1   0   7  181.23    7.01
  -2   0  -7   82.16    3.10
   2   0   7   87.44    3.25
   3   0   7   37.59    1.60
   4   0   7    5.73    0.47
   5   0   7    0.17    0.25
   6   0   7    0.36    0.32
   7   0   7    0.67    0.34
   8   0   7    1.42    0.48
   9   0   7    1.80    0.50
  10   0   7    0.26    0.46
  11  -1  -7    1.82    0.55
  10  -1  -7    1.94    0.50
  10  -1  -7    1.70    0.41
   9  -1  -7    9.46    0.81
   9  -1  -7   10.14    0.78
   8  -1  -7    4.70    0.54
   8  -1  -7    7.59    0.69
   7  -1  -7   -0.05    0.22
   7  -1  -7    0.02    0.21
   6  -1  -7   24.91    1.19
   6  -1  -7   22.40    1.08
   5  -1  -7   29.69    1.29
   5  -1  -7   25.10    1.15
   4  -1  -7   13.37    0.74
   4  -1  -7   12.88    0.60
   3  -1  -7   22.21    0.90
   3  -1  -7   22.53    1.06
  -3   1   7   24.33    1.17
   2  -1  -7   56.43    2.25
  -2   1   7   57.17    2.37
   1  -1  -7    0.28    0.15
  -1   1   7    0.26    0.20
  -1   1   7    0.25    0.06
   0  -1  -7   29.83    1.26
   0   1   7   33.29    1.50
   0   1   7   31.74    1.22
  -1  -1  -7    1.76    0.18
   1   1   7    2.01    0.21
   1   1   7    1.73    0.32
  -2  -1  -7    1.05    0.11
   2   1   7    0.62    0.18
   3   1   7   16.78    0.83
   4   1   7   11.99    0.70
   5   1   7    0.71    0.26
   6   1   7    8.92    0.68
   7   1   7   48.77    2.23
   8   1   7   38.46    1.93
   9   1   7    8.08    0.88
  10   1   7   12.03    1.19
  11  -2  -7    0.16    0.43
  10  -2  -7    0.31    0.32
  10  -2  -7    0.12    0.37
   9  -2  -7    0.20    0.34
   9  -2  -7    0.49    0.32
   8  -2  -7    9.96    0.73
   8  -2  -7    8.43    0.72
   7  -2  -7    0.56    0.28
   7  -2  -7    0.85    0.27
   6  -2  -7    3.22    0.44
   6  -2  -7    2.56    0.33
   5  -2  -7  117.45    4.44
   5  -2  -7  111.61    4.31
   4  -2  -7  190.52    7.05
   4  -2  -7  185.29    6.90
   3  -2  -7  176.60    6.41
   3  -2  -7  170.81    6.23
  -3   2   7  165.45    6.50
   2  -2  -7   69.67    2.69
  -2   2   7   67.04    2.79
   1  -2  -7   99.77    3.91
  -1   2   7  100.98    4.08
  -1   2   7  109.62    3.77
   0  -2  -7  154.57    5.66
   0   2   7  151.79    5.59
   0   2   7  153.15    5.90
  -1  -2  -7   47.88    1.85
   1   2   7   47.54    2.09
   1   2   7   48.54    1.85
  -2  -2  -7   21.77    0.87
   2   2   7   22.14    0.96
   3   2   7   30.45    1.32
   4   2   7    8.16    0.54
   5   2   7    0.51    0.24
   6   2   7   10.13    0.72
   7   2   7    1.18    0.42
   8   2   7   -0.41    0.36
   9   2   7    2.62    0.61
  10   2   7    0.46    0.49
  10  -3  -7    6.11    0.72
  10  -3  -7    5.61    0.71
   9  -3  -7    3.72    0.58
   9  -3  -7    5.40    0.65
   8  -3  -7    2.20    0.44
   8  -3  -7    2.25    0.43
   7  -3  -7    6.32    0.62
   7  -3  -7    4.98    0.52
   6  -3  -7    1.76    0.34
   6  -3  -7    1.24    0.26
   5  -3  -7    7.28    0.46
   5  -3  -7    6.27    0.52
   4  -3  -7   10.77    0.66
   4  -3  -7   11.04    0.54
   3  -3  -7   66.09    2.53
   3  -3  -7   59.77    2.33
  -3   3   7   63.33    2.60
   2  -3  -7   46.35    1.94
  -2   3   7   48.77    2.06
   1  -3  -7   20.12    1.01
  -1   3   7   24.33    0.88
  -1   3   7   24.54    1.19
   0  -3  -7    0.62    0.16
   0   3   7    0.43    0.23
   0   3   7    0.44    0.09
  -1  -3  -7   63.39    2.38
   1   3   7   60.71    2.35
  -2  -3  -7   12.20    0.56
   2   3   7   12.97    0.62
   3   3   7    0.04    0.15
   3   3   7    0.27    0.06
   4   3   7    0.51    0.20
   5   3   7    0.16    0.25
   6   3   7    2.17    0.41
   7   3   7   15.01    0.97
   8   3   7    7.17    0.78
   9   3   7   12.95    1.04
  10  -4  -7    0.84    0.38
  10  -4  -7    1.58    0.46
   9  -4  -7    0.43    0.34
   9  -4  -7    0.63    0.35
   8  -4  -7    6.66    0.68
   8  -4  -7    7.95    0.67
   7  -4  -7    1.47    0.32
   7  -4  -7    2.05    0.41
   6  -4  -7    4.24    0.51
   6  -4  -7    4.55    0.43
   5  -4  -7   55.86    2.21
   5  -4  -7   56.32    2.36
   4  -4  -7   15.73    0.88
   4  -4  -7   15.57    0.70
   3  -4  -7  189.53    6.84
   3  -4  -7  176.29    6.63
  -3   4   7  179.89    6.88
   2  -4  -7  215.49    8.01
  -2   4   7  215.01    8.10
   1  -4  -7  131.55    4.97
   0  -4  -7  135.61    5.13
   0   4   7  138.03    5.02
   0   4   7  137.03    5.32
  -1  -4  -7  246.10    8.94
   1   4   7  240.57    8.89
  -2  -4  -7  128.03    4.74
   2   4   7  127.88    4.78
   3   4   7   44.55    1.66
   3   4   7   42.93    1.79
   4   4   7   17.94    0.91
   4   4   7   17.75    0.70
   5   4   7   10.63    0.71
   6   4   7   -0.24    0.26
   7   4   7    6.65    0.68
   8   4   7    0.69    0.40
   9   4   7    0.12    0.42
  10  -5  -7   15.80    1.12
   9  -5  -7   10.13    0.87
   9  -5  -7   10.93    0.83
   8  -5  -7    1.21    0.33
   8  -5  -7    1.47    0.42
   7  -5  -7    0.55    0.25
   7  -5  -7   -0.12    0.26
   6  -5  -7    0.80    0.22
   6  -5  -7    0.23    0.25
   5  -5  -7    8.50    0.51
   5  -5  -7    8.49    0.66
   4  -5  -7   10.23    0.53
   4  -5  -7    9.62    0.68
  -4   5   7   10.62    0.71
   3  -5  -7    4.50    0.29
   3  -5  -7    3.51    0.42
  -3   5   7    4.89    0.45
   2  -5  -7    2.42    0.35
  -2   5   7    1.91    0.35
  -1   5   7    2.89    0.44
   0  -5  -7   72.56    2.83
   0   5   7   71.29    2.99
  -1  -5  -7    9.56    0.56
   1   5   7    9.60    0.49
  -2  -5  -7    0.99    0.18
   2   5   7    0.80    0.18
   3   5   7    0.58    0.20
   3   5   7    0.45    0.13
   4   5   7    2.16    0.19
   4   5   7    1.68    0.30
   5   5   7    1.90    0.34
   6   5   7    0.57    0.32
   7   5   7    0.47    0.36
   8   5   7    1.78    0.50
   9   5   7    3.21    0.64
  10  -6  -7    2.24    0.54
   9  -6  -7    1.75    0.42
   9  -6  -7    1.63    0.48
   8  -6  -7    5.36    0.56
   8  -6  -7    3.03    0.52
   7  -6  -7    1.12    0.39
   7  -6  -7    1.43    0.31
   6  -6  -7    5.87    0.64
   6  -6  -7    5.72    0.47
   5  -6  -7   22.39    1.18
   5  -6  -7   22.11    1.01
   4  -6  -7   10.11    0.70
   4  -6  -7    9.43    0.53
  -4   6   7   10.36    0.68
   3  -6  -7   12.57    0.60
   3  -6  -7   12.20    0.79
  -3   6   7   12.63    0.75
   2  -6  -7   81.95    3.15
  -2   6   7   74.53    3.17
  -1   6   7   17.05    1.00
   0  -6  -7  148.35    5.65
   0   6   7  150.44    5.80
  -1  -6  -7  162.05    6.12
   1   6   7  164.44    6.04
  -2  -6  -7   64.48    2.53
   2   6   7   65.04    2.53
   3   6   7   79.50    3.19
   3   6   7   84.98    3.13
   4   6   7   50.07    2.13
   4   6   7   52.68    1.99
   5   6   7    9.88    0.71
   6   6   7   17.29    1.04
   7   6   7    0.45    0.33
   8   6   7    1.68    0.48
   9   6   7    0.43    0.47
  11  -7  -7    4.02    1.08
  10  -7  -7   13.69    1.09
   9  -7  -7   16.74    1.17
   8  -7  -7    6.22    0.70
   8  -7  -7    6.21    0.61
   7  -7  -7   31.91    1.62
   7  -7  -7   29.79    1.42
   6  -7  -7    3.74    0.53
   6  -7  -7    3.98    0.42
   5  -7  -7    3.47    0.49
   5  -7  -7    4.28    0.38
   4  -7  -7    8.35    0.69
   4  -7  -7    8.94    0.51
  -4   7   7    8.65    0.63
   3  -7  -7    1.80    0.24
   3  -7  -7    1.84    0.36
  -3   7   7    2.02    0.34
   2  -7  -7    5.55    0.56
  -2   7   7    5.54    0.52
  -1   7   7   48.38    2.17
   0  -7  -7   37.93    1.65
   0   7   7   36.61    1.75
  -1  -7  -7    9.37    0.59
  -2  -7  -7    1.46    0.26
   2   7   7    1.84    0.26
   3   7   7    7.90    0.53
   3   7   7    7.43    0.47
   4   7   7    2.13    0.35
   4   7   7    1.91    0.26
   5   7   7    2.46    0.39
   6   7   7    0.24    0.33
   7   7   7    3.80    0.57
   8   7   7    4.50    0.69
   9   7   7    2.28    0.62
  10  -8  -7    3.03    0.62
   9  -8  -7    0.56    0.42
   8  -8  -7    1.20    0.39
   8  -8  -7    1.13    0.45
   7  -8  -7   -0.02    0.34
   7  -8  -7   -0.04    0.21
   6  -8  -7    0.41    0.23
   6  -8  -7   -0.26    0.31
   5  -8  -7    2.02    0.30
   5  -8  -7    1.28    0.38
   4  -8  -7   15.84    0.79
   4  -8  -7   14.74    0.96
  -4   8   7   15.19    0.87
   3  -8  -7    9.53    0.54
   3  -8  -7    8.12    0.68
  -3   8   7    9.19    0.64
   2  -8  -7   11.88    0.79
  -2   8   7   10.96    0.76
   1  -8  -7   53.84    2.42
  -1   8   7   62.10    2.55
   0  -8  -7   71.29    2.88
   0   8   7   70.01    2.99
  -1  -8  -7   41.46    1.80
  -2  -8  -7   19.38    0.98
   2   8   7   19.96    0.94
   3   8   7   57.51    2.30
   3   8   7   57.26    2.34
   4   8   7    7.58    0.60
   5   8   7   64.13    2.67
   6   8   7    9.72    0.80
   7   8   7    0.69    0.38
   8   8   7    1.66    0.51
  10  -9  -7    6.82    0.92
   9  -9  -7   10.29    1.03
   8  -9  -7   13.30    1.06
   7  -9  -7   18.77    1.22
   7  -9  -7   20.18    1.08
   6  -9  -7    2.34    0.36
   6  -9  -7    2.62    0.55
   5  -9  -7    3.45    0.39
   5  -9  -7    3.65    0.58
   4  -9  -7    1.08    0.37
   4  -9  -7    0.53    0.22
  -4   9   7    1.17    0.29
   3  -9  -7    1.76    0.39
  -3   9   7    2.23    0.36
   2  -9  -7    1.74    0.40
  -2   9   7    2.04    0.38
   1  -9  -7    0.49    0.29
  -1   9   7    0.92    0.33
   0  -9  -7   38.22    1.78
   0   9   7   40.51    1.89
  -1  -9  -7   -0.05    0.21
  -2  -9  -7   14.04    0.81
   2   9   7   14.12    0.76
   3   9   7    0.38    0.21
   3   9   7    0.29    0.26
   4   9   7    2.89    0.42
   5   9   7    9.09    0.73
   6   9   7    0.22    0.34
   7   9   7    1.27    0.45
   8   9   7    2.50    0.59
  10 -10  -7    1.85    0.58
   9 -10  -7    3.86    0.70
   8 -10  -7    2.44    0.57
   7 -10  -7    0.27    0.41
   6 -10  -7    3.25    0.57
   6 -10  -7    3.15    0.43
   5 -10  -7   -0.26    0.30
   5 -10  -7    0.09    0.23
   4 -10  -7    3.02    0.38
   4 -10  -7    2.99    0.52
   3 -10  -7    3.55    0.55
  -3  10   7    3.11    0.44
   2 -10  -7   33.02    1.66
  -2  10   7   33.42    1.61
   1 -10  -7   39.28    1.90
  -1  10   7   42.80    1.97
   0 -10  -7   63.30    2.72
   0  10   7   65.45    2.82
  -1 -10  -7   49.61    2.17
   3  10   7    7.29    0.56
   3  10   7    6.97    0.59
   4  10   7   32.26    1.51
   5  10   7   16.88    1.02
   6  10   7    6.40    0.71
   7  10   7    5.69    0.69
   8  10   7    4.47    0.72
   9 -11  -7    4.42    0.78
   8 -11  -7   13.16    1.12
   7 -11  -7   14.94    1.16
   6 -11  -7   16.02    1.20
   6 -11  -7   15.97    1.17
   5 -11  -7    1.38    0.32
   5 -11  -7    2.22    0.55
   4 -11  -7    3.45    0.60
   4 -11  -7    4.30    0.46
   3 -11  -7    3.46    0.60
   2 -11  -7    0.53    0.38
  -2  11   7    0.66    0.31
   1 -11  -7   -0.09    0.31
  -1  11   7    0.25    0.30
   0 -11  -7    0.69    0.34
   0  11   7    1.00    0.39
  -1 -11  -7   18.27    1.08
   2  11   7    2.54    0.41
   3  11   7    4.52    0.50
   3  11   7    5.78    0.55
   4  11   7    2.92    0.43
   5  11   7   10.99    0.84
   6  11   7   -0.33    0.35
   7  11   7    0.68    0.47
   9 -12  -7    3.83    0.74
   8 -12  -7    5.53    0.83
   7 -12  -7    7.81    0.89
   6 -12  -7    0.04    0.36
   5 -12  -7    0.26    0.27
   5 -12  -7    0.05    0.40
   4 -12  -7    0.50    0.41
   3 -12  -7    1.02    0.46
   2 -12  -7    7.54    0.84
   1 -12  -7   16.25    1.06
  -1  12   7   15.68    1.07
   0 -12  -7    8.78    0.84
   0  12   7    9.68    0.82
  -1 -12  -7   12.27    0.89
   2  12   7   29.45    1.46
   3  12   7   49.74    2.23
   3  12   7   53.64    2.25
   4  12   7   62.36    2.67
   5  12   7   16.74    1.08
   6  12   7    2.61    0.53
   7  12   7   15.40    1.11
   8 -13  -7    7.59    0.93
   7 -13  -7   14.91    1.23
   6 -13  -7   13.85    1.15
   5 -13  -7    8.22    0.89
   4 -13  -7    6.03    0.77
   3 -13  -7   10.20    0.92
   2 -13  -7    0.30    0.44
   1 -13  -7    4.47    0.63
   0  13   7    8.69    0.84
  -1 -13  -7    3.55    0.58
   2  13   7    0.38    0.31
   3  13   7   -0.30    0.26
   3  13   7   -0.18    0.28
   4  13   7    3.28    0.50
   5  13   7    0.10    0.33
   6  13   7    1.59    0.49
   8 -14  -7   14.95    1.31
   7 -14  -7   10.25    1.10
   6 -14  -7    3.36    0.71
   5 -14  -7    0.16    0.43
   4 -14  -7    1.90    0.55
   3 -14  -7   -0.06    0.39
   2 -14  -7    2.03    0.58
   1 -14  -7    3.10    0.62
   2  14   7   14.57    0.96
   3  14   7   28.84    1.48
   3  14   7   29.72    1.48
   4  14   7   19.59    1.16
   5  14   7    6.84    0.74
   7 -15  -7    4.59    0.79
   6 -15  -7   14.80    1.28
   5 -15  -7   10.23    1.06
   4 -15  -7    7.01    0.88
   3 -15  -7    3.96    0.69
   2 -15  -7   13.94    1.11
   1 -15  -7    0.46    0.47
   0 -15  -7    2.16    0.53
   1  15   7    0.79    0.39
   2  15   7    0.98    0.36
   3  15   7    4.07    0.54
   4  15   7    0.26    0.32
   6 -16  -7    0.58    0.53
   5 -16  -7    5.99    0.86
   4 -16  -7    3.58    0.77
   2 -16  -7   -0.01    0.48
   1 -16  -7    0.19    0.50
   1  16   7    3.21    0.55
   2  16   7    6.11    0.70
   3  16   7   12.16    0.89
   4  16   7    5.84    0.69
   5 -17  -7    6.71    0.98
   4 -17  -7    4.60    0.78
   3 -17  -7   12.18    1.24
   2 -17  -7    0.85    0.61
   1 -17  -7    0.50    0.54
   0  17   7    1.60    0.46
   1  17   7    0.59    0.35
   2  17   7    1.85    0.46
   3 -18  -7    1.71    0.68
   2 -18  -7   -0.31    0.56
   0  18   7    0.59    0.39
   2  18  -8    7.89    0.92
   1  18  -8    4.51    0.70
   0  18  -8    3.41    0.64
  -1  18  -8    4.04    0.71
  -2  18  -8   -0.07    0.49
   4  17  -8    2.45    0.63
   3  17  -8    4.59    0.72
   2  17  -8    1.49    0.53
   1  17  -8   -0.31    0.37
   0  17  -8    1.23    0.52
  -1  17  -8    0.42    0.41
  -2  17  -8    0.40    0.49
  -3  17  -8    1.38    0.55
   3 -17   8    0.96    0.56
  -4  17  -8    2.83    0.65
   4 -17   8    3.37    0.77
   5  16  -8   11.09    1.07
   4  16  -8   20.12    1.33
   3  16  -8    7.83    0.82
   2  16  -8   19.21    1.21
   1  16  -8   17.23    1.14
   0  16  -8    4.94    0.71
  -1  16  -8    0.24    0.42
  -2  16  -8    1.07    0.48
  -3  16  -8    0.76    0.48
   3 -16   8    1.28    0.51
  -4  16  -8    0.00    0.35
   4 -16   8   -0.02    0.48
  -5  16  -8    2.22    0.60
   5 -16   8    2.64    0.71
   6  15  -8   -0.62    0.42
   5  15  -8    0.83    0.43
   4  15  -8    1.24    0.50
   3  15  -8    0.92    0.40
   2  15  -8    5.22    0.66
   1  15  -8    1.83    0.49
   0  15  -8    2.15    0.52
  -1  15  -8    0.11    0.39
  -2  15  -8    0.92    0.45
   2 -15   8    0.06    0.38
  -3  15  -8    2.14    0.54
   3 -15   8    1.89    0.61
  -4  15  -8    5.51    0.70
   4 -15   8    5.65    0.83
  -5  15  -8    7.74    0.85
   5 -15   8    6.50    0.94
   6 -15   8    6.43    0.97
   7  14  -8    2.10    0.62
   7  14  -8    3.03    0.64
   6  14  -8    6.92    0.81
   5  14  -8   30.91    1.64
   4  14  -8   25.30    1.42
   3  14  -8   16.16    1.08
   2  14  -8   13.44    0.96
   1  14  -8   32.80    1.64
   0  14  -8   17.43    1.09
  -1  14  -8   20.83    1.25
  -2  14  -8    3.66    0.59
   2 -14   8    3.49    0.64
  -3  14  -8    6.10    0.73
   3 -14   8    6.19    0.84
  -4  14  -8    2.51    0.54
   4 -14   8    1.81    0.54
  -5  14  -8    0.93    0.46
   5 -14   8    1.66    0.64
   6 -14   8    1.86    0.68
   7  13  -8    2.93    0.58
   7  13  -8    2.57    0.62
   6  13  -8    2.09    0.54
   5  13  -8    4.21    0.64
   4  13  -8    2.27    0.49
   3  13  -8   10.53    0.81
   2  13  -8    1.50    0.40
   1  13  -8    1.35    0.37
   0  13  -8    1.62    0.44
  -1  13  -8    1.61    0.40
   1 -13   8    1.76    0.45
  -2  13  -8    1.15    0.41
   2 -13   8    0.74    0.39
   3 -13   8    2.03    0.57
  -4  13  -8    1.91    0.44
   4 -13   8    1.85    0.58
  -5  13  -8    4.24    0.62
   5 -13   8    6.22    0.81
   6 -13   8    4.40    0.78
   7 -13   8    5.43    0.90
   8  12  -8    2.94    0.63
   8  12  -8    2.72    0.65
   7  12  -8    2.29    0.57
   7  12  -8    2.56    0.55
   6  12  -8   11.51    0.91
   5  12  -8   13.44    0.98
   4  12  -8   24.65    1.31
   3  12  -8   20.70    1.18
   2  12  -8   50.29    2.21
   1  12  -8   29.62    1.47
   0  12  -8   54.11    2.36
  -1  12  -8   14.57    0.95
   1 -12   8   15.51    1.05
  -2  12  -8   25.13    1.34
   2 -12   8   24.87    1.44
  -3  12  -8    2.45    0.47
   3 -12   8    2.19    0.53
  -4  12  -8   11.05    0.82
   4 -12   8    9.47    0.97
  -5  12  -8    2.39    0.47
   5 -12   8    2.47    0.64
   6 -12   8    0.62    0.49
   7 -12   8   -0.32    0.45
   8  11  -8    9.93    0.87
   8  11  -8    8.49    0.97
   7  11  -8    4.56    0.61
   7  11  -8    5.00    0.72
   6  11  -8    0.14    0.37
   5  11  -8    0.03    0.33
   4  11  -8    1.58    0.40
   3  11  -8   27.57    1.38
   2  11  -8    5.45    0.58
   1  11  -8    4.10    0.52
   0  11  -8    6.15    0.60
  -1  11  -8   -0.04    0.24
   1 -11   8    0.59    0.33
  -2  11  -8    1.91    0.39
   2 -11   8    2.24    0.45
  -3  11  -8    2.68    0.45
   3 -11   8    2.76    0.55
  -4  11  -8    0.46    0.33
   4 -11   8    0.50    0.39
  -5  11  -8    1.21    0.37
   5 -11   8    1.33    0.50
   6 -11   8    3.23    0.67
   7 -11   8    4.44    0.77
   8 -11   8    7.85    1.06
   9  10  -8    0.33    0.39
   9  10  -8   -0.23    0.51
   8  10  -8   -0.25    0.44
   8  10  -8    1.07    0.45
   7  10  -8    8.22    0.74
   7  10  -8   10.24    0.91
   6  10  -8   11.73    0.88
   5  10  -8    6.05    0.64
   4  10  -8    6.17    0.61
   3  10  -8   40.64    1.83
   2  10  -8   25.37    1.26
   1  10  -8  128.06    4.95
   0  10  -8   52.42    2.27
   0 -10   8   55.76    2.37
  -1  10  -8   31.32    1.47
   1 -10   8   31.25    1.57
  -2  10  -8   16.45    1.00
   2 -10   8   23.69    1.23
  -3  10  -8    3.70    0.46
   3 -10   8    3.55    0.58
  -4  10  -8    0.05    0.29
   4 -10   8    1.08    0.41
  -5  10  -8   13.13    0.85
   5 -10   8   12.85    1.02
   6 -10   8    1.93    0.53
   7 -10   8    0.15    0.43
   8 -10   8   -0.39    0.42
   9   9  -8    7.05    0.88
   9   9  -8    6.89    0.75
   8   9  -8    5.50    0.78
   8   9  -8    5.84    0.70
   7   9  -8    0.77    0.46
   7   9  -8    0.43    0.33
   6   9  -8    4.13    0.58
   5   9  -8   14.76    0.93
   4   9  -8    6.84    0.60
   3   9  -8    0.80    0.27
   2   9  -8    0.80    0.30
   1   9  -8   25.60    1.23
   0   9  -8   10.05    0.66
   0  -9   8    9.21    0.70
  -1   9  -8    0.68    0.24
   1  -9   8    0.54    0.30
  -2   9  -8    1.12    0.30
   2  -9   8    0.89    0.35
  -3   9  -8    1.52    0.33
   3  -9   8    0.91    0.36
  -4   9  -8   -0.32    0.23
   4  -9   8    0.00    0.29
  -5   9  -8    5.47    0.54
   5  -9   8    5.31    0.72
   6  -9   8    1.08    0.50
   7  -9   8    0.69    0.49
   8  -9   8    5.15    0.80
   9  -9   8   10.35    1.19
  10   8  -8    1.57    0.54
   9   8  -8    1.19    0.51
   9   8  -8    1.12    0.45
   8   8  -8   -0.06    0.29
   8   8  -8    0.14    0.43
   7   8  -8    5.20    0.71
   7   8  -8    4.22    0.53
   6   8  -8    7.99    0.71
   5   8  -8    2.94    0.48
   4   8  -8   32.39    1.53
   3   8  -8   24.88    1.20
   2   8  -8   83.91    3.32
   1   8  -8  145.86    5.53
   0   8  -8  141.95    5.29
   0  -8   8  136.74    5.36
   1  -8   8   57.20    2.44
  -2   8  -8   54.63    2.23
   2  -8   8   54.81    2.37
   2  -8   8   53.77    2.25
  -3   8  -8   23.93    1.13
   3  -8   8   22.03    1.25
   3  -8   8   23.88    1.17
  -4   8  -8   14.86    0.82
   4  -8   8   14.13    0.97
  -5   8  -8    5.86    0.52
   5  -8   8    4.37    0.65
   6  -8   8    6.84    0.79
   7  -8   8   -0.14    0.38
   8  -8   8   -0.06    0.39
   9  -8   8    0.30    0.45
  10   7  -8    0.41    0.27
   9   7  -8    5.94    0.76
   8   7  -8    7.74    0.84
   7   7  -8    6.07    0.70
   6   7  -8   27.61    1.45
   5   7  -8    3.17    0.48
   4   7  -8    1.19    0.29
   3   7  -8    0.25    0.22
   2   7  -8    8.13    0.57
   1   7  -8    9.49    0.58
   0   7  -8    3.98    0.40
   0  -7   8    4.36    0.45
  -1   7  -8   19.81    0.95
   1  -7   8   19.84    1.02
   1  -7   8   19.77    1.04
  -2   7  -8   20.92    0.97
   2  -7   8   18.65    1.07
   2  -7   8   20.03    1.03
  -3   7  -8    2.17    0.30
   3  -7   8    1.45    0.32
   3  -7   8    0.90    0.30
  -4   7  -8    2.61    0.34
   4  -7   8    2.51    0.42
   4  -7   8    2.17    0.43
  -5   7  -8    0.83    0.26
   5  -7   8    1.06    0.36
   6  -7   8    1.31    0.43
   7  -7   8    0.43    0.40
   8  -7   8    4.09    0.68
   9  -7   8    4.85    0.82
  10   6  -8    1.21    0.43
   9   6  -8    4.30    0.66
   9   6  -8    5.47    0.65
   8   6  -8    0.62    0.42
   8   6  -8    0.54    0.29
   7   6  -8    1.33    0.35
   7   6  -8    1.40    0.48
   6   6  -8   -0.07    0.19
   6   6  -8   -0.03    0.29
   5   6  -8   40.67    1.84
   4   6  -8    5.55    0.54
   3   6  -8   19.80    1.00
   2   6  -8   60.81    2.43
   1   6  -8   67.99    2.72
  -1  -6   8   70.84    2.77
   0   6  -8   73.30    3.16
   0  -6   8   88.64    3.28
   0  -6   8   87.06    3.34
  -1   6  -8  111.59    4.32
   1  -6   8  115.07    4.44
   1  -6   8  116.58    4.46
  -2   6  -8   95.97    3.61
   2  -6   8   90.19    3.74
   2  -6   8   97.26    3.77
  -3   6  -8  113.38    4.18
   3  -6   8  110.26    4.35
   3  -6   8  106.02    4.34
  -4   6  -8   35.47    1.51
   4  -6   8   36.93    1.73
   4  -6   8   36.25    1.72
  -5   6  -8   43.79    1.90
   5  -6   8   45.58    2.07
   5  -6   8   42.36    2.03
   6  -6   8    8.37    0.83
   7  -6   8    1.15    0.41
   8  -6   8    2.19    0.55
   9  -6   8   -0.17    0.44
  10   5  -8   14.02    1.07
  10   5  -8   12.86    1.00
   9   5  -8   10.15    0.90
   9   5  -8   11.14    0.84
   8   5  -8    4.33    0.51
   8   5  -8    4.01    0.60
   7   5  -8   84.41    3.40
   7   5  -8   86.08    3.55
   6   5  -8    4.16    0.43
   6   5  -8    5.66    0.64
   5   5  -8   30.50    1.48
   4   5  -8   10.64    0.70
   3   5  -8   15.48    0.83
   2   5  -8   47.56    1.95
   1   5  -8    0.81    0.20
  -1  -5   8    0.85    0.21
   0  -5   8   26.67    1.31
   0  -5   8   27.93    1.23
  -1   5  -8   41.93    1.67
   1  -5   8   40.36    1.77
   1  -5   8   41.89    1.83
  -2   5  -8    5.48    0.37
   2  -5   8    5.39    0.52
   2  -5   8    5.15    0.47
  -3   5  -8    5.13    0.37
   3  -5   8    5.79    0.57
   3  -5   8    5.89    0.57
  -4   5  -8    3.51    0.32
   4  -5   8    3.39    0.49
   4  -5   8    2.70    0.46
   5  -5   8    5.89    0.63
   5  -5   8    5.89    0.66
   6  -5   8    1.45    0.43
   7  -5   8    1.68    0.47
   8  -5   8    0.80    0.46
   9  -5   8    2.29    0.58
  11   4  -8   -0.23    0.38
  10   4  -8    3.09    0.55
  10   4  -8    3.90    0.61
   9   4  -8   -0.27    0.27
   9   4  -8   -0.31    0.29
   8   4  -8    1.93    0.40
   8   4  -8    2.49    0.50
   7   4  -8    6.35    0.55
   7   4  -8    5.17    0.63
   6   4  -8    4.24    0.55
   6   4  -8    4.72    0.45
   5   4  -8    9.38    0.72
   5   4  -8    8.45    0.53
   4   4  -8    0.37    0.23
   3   4  -8    0.27    0.19
   2   4  -8   59.87    2.38
   1   4  -8   40.96    1.65
  -1  -4   8   37.53    1.78
  -1  -4   8   41.92    1.65
   0   4  -8   76.41    2.99
   0  -4   8   79.98    3.05
   0  -4   8   79.42    3.18
  -1   4  -8  129.99    4.64
   1  -4   8  122.73    4.84
   1  -4   8  119.63    4.72
  -2   4  -8  148.92    5.55
   2  -4   8  147.50    5.69
   2  -4   8  154.19    5.80
  -3   4  -8   58.78    2.28
   3  -4   8   58.83    2.48
   3  -4   8   61.29    2.58
  -4   4  -8   57.88    2.15
   4  -4   8   52.41    2.43
   4  -4   8   56.64    2.39
   5  -4   8   35.97    1.71
   6  -4   8    6.24    0.67
   7  -4   8   20.87    1.29
   8  -4   8    2.88    0.57
   9  -4   8   -0.38    0.42
  11   3  -8    6.41    0.80
  10   3  -8   15.90    1.06
  10   3  -8   13.94    1.03
   9   3  -8   10.76    0.85
   9   3  -8    9.17    0.75
   8   3  -8   56.90    2.41
   8   3  -8   57.07    2.51
   7   3  -8    9.89    0.81
   7   3  -8   12.45    0.72
   6   3  -8    9.78    0.73
   6   3  -8   10.48    0.61
   5   3  -8  107.13    4.08
   5   3  -8  107.94    4.24
   4   3  -8   45.84    1.99
   3   3  -8    1.47    0.30
   2   3  -8   95.15    3.61
  -2  -3   8   92.10    3.78
   1   3  -8    2.40    0.28
  -1  -3   8    2.17    0.36
  -1  -3   8    2.22    0.23
   0   3  -8    3.66    0.30
   0  -3   8    4.03    0.32
   0  -3   8    3.13    0.42
  -1   3  -8    1.28    0.18
   1  -3   8    2.06    0.27
   1  -3   8    1.42    0.31
  -2   3  -8   32.94    1.32
   2  -3   8   34.77    1.62
   2  -3   8   32.69    1.46
  -3   3  -8   26.84    1.06
   3  -3   8   27.04    1.25
   3  -3   8   25.20    1.34
  -4   3  -8   10.39    0.48
   4  -3   8   10.25    0.71
   5  -3   8    0.81    0.32
   6  -3   8   -0.08    0.30
   7  -3   8    4.66    0.64
   8  -3   8    0.53    0.43
   9  -3   8    0.80    0.45
  10  -3   8    4.13    0.78
  11   2  -8    2.41    0.55
  10   2  -8    0.64    0.35
  10   2  -8    0.39    0.36
   9   2  -8    1.63    0.42
   9   2  -8    2.53    0.44
   8   2  -8    6.82    0.70
   8   2  -8    5.57    0.57
   7   2  -8    5.02    0.48
   7   2  -8    4.74    0.58
   6   2  -8    0.02    0.26
   6   2  -8   -0.06    0.15
   5   2  -8    2.35    0.26
   5   2  -8    2.33    0.38
   4   2  -8    0.24    0.22
   4   2  -8    0.39    0.13
   3   2  -8   51.69    2.16
   2   2  -8   87.37    3.43
  -2  -2   8   90.40    3.59
  -1  -2   8   86.84    3.51
  -1  -2   8   88.03    3.28
   0   2  -8  121.25    4.43
   0  -2   8  116.36    4.44
  -1   2  -8  137.29    5.09
   1  -2   8  135.84    5.35
   1  -2   8  140.32    5.17
  -2   2  -8   56.18    2.15
   2  -2   8   56.16    2.45
   2  -2   8   58.58    2.30
  -3   2  -8   47.84    1.83
   3  -2   8   48.83    2.17
   3  -2   8   50.17    2.06
  -4   2  -8   67.65    2.60
   4  -2   8   74.96    2.91
   5  -2   8   16.15    0.98
   6  -2   8   33.50    1.68
   7  -2   8   15.41    1.05
   8  -2   8    6.03    0.79
   9  -2   8    3.98    0.72
  10  -2   8    0.22    0.52
  11   1  -8   11.35    1.01
  10   1  -8    2.87    0.52
  10   1  -8    2.96    0.52
   9   1  -8   25.65    1.38
   9   1  -8   28.75    1.45
   8   1  -8   49.80    2.25
   8   1  -8   56.53    2.36
   7   1  -8    4.60    0.45
   7   1  -8    2.96    0.47
   6   1  -8   25.88    1.33
   6   1  -8   28.71    1.22
   5   1  -8   57.95    2.48
   5   1  -8   62.07    2.34
   4   1  -8    2.39    0.21
   4   1  -8    2.33    0.35
   3   1  -8  132.89    5.05
   2   1  -8    2.17    0.30
  -2  -1   8    1.23    0.29
  -1  -1   8    4.90    0.46
  -1  -1   8    4.70    0.27
   0   1  -8    0.96    0.19
   0  -1   8    0.86    0.29
   0  -1   8    0.86    0.15
  -1   1  -8   21.40    0.89
   1  -1   8   20.76    0.93
   1  -1   8   19.68    1.12
  -2   1  -8   12.94    0.58
   2  -1   8   13.09    0.70
  -3   1  -8   65.29    2.39
   3  -1   8   64.01    2.62
   4  -1   8   28.78    1.37
   5  -1   8    1.76    0.36
   6  -1   8    2.52    0.45
   7  -1   8    0.13    0.36
   8  -1   8   -0.45    0.36
   9  -1   8    0.53    0.49
  10  -1   8   -0.19    0.45
  11   0  -8    0.26    0.41
  10   0  -8    3.24    0.53
  10   0  -8    2.27    0.49
   9   0  -8    9.20    0.75
   9   0  -8    9.69    0.81
   8   0  -8    2.86    0.48
   8   0  -8    1.73    0.36
   7   0  -8    0.76    0.28
   7   0  -8    0.23    0.21
   6   0  -8    4.27    0.39
   6   0  -8    4.61    0.50
   5   0  -8    0.43    0.15
   5   0  -8    0.35    0.24
   4   0  -8    4.02    0.27
   4   0  -8    3.93    0.41
   3   0  -8   27.61    1.08
   3   0  -8   27.32    1.26
  -3   0   8   29.40    1.41
   2   0  -8    2.37    0.31
  -2   0   8    1.97    0.36
   1   0  -8   29.85    1.27
  -1   0   8   30.99    1.16
  -1   0   8   29.16    1.43
   0   0  -8   96.61    3.56
   0   0   8   94.42    3.52
   0   0   8   92.66    3.79
  -1   0  -8  292.21   10.41
   1   0   8  283.42   10.72
   1   0   8  281.53   10.46
  -2   0  -8  163.18    6.02
   2   0   8  166.70    6.37
   2   0   8  165.49    6.16
   3   0   8   61.40    2.47
   4   0   8   28.06    1.32
   5   0   8   70.63    2.92
   6   0   8   82.99    3.42
   7   0   8   15.20    1.02
   8   0   8    5.08    0.69
   9   0   8   11.94    1.14
  10   0   8    0.32    0.52
  10  -1  -8    9.32    0.89
  10  -1  -8   11.32    0.87
   9  -1  -8   14.12    0.96
   9  -1  -8   15.97    1.00
   8  -1  -8   30.84    1.51
   8  -1  -8   33.49    1.61
   7  -1  -8   36.03    1.63
   7  -1  -8   32.26    1.51
   6  -1  -8   62.37    2.49
   6  -1  -8   56.38    2.35
   5  -1  -8    8.93    0.62
   5  -1  -8    8.72    0.49
   4  -1  -8   39.67    1.56
   4  -1  -8   40.68    1.74
   3  -1  -8   29.95    1.37
   3  -1  -8   30.77    1.18
  -3   1   8   32.51    1.51
   2  -1  -8    0.14    0.17
  -2   1   8   -0.16    0.16
   1  -1  -8    2.43    0.29
  -1   1   8    2.35    0.37
  -1   1   8    2.33    0.14
   0  -1  -8    8.73    0.49
   0   1   8    9.51    0.69
   0   1   8    9.46    0.45
  -1  -1  -8    0.81    0.15
   1   1   8    0.86    0.32
   1   1   8    0.99    0.18
  -2  -1  -8   16.52    0.67
   2   1   8   16.22    0.79
   3   1   8   13.72    0.73
   4   1   8    5.57    0.51
   5   1   8    0.00    0.22
   6   1   8    5.23    0.59
   7   1   8    1.69    0.42
   8   1   8    0.24    0.41
   9   1   8   -0.31    0.42
  10  -2  -8    1.03    0.43
  10  -2  -8    1.31    0.41
   9  -2  -8   14.33    0.98
   9  -2  -8   14.51    0.97
   8  -2  -8    0.46    0.30
   8  -2  -8    1.00    0.35
   7  -2  -8    0.79    0.30
   7  -2  -8    0.53    0.25
   6  -2  -8   25.59    1.16
   6  -2  -8   25.70    1.29
   5  -2  -8    0.01    0.22
   5  -2  -8    0.18    0.14
   4  -2  -8    2.96    0.24
   4  -2  -8    2.48    0.35
   3  -2  -8   14.02    0.76
   3  -2  -8   13.68    0.55
  -3   2   8   14.38    0.87
   2  -2  -8    2.54    0.31
  -2   2   8    1.84    0.35
   1  -2  -8   15.90    0.78
  -1   2   8   16.07    0.61
  -1   2   8   15.22    0.93
   0  -2  -8    0.37    0.15
   0   2   8    0.39    0.10
   0   2   8    0.24    0.23
  -1  -2  -8   72.40    2.68
   1   2   8   70.98    2.68
   1   2   8   68.42    2.95
  -2  -2  -8  429.08   15.59
   2   2   8  432.03   15.69
   3   2   8   41.06    1.71
   4   2   8   37.47    1.63
   5   2   8   52.28    2.22
   6   2   8   11.52    0.80
   7   2   8   18.21    1.10
   8   2   8   36.31    1.87
   9   2   8    6.18    0.78
  11  -3  -8    3.90    0.90
  10  -3  -8    9.83    0.86
   9  -3  -8   12.98    0.95
   9  -3  -8   12.93    0.91
   8  -3  -8   14.25    0.95
   8  -3  -8   13.57    0.88
   7  -3  -8   56.71    2.48
   7  -3  -8   58.09    2.39
   6  -3  -8   54.54    2.36
   6  -3  -8   55.84    2.24
   5  -3  -8   91.69    3.54
   5  -3  -8   95.33    3.71
   4  -3  -8  228.98    8.49
   4  -3  -8  237.02    8.70
   3  -3  -8   63.77    2.37
   3  -3  -8   63.86    2.59
  -3   3   8   65.33    2.70
   2  -3  -8    0.96    0.23
  -2   3   8    0.77    0.26
   1  -3  -8    9.98    0.57
  -1   3   8    9.53    0.40
  -1   3   8   10.13    0.72
   0  -3  -8   67.06    2.59
   0   3   8   66.11    2.49
   0   3   8   67.14    2.84
  -1  -3  -8    1.30    0.20
   1   3   8    1.43    0.19
   1   3   8    1.15    0.32
  -2  -3  -8    0.72    0.15
   2   3   8    0.69    0.17
   3   3   8   33.42    1.44
   3   3   8   33.71    1.25
   4   3   8   33.15    1.48
   5   3   8    2.35    0.36
   6   3   8    3.89    0.52
   7   3   8    5.09    0.62
   8   3   8    2.03    0.53
   9   3   8    0.87    0.45
  11  -4  -8   -0.05    0.36
  10  -4  -8    2.69    0.53
   9  -4  -8    3.88    0.59
   9  -4  -8    3.72    0.52
   8  -4  -8    5.66    0.65
   8  -4  -8    7.46    0.63
   7  -4  -8    3.86    0.44
   7  -4  -8    3.81    0.54
   6  -4  -8   15.99    0.96
   6  -4  -8   15.48    0.80
   5  -4  -8    6.05    0.60
   5  -4  -8    6.99    0.42
   4  -4  -8    0.06    0.21
   4  -4  -8    0.02    0.10
  -4   4   8   -0.09    0.24
   3  -4  -8   22.82    0.91
   3  -4  -8   24.44    1.15
  -3   4   8   22.75    1.19
   2  -4  -8    5.22    0.46
  -2   4   8    4.93    0.49
   1  -4  -8    4.87    0.40
  -1   4   8    4.90    0.24
  -1   4   8    4.38    0.52
   0  -4  -8    3.97    0.36
   0   4   8    3.94    0.25
   0   4   8    4.42    0.53
  -1  -4  -8   82.73    3.12
   1   4   8   79.91    3.06
  -2  -4  -8   14.04    0.65
   2   4   8   14.05    0.69
   3   4   8   31.32    1.22
   3   4   8   32.00    1.37
   4   4   8   50.76    2.11
   5   4   8   43.16    1.90
   6   4   8   25.54    1.32
   7   4   8   21.36    1.25
   8   4   8    4.34    0.64
   9   4   8   13.51    1.08
  11  -5  -8    2.53    0.60
  10  -5  -8    1.45    0.49
   9  -5  -8    9.95    0.95
   8  -5  -8   36.93    1.70
   8  -5  -8   38.04    1.86
   7  -5  -8   31.09    1.43
   7  -5  -8   32.31    1.61
   6  -5  -8   35.19    1.68
   6  -5  -8   34.79    1.50
   5  -5  -8   66.97    2.75
   5  -5  -8   63.89    2.52
   4  -5  -8   79.66    3.04
   4  -5  -8   83.23    3.29
  -4   5   8   80.13    3.31
   3  -5  -8   25.22    1.01
   3  -5  -8   26.42    1.25
  -3   5   8   24.64    1.27
   2  -5  -8   60.77    2.40
  -2   5   8   54.95    2.47
   1  -5  -8  121.20    4.68
  -1   5   8  123.62    4.86
   0  -5  -8   40.14    1.73
   0   5   8   40.67    1.92
   0   5   8   42.31    1.60
  -1  -5  -8   15.19    0.76
   1   5   8   15.08    0.69
  -2  -5  -8   25.28    1.10
   2   5   8   26.16    1.11
   3   5   8    9.40    0.57
   3   5   8    8.97    0.46
   4   5   8   15.81    0.85
   5   5   8    1.17    0.30
   6   5   8    6.67    0.67
   7   5   8   12.16    0.89
   8   5   8   -0.03    0.39
   9   5   8   -0.10    0.45
  11  -6  -8    0.37    0.45
  10  -6  -8    1.08    0.46
   9  -6  -8    0.06    0.34
   8  -6  -8    0.25    0.32
   8  -6  -8    0.23    0.40
   7  -6  -8   27.68    1.46
   7  -6  -8   26.18    1.26
   6  -6  -8   28.37    1.29
   6  -6  -8   30.55    1.52
   5  -6  -8   12.50    0.65
   5  -6  -8   12.27    0.85
   4  -6  -8   14.00    0.88
   4  -6  -8   13.83    0.66
  -4   6   8   13.77    0.86
   3  -6  -8    0.09    0.24
  -3   6   8    0.07    0.20
   2  -6  -8    4.09    0.46
  -2   6   8    4.20    0.50
   1  -6  -8   11.34    0.74
  -1   6   8   14.40    0.91
   0  -6  -8    0.60    0.23
   0   6   8    0.94    0.32
  -1  -6  -8   33.66    1.44
   1   6   8   32.43    1.35
  -2  -6  -8    5.86    0.42
   2   6   8    6.05    0.42
   3   6   8   39.53    1.58
   3   6   8   39.00    1.66
   4   6   8   33.55    1.51
   5   6   8   15.42    0.92
   6   6   8   71.71    3.00
   7   6   8    8.78    0.77
   8   6   8   12.45    1.10
   9   6   8    9.34    0.95
  10  -7  -8    0.74    0.45
   9  -7  -8    5.68    0.77
   8  -7  -8    0.35    0.38
   7  -7  -8    2.09    0.35
   7  -7  -8    2.06    0.47
   6  -7  -8   66.42    2.66
   6  -7  -8   67.29    2.91
   5  -7  -8   71.19    2.79
   5  -7  -8   72.07    3.05
   4  -7  -8   57.30    2.26
   4  -7  -8   56.74    2.49
  -4   7   8   58.66    2.46
   3  -7  -8   10.34    0.76
  -3   7   8   10.65    0.73
   2  -7  -8   26.83    1.36
  -2   7   8   28.73    1.42
  -1   7   8   59.69    2.63
   0  -7  -8   15.79    0.87
   0   7   8   15.31    0.98
  -1  -7  -8   18.53    0.97
   1   7   8   20.07    0.89
  -2  -7  -8   16.46    0.85
   2   7   8   17.06    0.82
   3   7   8    2.57    0.33
   3   7   8    2.64    0.29
   4   7   8    9.67    0.67
   5   7   8    1.56    0.35
   6   7   8    2.94    0.48
   7   7   8    0.70    0.40
   8   7   8    1.33    0.50
  10  -8  -8    0.59    0.43
   9  -8  -8    2.05    0.57
   8  -8  -8   -0.12    0.36
   7  -8  -8    2.48    0.52
   6  -8  -8    3.11    0.52
   6  -8  -8    2.71    0.36
   5  -8  -8   17.80    1.14
   5  -8  -8   19.57    0.93
   4  -8  -8    0.33    0.33
   4  -8  -8    0.45    0.19
  -4   8   8    0.56    0.27
   3  -8  -8    7.06    0.69
  -3   8   8    6.12    0.58
   2  -8  -8    3.97    0.52
  -2   8   8    5.21    0.59
  -1   8   8    2.07    0.42
   0  -8  -8   -0.12    0.20
   0   8   8    0.03    0.27
  -1  -8  -8    0.64    0.25
   1   8   8    0.45    0.18
  -2  -8  -8   -0.10    0.19
   2   8   8   -0.09    0.17
   3   8   8   16.42    0.87
   3   8   8   16.26    0.82
   4   8   8    1.62    0.32
   5   8   8   40.76    1.84
   6   8   8   27.43    1.44
   7   8   8    8.24    0.80
   8   8   8   14.58    1.15
  10  -9  -8    1.24    0.54
   9  -9  -8    0.84    0.50
   8  -9  -8    1.01    0.45
   7  -9  -8   10.73    0.92
   6  -9  -8   22.04    1.35
   5  -9  -8   56.59    2.25
   5  -9  -8   52.52    2.48
   4  -9  -8   51.29    2.06
   4  -9  -8   49.55    2.31
  -4   9   8   49.82    2.19
   3  -9  -8   57.90    2.58
  -3   9   8   59.59    2.54
   2  -9  -8   43.99    1.99
  -2   9   8   41.43    1.97
  -1   9   8   31.32    1.62
   0  -9  -8   16.26    0.99
   0   9   8   18.90    1.13
  -1  -9  -8    6.13    0.59
  -2  -9  -8    0.15    0.23
   2   9   8    0.23    0.21
   3   9   8    4.42    0.44
   3   9   8    3.07    0.39
   4   9   8    0.57    0.30
   5   9   8    0.11    0.31
   6   9   8    0.87    0.40
   7   9   8    0.50    0.47
   8   9   8    0.51    0.43
  10 -10  -8    0.58    0.52
   9 -10  -8    0.06    0.44
   8 -10  -8    0.21    0.42
   7 -10  -8    0.72    0.45
   6 -10  -8    6.96    0.79
   5 -10  -8    2.84    0.40
   5 -10  -8    2.57    0.53
   4 -10  -8    1.98    0.51
  -4  10   8    1.74    0.44
   3 -10  -8    7.87    0.81
  -3  10   8    8.66    0.70
   2 -10  -8   16.86    1.07
  -2  10   8   18.30    1.09
   1 -10  -8    3.30    0.51
  -1  10   8    3.93    0.59
   0 -10  -8    3.16    0.47
   0  10   8    3.28    0.54
  -1 -10  -8    1.77    0.38
  -2 -10  -8   23.51    1.19
   2  10   8   21.73    1.09
   3  10   8    0.21    0.23
   3  10   8    0.04    0.26
   4  10   8    3.94    0.51
   5  10   8   23.91    1.27
   6  10   8    2.09    0.48
   7  10   8    5.80    0.71
   9 -11  -8   -0.02    0.45
   8 -11  -8    4.79    0.77
   7 -11  -8    8.08    0.92
   6 -11  -8   13.83    1.10
   5 -11  -8   18.90    1.27
   4 -11  -8   16.78    1.14
   3 -11  -8   36.84    1.85
  -3  11   8   34.97    1.84
   2 -11  -8   62.92    2.78
  -2  11   8   62.51    2.75
   1 -11  -8   40.66    1.94
  -1  11   8   39.94    2.01
   0 -11  -8   41.03    1.92
   0  11   8   39.25    1.99
  -1 -11  -8   25.06    1.33
   2  11   8   56.43    2.35
   3  11   8    5.63    0.55
   3  11   8    5.87    0.57
   4  11   8    0.77    0.35
   5  11   8    0.78    0.35
   6  11   8    0.02    0.36
   7  11   8    1.72    0.54
   9 -12  -8    0.58    0.55
   8 -12  -8    0.29    0.47
   7 -12  -8    0.80    0.47
   6 -12  -8    3.42    0.65
   5 -12  -8   -0.27    0.40
   4 -12  -8   11.58    1.02
   3 -12  -8   23.80    1.44
   2 -12  -8    2.42    0.54
  -2  12   8    1.64    0.49
   1 -12  -8   14.76    1.03
  -1  12   8   15.60    1.09
   0 -12  -8    4.07    0.59
   0  12   8    3.62    0.59
  -1 -12  -8    0.97    0.39
   2  12   8   -0.01    0.26
   2  12   8    0.17    0.29
   3  12   8    0.06    0.30
   3  12   8    0.10    0.28
   4  12   8    0.57    0.34
   5  12   8    6.40    0.70
   6  12   8    4.16    0.64
   8 -13  -8    0.81    0.52
   7 -13  -8    3.66    0.74
   6 -13  -8    1.84    0.59
   5 -13  -8    8.65    0.94
   4 -13  -8    6.01    0.77
   3 -13  -8   31.59    1.74
   2 -13  -8   50.12    2.40
   1 -13  -8   30.73    1.64
  -1  13   8   29.59    1.85
   0 -13  -8    3.05    0.56
   0  13   8    3.31    0.62
  -1 -13  -8   17.04    1.11
   2  13   8   28.01    1.45
   3  13   8   22.95    1.24
   4  13   8    3.29    0.50
   5  13   8    2.54    0.49
   6  13   8    0.20    0.41
   8 -14  -8    5.70    0.85
   7 -14  -8   -0.21    0.47
   6 -14  -8   -0.30    0.39
   5 -14  -8   -0.13    0.46
   4 -14  -8    4.43    0.77
   3 -14  -8    4.76    0.76
   2 -14  -8    6.07    0.78
   1 -14  -8    7.76    0.86
   0 -14  -8    5.43    0.75
   2  14   8    0.35    0.29
   3  14   8    1.13    0.35
   4  14   8    0.14    0.29
   5  14   8    0.24    0.34
   7 -15  -8   -0.61    0.46
   6 -15  -8    0.59    0.48
   5 -15  -8    0.45    0.55
   4 -15  -8   10.60    1.11
   3 -15  -8   11.29    1.14
   2 -15  -8   30.79    1.80
   1 -15  -8   16.12    1.23
   0 -15  -8    3.16    0.62
   1  15   8   10.31    0.83
   2  15   8   10.73    0.83
   3  15   8    4.16    0.56
   4  15   8   10.61    0.84
   6 -16  -8   -0.29    0.49
   5 -16  -8    0.24    0.55
   4 -16  -8    0.46    0.49
   3 -16  -8    2.56    0.64
   2 -16  -8    1.72    0.57
   1 -16  -8    0.63    0.56
   0 -16  -8    0.19    0.32
   1  16   8    5.26    0.69
   2  16   8    0.60    0.34
   3  16   8    0.30    0.33
   5 -17  -8    0.89    0.57
   4 -17  -8    2.73    0.76
   3 -17  -8    6.56    0.99
   2 -17  -8    7.55    1.00
   1 -17  -8   10.25    1.13
   1  17   8   15.41    1.10
   2  17   8   14.26    1.05
   2 -18  -8    1.61    0.70
   1  18  -9    5.93    0.83
   0  18  -9    2.49    0.59
  -1  18  -9    7.34    0.87
   4  17  -9   -0.06    0.46
   3  17  -9    0.51    0.46
   2  17  -9    0.58    0.45
   1  17  -9    0.69    0.48
   0  17  -9    3.50    0.67
  -1  17  -9    0.85    0.53
  -2  17  -9   -0.12    0.39
  -3  17  -9    3.91    0.72
   3 -17   9    4.21    0.86
   5  16  -9    0.15    0.42
   4  16  -9    0.89    0.51
   3  16  -9    4.33    0.67
   2  16  -9    2.82    0.58
   1  16  -9    4.33    0.63
   0  16  -9   17.16    1.19
  -1  16  -9   27.14    1.56
  -2  16  -9   21.31    1.34
   2 -16   9   19.54    1.40
  -3  16  -9   12.38    1.06
   3 -16   9   14.11    1.18
  -4  16  -9    7.72    0.86
   4 -16   9    9.84    1.12
   6  15  -9   12.92    1.14
   5  15  -9    0.55    0.47
   4  15  -9    5.21    0.70
   3  15  -9   10.40    0.97
   2  15  -9    0.93    0.44
   1  15  -9    0.82    0.46
   0  15  -9    0.75    0.38
  -1  15  -9   10.49    0.92
  -2  15  -9    5.68    0.73
   2 -15   9    5.77    0.78
  -3  15  -9    1.09    0.47
   3 -15   9    0.00    0.49
  -4  15  -9    3.20    0.61
   4 -15   9    3.07    0.75
  -5  15  -9    4.00    0.65
   5 -15   9    3.04    0.77
   7  14  -9    1.53    0.60
   6  14  -9   -0.18    0.45
   5  14  -9   -0.14    0.40
   4  14  -9    0.49    0.41
   3  14  -9    0.18    0.32
   2  14  -9    1.11    0.41
   1  14  -9    9.01    0.84
   0  14  -9   16.22    1.08
  -1  14  -9   15.58    1.06
  -2  14  -9   13.48    0.99
   2 -14   9   13.78    1.11
   3 -14   9   24.86    1.54
  -4  14  -9   16.05    1.10
   4 -14   9   17.40    1.33
  -5  14  -9   11.86    0.93
   5 -14   9    9.44    1.12
   6 -14   9    7.36    1.04
   7  13  -9   13.50    1.15
   6  13  -9    7.70    0.83
   5  13  -9    8.07    0.83
   4  13  -9   21.98    1.28
   3  13  -9   11.15    0.85
   2  13  -9    3.04    0.52
   1  13  -9    6.95    0.72
   0  13  -9   -0.18    0.32
  -1  13  -9    8.89    0.79
   1 -13   9   10.42    0.97
  -2  13  -9    3.75    0.52
   2 -13   9    3.81    0.61
  -3  13  -9    1.90    0.46
   3 -13   9    1.17    0.45
  -4  13  -9    1.03    0.41
   4 -13   9    0.53    0.45
  -5  13  -9    1.99    0.47
   5 -13   9    1.86    0.57
   6 -13   9    2.08    0.66
   7 -13   9    1.69    0.68
   8  12  -9    1.53    0.63
   8  12  -9    1.36    0.52
   7  12  -9    3.07    0.57
   7  12  -9    3.74    0.69
   6  12  -9   -0.34    0.39
   5  12  -9    0.45    0.40
   4  12  -9    2.75    0.51
   3  12  -9    0.64    0.37
   2  12  -9    0.07    0.32
   1  12  -9    3.59    0.52
   0  12  -9   33.97    1.62
  -1  12  -9    3.71    0.54
   1 -12   9    4.39    0.64
  -2  12  -9    1.65    0.40
   2 -12   9    2.40    0.55
  -3  12  -9   31.78    1.59
   3 -12   9   33.24    1.79
  -4  12  -9   28.38    1.44
   4 -12   9   27.09    1.63
  -5  12  -9   14.51    0.95
   5 -12   9   14.47    1.21
   6 -12   9   10.89    1.16
   7 -12   9    7.46    0.97
   8  11  -9   20.90    1.33
   8  11  -9   21.36    1.46
   7  11  -9    8.94    0.84
   7  11  -9   10.19    1.00
   6  11  -9   11.56    0.91
   5  11  -9   37.23    1.83
   4  11  -9   28.21    1.44
   3  11  -9    6.12    0.65
   2  11  -9   22.71    1.22
   1  11  -9    4.83    0.54
   0  11  -9   -0.16    0.25
   0 -11   9    0.10    0.31
  -1  11  -9    3.72    0.47
   1 -11   9    3.90    0.55
  -2  11  -9    0.35    0.24
   2 -11   9    0.79    0.41
  -3  11  -9    2.86    0.45
   3 -11   9    1.53    0.45
  -4  11  -9    6.32    0.63
   4 -11   9    4.92    0.71
  -5  11  -9    1.90    0.41
   5 -11   9    4.04    0.71
   6 -11   9    4.66    0.79
   7 -11   9    0.76    0.53
   8 -11   9    3.00    0.74
   9  10  -9   -0.93    0.46
   9  10  -9   -0.34    0.38
   8  10  -9    0.52    0.53
   8  10  -9    1.33    0.46
   7  10  -9    0.01    0.40
   7  10  -9    0.13    0.34
   6  10  -9   -0.16    0.37
   5  10  -9   -0.08    0.28
   4  10  -9    7.11    0.65
   3  10  -9    1.08    0.32
   2  10  -9    0.08    0.28
   1  10  -9   13.80    0.83
   0  10  -9    8.09    0.64
   0 -10   9    7.93    0.67
  -1  10  -9    2.54    0.41
   1 -10   9    4.00    0.55
  -2  10  -9    9.48    0.66
   2 -10   9    9.12    0.77
  -3  10  -9   37.23    1.66
   3 -10   9   35.18    1.84
  -4  10  -9   37.40    1.71
   4 -10   9   37.66    1.92
  -5  10  -9   18.35    1.04
   5 -10   9   21.83    1.35
   6 -10   9   14.92    1.20
   7 -10   9   12.25    1.22
   8 -10   9    5.27    0.87
   9   9  -9    8.98    0.88
   9   9  -9    7.31    0.92
   8   9  -9   19.57    1.17
   8   9  -9   16.94    1.29
   7   9  -9   18.03    1.23
   7   9  -9   18.66    1.07
   6   9  -9   39.12    1.91
   5   9  -9   60.00    2.59
   4   9  -9   13.50    0.89
   3   9  -9   43.40    1.92
   2   9  -9   45.49    1.97
   1   9  -9    8.39    0.63
   0   9  -9    9.98    0.65
   0  -9   9    9.89    0.70
   1  -9   9    1.89    0.41
  -2   9  -9    0.05    0.22
   2  -9   9   -0.10    0.24
   2  -9   9    0.35    0.28
  -3   9  -9    1.21    0.31
   3  -9   9    0.97    0.38
  -4   9  -9    1.59    0.34
   4  -9   9    1.74    0.47
  -5   9  -9   22.53    1.16
   5  -9   9   24.08    1.41
   6  -9   9    2.92    0.63
   7  -9   9    0.21    0.46
   8  -9   9    1.34    0.54
  10   8  -9    0.07    0.25
   9   8  -9    0.06    0.23
   9   8  -9   -0.63    0.38
   8   8  -9    1.50    0.55
   8   8  -9    0.23    0.22
   7   8  -9    0.09    0.19
   7   8  -9    0.53    0.40
   6   8  -9   11.59    0.90
   5   8  -9    0.05    0.30
   4   8  -9   -0.29    0.21
   3   8  -9   13.62    0.81
   2   8  -9    5.48    0.49
   1   8  -9    0.41    0.25
   0   8  -9    0.07    0.22
   0  -8   9   -0.23    0.21
  -1   8  -9    8.41    0.57
   1  -8   9    8.20    0.66
   1  -8   9    7.63    0.62
  -2   8  -9   47.39    1.99
   2  -8   9   46.57    2.15
   2  -8   9   49.39    2.08
  -3   8  -9   30.34    1.36
   3  -8   9   29.64    1.53
   3  -8   9   30.25    1.52
  -4   8  -9   38.37    1.68
   4  -8   9   39.78    1.93
   5  -8   9   27.17    1.51
   6  -8   9   17.68    1.20
   7  -8   9   20.15    1.37
   8  -8   9   21.12    1.48
   9  -8   9    5.15    0.85
  10   7  -9    0.89    0.49
  10   7  -9    2.57    0.58
   9   7  -9   11.26    0.86
   9   7  -9    7.57    0.86
   8   7  -9    3.74    0.64
   8   7  -9    4.19    0.55
   7   7  -9   30.82    1.49
   7   7  -9   30.25    1.66
   6   7  -9  103.92    4.22
   5   7  -9   16.95    1.00
   4   7  -9   35.51    1.64
   3   7  -9   21.59    1.08
   2   7  -9   37.80    1.64
   1   7  -9   65.99    2.64
   0   7  -9   83.88    3.32
   0  -7   9   87.14    3.41
  -1   7  -9   32.25    1.40
   1  -7   9   31.68    1.51
   1  -7   9   32.06    1.51
  -2   7  -9    0.84    0.23
   2  -7   9    1.19    0.30
   2  -7   9    0.41    0.28
  -3   7  -9    0.66    0.22
   3  -7   9    0.47    0.30
   3  -7   9   -0.07    0.24
  -4   7  -9    2.82    0.35
   4  -7   9    2.98    0.49
   4  -7   9    2.79    0.47
   5  -7   9    0.64    0.36
   6  -7   9    6.27    0.75
   7  -7   9    1.95    0.51
   8  -7   9    3.12    0.69
   9  -7   9    2.15    0.63
  10   6  -9   -0.03    0.41
  10   6  -9   -0.27    0.38
   9   6  -9   -0.14    0.38
   9   6  -9   -0.17    0.29
   8   6  -9    0.14    0.27
   8   6  -9    0.08    0.36
   7   6  -9    0.02    0.40
   7   6  -9    0.47    0.28
   6   6  -9    8.30    0.74
   6   6  -9    8.30    0.61
   5   6  -9   30.72    1.51
   4   6  -9   40.70    1.80
   3   6  -9    0.11    0.20
   2   6  -9    2.23    0.34
   1   6  -9    0.79    0.24
  -1  -6   9    0.91    0.24
   0  -6   9   13.00    0.75
   0  -6   9   12.93    0.83
  -1   6  -9    9.83    0.58
   1  -6   9   11.31    0.74
   1  -6   9    9.03    0.66
  -2   6  -9    0.20    0.18
   2  -6   9    0.55    0.26
   2  -6   9    0.40    0.25
  -3   6  -9   23.04    1.06
   3  -6   9   23.07    1.24
   3  -6   9   24.78    1.28
  -4   6  -9   26.69    1.19
   4  -6   9   28.70    1.44
   4  -6   9   26.94    1.44
   5  -6   9   14.55    1.03
   5  -6   9   14.36    0.99
   6  -6   9   15.51    1.09
   7  -6   9   24.27    1.47
   8  -6   9   20.50    1.39
   9  -6   9    6.59    0.91
  10   5  -9    2.69    0.57
  10   5  -9    2.90    0.54
   9   5  -9    5.05    0.69
   9   5  -9    4.46    0.56
   8   5  -9    3.52    0.50
   8   5  -9    3.72    0.62
   7   5  -9   64.06    2.80
   7   5  -9   64.13    2.64
   6   5  -9   11.10    0.85
   6   5  -9   12.04    0.71
   5   5  -9   57.09    2.46
   4   5  -9  140.82    5.41
   3   5  -9   37.83    1.65
   2   5  -9   88.57    3.45
   1   5  -9  133.15    5.04
  -1  -5   9  135.12    5.06
  -1  -5   9  132.70    5.23
   0   5  -9   50.50    2.03
   0  -5   9   49.78    2.09
   0  -5   9   51.87    2.22
  -1   5  -9   16.71    0.79
   1  -5   9   15.64    0.87
   1  -5   9   17.48    0.98
  -2   5  -9   22.96    1.00
   2  -5   9   23.44    1.22
   2  -5   9   21.68    1.13
  -3   5  -9    5.53    0.38
   3  -5   9    4.84    0.52
   3  -5   9    5.30    0.60
  -4   5  -9    0.12    0.15
   4  -5   9   -0.12    0.28
   4  -5   9   -0.10    0.21
   5  -5   9    2.96    0.47
   5  -5   9    2.69    0.51
   6  -5   9    0.18    0.33
   6  -5   9    0.79    0.41
   7  -5   9    5.71    0.72
   8  -5   9    3.73    0.69
   9  -5   9    0.42    0.42
  11   4  -9    3.86    0.65
  10   4  -9    0.88    0.44
  10   4  -9    0.33    0.36
   9   4  -9    0.14    0.37
   9   4  -9    0.86    0.35
   8   4  -9    0.43    0.28
   8   4  -9    0.14    0.37
   7   4  -9    0.29    0.24
   7   4  -9    0.09    0.36
   6   4  -9    3.40    0.38
   6   4  -9    2.61    0.46
   5   4  -9    2.02    0.27
   5   4  -9    2.15    0.44
   4   4  -9    0.56    0.26
   3   4  -9   17.17    0.90
   2   4  -9   30.71    1.36
   1   4  -9   34.61    1.45
  -1  -4   9   33.88    1.44
   0   4  -9    3.89    0.34
   0  -4   9    4.07    0.51
   0  -4   9    4.32    0.37
  -1   4  -9    7.42    0.43
   1  -4   9    7.25    0.51
   1  -4   9    5.89    0.58
  -2   4  -9    1.51    0.21
   2  -4   9    1.50    0.28
   2  -4   9    1.38    0.35
  -3   4  -9   12.75    0.60
   3  -4   9   11.63    0.87
   3  -4   9   12.78    0.79
  -4   4  -9   16.97    0.75
   4  -4   9   16.30    1.06
   4  -4   9   17.47    1.00
   5  -4   9    5.74    0.62
   5  -4   9    6.02    0.72
   6  -4   9   19.08    1.15
   7  -4   9   38.88    1.96
   8  -4   9   13.36    1.08
   9  -4   9    6.41    0.87
  11   3  -9   -0.03    0.39
  10   3  -9    0.54    0.38
  10   3  -9    1.33    0.44
   9   3  -9    0.89    0.41
   9   3  -9    0.47    0.31
   8   3  -9   17.83    1.09
   8   3  -9   17.86    1.01
   7   3  -9   18.71    0.95
   7   3  -9   16.98    1.08
   6   3  -9   35.30    1.67
   6   3  -9   34.28    1.49
   5   3  -9  110.89    4.36
   5   3  -9  109.56    4.17
   4   3  -9   42.72    1.89
   3   3  -9   76.34    3.05
   2   3  -9  197.69    7.22
  -2  -3   9  188.99    7.40
  -1  -3   9  121.70    4.56
  -1  -3   9  121.47    4.79
   0   3  -9   71.63    2.55
   0  -3   9   56.79    2.71
   0  -3   9   66.66    2.56
  -1   3  -9   29.20    1.21
   1  -3   9   29.26    1.29
   1  -3   9   29.19    1.47
  -2   3  -9   46.27    1.85
   2  -3   9   48.66    2.00
   2  -3   9   48.97    2.18
  -3   3  -9    4.63    0.30
   3  -3   9    4.57    0.49
   3  -3   9    5.26    0.63
   4  -3   9    3.84    0.55
   4  -3   9    3.25    0.44
   5  -3   9    1.13    0.34
   6  -3   9    0.27    0.34
   7  -3   9   -0.31    0.29
   8  -3   9    1.63    0.51
   9  -3   9    3.16    0.63
  11   2  -9    0.40    0.48
  10   2  -9    9.98    0.84
  10   2  -9    7.40    0.77
   9   2  -9    2.45    0.45
   9   2  -9    2.83    0.52
   8   2  -9    1.29    0.33
   8   2  -9    2.04    0.43
   7   2  -9    0.39    0.35
   7   2  -9    1.09    0.26
   6   2  -9    0.57    0.19
   6   2  -9    0.47    0.28
   5   2  -9    2.10    0.38
   5   2  -9    1.93    0.24
   4   2  -9    0.12    0.21
   4   2  -9    0.01    0.10
   3   2  -9    6.05    0.57
   2   2  -9   53.80    2.19
  -2  -2   9   52.92    2.34
  -1  -2   9   58.51    2.29
  -1  -2   9   60.92    2.56
   0   2  -9    0.74    0.18
   0  -2   9    0.56    0.16
   0  -2   9    0.45    0.26
  -1   2  -9   26.23    1.10
   1  -2   9   26.61    1.16
  -2   2  -9   -0.11    0.10
   2  -2   9    0.33    0.27
   2  -2   9    0.07    0.17
  -3   2  -9    8.10    0.39
   3  -2   9    8.10    0.59
   3  -2   9    7.69    0.71
   4  -2   9   32.90    1.55
   5  -2   9   11.66    0.83
   6  -2   9   13.45    0.96
   7  -2   9   22.90    1.36
   8  -2   9    3.08    0.58
   9  -2   9    6.78    0.85
  10   1  -9    0.32    0.33
  10   1  -9    0.53    0.37
   9   1  -9    0.78    0.33
   9   1  -9    1.44    0.42
   8   1  -9   -0.01    0.23
   8   1  -9    0.29    0.33
   7   1  -9    1.49    0.29
   7   1  -9    1.76    0.42
   6   1  -9   29.35    1.20
   6   1  -9   23.72    1.30
   5   1  -9   68.96    2.63
   5   1  -9   67.73    2.80
   4   1  -9   26.52    1.25
   4   1  -9   26.12    1.07
   3   1  -9  255.56    9.32
  -3  -1   9  246.01    9.50
   2   1  -9   55.50    2.21
  -2  -1   9   52.82    2.37
   1   1  -9   66.73    2.58
  -1  -1   9   65.05    2.77
  -1  -1   9   64.40    2.47
   0   1  -9  121.52    4.47
   0  -1   9  118.73    4.71
   0  -1   9  116.05    4.43
  -1   1  -9  106.27    3.97
   1  -1   9  104.63    4.27
   1  -1   9  106.26    4.00
  -2   1  -9   97.31    3.53
   2  -1   9   92.24    3.66
  -3   1  -9   31.64    1.17
   3  -1   9   29.18    1.39
   4  -1   9   42.72    1.88
   5  -1   9    2.46    0.45
   6  -1   9   15.68    1.04
   7  -1   9    0.29    0.39
   8  -1   9    0.80    0.45
   9  -1   9    5.79    0.79
  11   0  -9    4.52    0.90
  10   0  -9    5.58    0.67
  10   0  -9    7.00    0.74
   9   0  -9   10.29    0.79
   9   0  -9   12.03    0.89
   8   0  -9    3.92    0.47
   8   0  -9    4.29    0.56
   7   0  -9    0.41    0.28
   7   0  -9    0.44    0.22
   6   0  -9    1.32    0.23
   6   0  -9    2.06    0.40
   5   0  -9    3.08    0.44
   5   0  -9    2.36    0.25
   4   0  -9    4.37    0.47
   4   0  -9    4.47    0.27
   3   0  -9   75.11    2.93
   3   0  -9   74.60    2.72
  -3   0   9   70.69    3.08
   2   0  -9   74.40    2.97
  -2   0   9   77.97    3.17
   1   0  -9   -0.03    0.18
  -1   0   9    0.06    0.23
  -1   0   9   -0.07    0.08
   0   0  -9  158.14    5.85
   0   0   9  155.98    6.12
   0   0   9  158.63    5.81
  -1   0  -9    3.98    0.30
   1   0   9    3.53    0.31
   1   0   9    3.44    0.54
  -2   0  -9    2.37    0.20
   2   0   9    1.79    0.40
   2   0   9    1.88    0.27
   3   0   9    6.27    0.48
   4   0   9    7.84    0.61
   5   0   9   17.85    1.03
   6   0   9   11.95    0.88
   7   0   9   34.65    1.78
   8   0   9   15.70    1.12
   9   0   9    1.85    0.55
  11  -1  -9    0.81    0.40
  10  -1  -9    0.14    0.32
   9  -1  -9   -0.16    0.28
   9  -1  -9    0.00    0.29
   8  -1  -9    2.21    0.46
   8  -1  -9    1.33    0.34
   7  -1  -9    4.13    0.44
   7  -1  -9    5.33    0.61
   6  -1  -9   18.45    1.00
   6  -1  -9   17.11    0.85
   5  -1  -9   11.15    0.73
   5  -1  -9   11.57    0.58
   4  -1  -9  123.03    4.36
   4  -1  -9  112.61    4.56
   3  -1  -9  142.67    5.05
   3  -1  -9  129.09    5.27
  -3   1   9  144.28    5.45
   2  -1  -9   18.06    0.89
  -2   1   9   17.28    1.01
   1  -1  -9   37.55    1.53
  -1   1   9   36.45    1.37
  -1   1   9   34.50    1.71
   0  -1  -9  229.12    8.86
   0   1   9  250.16    8.82
   0   1   9  244.94    9.16
  -1  -1  -9  117.21    4.39
   1   1   9  119.08    4.42
   1   1   9  117.91    4.73
  -2  -1  -9    2.73    0.22
   2   1   9    2.10    0.42
   2   1   9    2.43    0.30
   3   1   9   96.69    3.74
   4   1   9   30.99    1.43
   5   1   9    5.94    0.60
   6   1   9    5.73    0.65
   7   1   9    1.70    0.46
   8   1   9    0.07    0.41
   9   1   9    6.66    0.88
  11  -2  -9    6.75    0.78
  10  -2  -9    5.05    0.68
   9  -2  -9   14.66    0.97
   9  -2  -9   15.32    1.03
   8  -2  -9    8.40    0.74
   8  -2  -9    8.03    0.66
   7  -2  -9    2.56    0.45
   7  -2  -9    3.62    0.41
   6  -2  -9   13.14    0.70
   6  -2  -9   12.72    0.85
   5  -2  -9    0.75    0.17
   5  -2  -9    0.36    0.24
   4  -2  -9    5.78    0.32
   4  -2  -9    6.51    0.55
  -4   2   9    4.84    0.59
   3  -2  -9   32.11    1.45
  -3   2   9   32.42    1.58
   2  -2  -9   38.62    1.67
  -2   2   9   40.25    1.84
   1  -2  -9   36.26    1.55
  -1   2   9   36.99    1.76
  -1   2   9   37.48    1.38
   0  -2  -9   94.46    3.66
   0   2   9   96.07    3.96
   0   2   9   98.60    3.58
  -1  -2  -9    3.64    0.31
   1   2   9    3.59    0.52
   1   2   9    4.42    0.32
  -2  -2  -9    0.35    0.12
   2   2   9    0.40    0.17
   3   2   9   11.86    0.67
   4   2   9    0.00    0.18
   5   2   9   -0.13    0.24
   6   2   9    0.87    0.34
   7   2   9   12.14    0.94
   8   2   9   34.54    1.84
   9   2   9    1.41    0.50
  11  -3  -9    2.86    0.58
  10  -3  -9    0.98    0.41
   9  -3  -9   -0.24    0.29
   8  -3  -9    1.31    0.38
   8  -3  -9    0.97    0.32
   7  -3  -9   -0.17    0.26
   7  -3  -9    0.20    0.23
   6  -3  -9    1.15    0.32
   6  -3  -9    1.56    0.26
   5  -3  -9   30.38    1.45
   5  -3  -9   30.09    1.24
   4  -3  -9   85.57    3.35
   4  -3  -9   82.42    3.09
  -4   3   9   82.37    3.45
   3  -3  -9  119.08    4.49
  -3   3   9  113.07    4.60
   2  -3  -9  132.32    5.02
  -2   3   9  131.28    5.19
   1  -3  -9   37.12    1.56
  -1   3   9   36.67    1.37
  -1   3   9   35.61    1.75
   0  -3  -9  234.18    8.63
   0   3   9  235.37    8.52
   0   3   9  231.66    8.92
  -1  -3  -9  149.33    5.50
   1   3   9  146.06    5.47
   1   3   9  148.31    5.82
  -2  -3  -9   52.02    2.03
   2   3   9   53.93    2.11
   3   3   9   94.77    3.49
   3   3   9   96.64    3.69
   4   3   9    4.79    0.48
   5   3   9    6.47    0.61
   6   3   9   30.11    1.50
   7   3   9    1.02    0.43
   8   3   9    2.81    0.56
   9   3   9    0.75    0.47
  11  -4  -9    5.76    0.76
  10  -4  -9   15.59    1.12
   9  -4  -9    9.75    0.85
   8  -4  -9    1.92    0.45
   7  -4  -9    9.69    0.77
   7  -4  -9   10.21    0.65
   6  -4  -9   12.51    0.67
   6  -4  -9   13.63    0.89
   5  -4  -9   20.35    1.09
   5  -4  -9   20.05    0.88
   4  -4  -9    1.09    0.15
   4  -4  -9    1.30    0.31
  -4   4   9    1.28    0.36
   3  -4  -9   -0.17    0.18
  -3   4   9   -0.02    0.22
   2  -4  -9    0.37    0.23
  -2   4   9    0.09    0.22
   1  -4  -9    7.56    0.53
  -1   4   9    7.13    0.33
  -1   4   9    6.92    0.65
   0  -4  -9   17.38    0.85
   0   4   9   17.37    1.08
   0   4   9   16.20    0.71
  -1  -4  -9    1.14    0.22
   1   4   9    1.12    0.34
   1   4   9    1.35    0.19
  -2  -4  -9   28.32    1.20
   2   4   9   29.90    1.25
   3   4   9    4.86    0.42
   3   4   9    4.64    0.27
   4   4   9    2.72    0.37
   5   4   9    4.12    0.48
   6   4   9    0.42    0.34
   7   4   9    9.50    0.88
   8   4   9    2.19    0.55
   9   4   9    6.46    0.83
  11  -5  -9    3.98    0.69
  10  -5  -9    6.40    0.81
   9  -5  -9    5.30    0.71
   8  -5  -9    0.50    0.34
   7  -5  -9   12.65    0.88
   7  -5  -9   10.83    0.75
   6  -5  -9    0.35    0.30
   6  -5  -9    0.35    0.17
   5  -5  -9    4.27    0.52
   5  -5  -9    4.83    0.34
   4  -5  -9   19.24    0.80
   4  -5  -9   19.30    1.04
  -4   5   9   17.45    1.06
   3  -5  -9   48.21    2.06
  -3   5   9   46.78    2.13
   2  -5  -9   20.51    1.00
  -2   5   9   15.97    1.04
   1  -5  -9  173.20    6.59
  -1   5   9  174.57    6.79
  -1   5   9  176.23    6.37
   0  -5  -9  107.25    4.09
   0   5   9  105.28    3.93
   0   5   9  105.94    4.33
  -1  -5  -9   86.04    3.30
   1   5   9   84.96    3.22
   1   5   9   84.92    3.59
  -2  -5  -9  120.23    4.59
   2   5   9  124.29    4.60
   3   5   9   36.03    1.39
   3   5   9   33.89    1.50
   4   5   9   20.45    1.05
   5   5   9   39.16    1.77
   6   5   9    0.64    0.33
   7   5   9    3.02    0.51
   8   5   9    2.07    0.56
   9   5   9   -0.26    0.46
  11  -6  -9    6.53    0.86
  10  -6  -9   11.67    1.02
   9  -6  -9    5.80    0.76
   8  -6  -9   14.24    1.04
   7  -6  -9   24.29    1.36
   6  -6  -9   16.70    1.02
   6  -6  -9   15.25    0.80
   5  -6  -9    3.49    0.31
   5  -6  -9    3.33    0.48
   4  -6  -9    6.15    0.37
   4  -6  -9    5.47    0.59
  -4   6   9    5.25    0.59
   3  -6  -9    2.90    0.44
  -3   6   9    2.73    0.44
   2  -6  -9    7.03    0.57
  -2   6   9    7.05    0.66
   1  -6  -9    6.59    0.56
  -1   6   9    7.62    0.70
   0  -6  -9   15.43    0.83
   0   6   9   14.61    0.67
   0   6   9   14.65    1.00
  -1  -6  -9    0.40    0.21
   1   6   9    0.45    0.29
   1   6   9    0.03    0.13
  -2  -6  -9    1.40    0.25
   2   6   9    1.09    0.22
   3   6   9    0.10    0.19
   3   6   9    0.19    0.14
   4   6   9   -0.02    0.24
   5   6   9    4.32    0.52
   6   6   9    6.42    0.69
   7   6   9    0.59    0.37
   8   6   9    1.75    0.53
  10  -7  -9    1.14    0.47
   9  -7  -9    0.07    0.39
   8  -7  -9    3.55    0.58
   7  -7  -9    2.32    0.52
   6  -7  -9    0.40    0.33
   5  -7  -9    0.91    0.38
   5  -7  -9    1.28    0.23
   4  -7  -9   10.95    0.80
   4  -7  -9   11.27    0.56
  -4   7   9    9.73    0.77
   3  -7  -9    7.19    0.70
  -3   7   9    7.09    0.62
   2  -7  -9    7.74    0.63
  -2   7   9    5.82    0.66
   1  -7  -9   31.58    1.48
  -1   7   9   31.35    1.64
   0  -7  -9   67.23    2.76
   0   7   9   66.19    2.96
   0   7   9   68.42    2.58
  -1  -7  -9   98.90    3.93
   1   7   9  103.46    3.84
  -2  -7  -9   64.32    2.57
   2   7   9   64.15    2.54
   3   7   9   11.12    0.61
   3   7   9   11.47    0.68
   4   7   9   65.75    2.69
   5   7   9   33.45    1.59
   6   7   9    8.61    0.77
   7   7   9    5.28    0.71
   8   7   9    3.04    0.60
  10  -8  -9    8.79    0.97
   9  -8  -9    6.19    0.82
   8  -8  -9   16.76    1.20
   7  -8  -9   14.50    1.08
   6  -8  -9   12.90    1.00
   5  -8  -9    6.95    0.75
   4  -8  -9    5.86    0.69
   4  -8  -9    5.59    0.41
  -4   8   9    5.97    0.58
   3  -8  -9    2.17    0.45
  -3   8   9    2.49    0.46
   2  -8  -9    0.25    0.29
   1  -8  -9    7.08    0.60
  -1   8   9    7.21    0.72
   0  -8  -9   16.63    0.97
   0   8   9   16.99    1.10
  -1  -8  -9   12.15    0.77
   1   8   9   12.90    0.68
  -2  -8  -9    2.40    0.35
   2   8   9    2.20    0.31
   3   8   9   -0.23    0.20
   3   8   9   -0.12    0.17
   4   8   9    7.80    0.64
   5   8   9   -0.20    0.28
   6   8   9    3.41    0.54
   7   8   9   -0.43    0.34
   8   8   9    3.86    0.68
  10  -9  -9    2.24    0.62
   9  -9  -9    1.16    0.51
   8  -9  -9    3.75    0.64
   7  -9  -9    3.71    0.62
   6  -9  -9    1.14    0.48
   5  -9  -9    0.03    0.31
   4  -9  -9    3.62    0.57
  -4   9   9    2.71    0.45
   3  -9  -9    4.56    0.63
  -3   9   9    5.14    0.61
   2  -9  -9   10.22    0.81
  -2   9   9    9.89    0.81
   1  -9  -9   16.82    1.06
  -1   9   9   23.92    1.31
   0  -9  -9   53.92    2.29
   0   9   9   50.81    2.44
  -1  -9  -9   75.80    3.16
   1   9   9   79.50    3.04
  -2  -9  -9    3.89    0.46
   2   9   9    3.31    0.39
   3   9   9   50.38    2.09
   3   9   9   50.09    2.12
   4   9   9   36.30    1.66
   5   9   9    9.40    0.77
   6   9   9    8.81    0.82
   7   9   9   10.98    0.97
  10 -10  -9    7.33    0.97
   9 -10  -9   12.77    1.14
   8 -10  -9    7.48    0.87
   7 -10  -9   10.96    1.08
   6 -10  -9    7.65    0.85
   5 -10  -9   15.83    1.10
   4 -10  -9   35.38    1.79
  -4  10   9   33.12    1.65
   3 -10  -9    4.02    0.61
  -3  10   9    4.17    0.56
   2 -10  -9    0.97    0.38
  -2  10   9    1.36    0.42
  -1  10   9    1.01    0.41
   0 -10  -9    0.33    0.31
   0  10   9    0.35    0.34
  -1 -10  -9   -0.06    0.28
   1  10   9    0.56    0.22
  -2 -10  -9   23.54    1.22
   2  10   9   23.31    1.14
   3  10   9    8.28    0.66
   3  10   9   10.95    0.94
   4  10   9    1.92    0.39
   5  10   9    6.88    0.67
   6  10   9    1.89    0.49
   7  10   9   -0.37    0.40
   9 -11  -9    4.90    0.83
   8 -11  -9    5.87    0.88
   7 -11  -9    2.97    0.66
   6 -11  -9    8.48    0.95
   5 -11  -9    0.56    0.47
   4 -11  -9    0.97    0.47
   3 -11  -9   -0.10    0.37
  -3  11   9    0.39    0.31
   2 -11  -9    7.66    0.81
  -2  11   9    8.14    0.76
  -1  11   9   19.91    1.28
   0 -11  -9   54.19    2.41
   0  11   9   53.24    2.55
  -1 -11  -9   -0.03    0.28
  -2 -11  -9   14.72    0.93
   2  11   9   14.94    0.87
   3  11   9   40.31    1.81
   4  11   9   45.77    2.05
   5  11   9   14.93    1.00
   6  11   9   12.19    0.97
   7  11   9    6.50    0.81
   9 -12  -9    8.49    1.01
   8 -12  -9   18.46    1.35
   7 -12  -9    9.37    1.04
   6 -12  -9    6.58    0.89
   5 -12  -9   17.77    1.25
   4 -12  -9   29.98    1.72
   3 -12  -9    7.39    0.85
   2 -12  -9    1.52    0.50
  -2  12   9    1.53    0.41
   1 -12  -9   -0.12    0.29
  -1  12   9    0.29    0.36
   0 -12  -9    4.48    0.61
   0  12   9    4.83    0.73
  -1 -12  -9   -0.02    0.33
   2  12   9    0.06    0.26
   3  12   9    0.32    0.31
   4  12   9    1.01    0.35
   5  12   9    2.57    0.49
   6  12   9    1.69    0.48
   8 -13  -9    8.72    1.09
   7 -13  -9    8.81    1.06
   6 -13  -9    1.82    0.56
   5 -13  -9    4.92    0.79
   4 -13  -9    3.59    0.71
   3 -13  -9    3.43    0.67
   2 -13  -9    9.07    0.93
   1 -13  -9    8.44    0.90
  -1  13   9    8.88    0.96
   0 -13  -9    1.05    0.44
   0  13   9    1.00    0.48
  -1 -13  -9    7.13    0.78
   1  13   9    7.19    0.93
   2  13   9   21.45    1.13
   2  13   9   20.53    1.19
   3  13   9   16.74    1.00
   4  13   9   22.83    1.26
   5  13   9   16.32    1.05
   8 -14  -9    2.86    0.76
   7 -14  -9   14.37    1.23
   6 -14  -9   13.35    1.29
   5 -14  -9   12.78    1.12
   4 -14  -9    9.72    1.05
   3 -14  -9   13.36    1.11
   2 -14  -9    5.48    0.80
   1 -14  -9    0.78    0.47
   0 -14  -9    1.48    0.49
   0  14   9    1.68    0.62
  -1 -14  -9    0.42    0.43
   1  14   9    0.23    0.38
   2  14   9    0.17    0.26
   2  14   9    0.37    0.26
   3  14   9    0.28    0.27
   4  14   9    0.71    0.35
   5  14   9   -0.03    0.30
   7 -15  -9    0.79    0.55
   6 -15  -9    2.12    0.68
   5 -15  -9    5.07    0.82
   4 -15  -9    1.58    0.56
   3 -15  -9    1.38    0.55
   2 -15  -9   -0.10    0.47
   1 -15  -9    1.13    0.48
   0 -15  -9    0.13    0.44
   2  15   9    8.42    0.73
   2  15   9    8.11    0.68
   3  15   9   10.10    0.79
   4  15   9   10.86    0.86
   6 -16  -9    8.49    1.08
   5 -16  -9    5.88    0.90
   4 -16  -9    7.20    0.98
   3 -16  -9   12.20    1.24
   2 -16  -9   10.17    1.08
   1 -16  -9    4.21    0.77
   0 -16  -9    3.70    0.73
   1  16   9    0.24    0.32
   2  16   9    0.03    0.27
   3  16   9    0.98    0.38
   4 -17  -9    1.72    0.72
   3 -17  -9    2.12    0.73
   2 -17  -9   -0.09    0.54
   1 -17  -9    0.43    0.55
   1  17   9    2.54    0.54
   3  17 -10   20.95    1.40
   2  17 -10   17.82    1.28
   1  17 -10   14.05    1.14
   0  17 -10    6.61    0.83
  -1  17 -10    1.11    0.49
  -2  17 -10    0.16    0.47
  -3  17 -10    0.04    0.46
   3 -17  10    0.24    0.55
   5  16 -10    0.42    0.51
   4  16 -10   -0.07    0.43
   3  16 -10    1.52    0.52
   2  16 -10    3.22    0.65
   1  16 -10    4.65    0.67
   0  16 -10    1.54    0.48
  -1  16 -10   -0.16    0.35
  -2  16 -10    2.03    0.57
   2 -16  10    2.52    0.64
  -3  16 -10    0.20    0.42
   3 -16  10    0.67    0.54
  -4  16 -10    1.51    0.52
   4 -16  10    0.57    0.59
   6  15 -10   12.50    1.17
   5  15 -10    7.02    0.88
   4  15 -10   11.93    0.97
   3  15 -10   12.28    0.96
   2  15 -10   27.26    1.54
   1  15 -10   11.18    0.95
   0  15 -10   16.11    1.13
  -1  15 -10   16.48    1.14
  -2  15 -10   15.78    1.11
   2 -15  10   14.68    1.17
   3 -15  10    4.32    0.74
  -4  15 -10    0.97    0.47
   4 -15  10    0.63    0.53
  -5  15 -10    0.35    0.43
   5 -15  10    0.52    0.58
   6  14 -10    0.05    0.47
   5  14 -10    0.71    0.49
   4  14 -10    1.71    0.47
   3  14 -10    0.99    0.44
   2  14 -10    1.91    0.47
   1  14 -10    4.30    0.60
   0  14 -10   12.23    0.95
  -1  14 -10    1.75    0.45
   1 -14  10    1.94    0.55
  -2  14 -10    2.99    0.51
   2 -14  10    1.95    0.53
  -3  14 -10    1.42    0.45
   3 -14  10    1.56    0.58
  -4  14 -10    1.04    0.43
   4 -14  10    0.75    0.51
  -5  14 -10    1.33    0.46
   5 -14  10    1.98    0.66
   6 -14  10    5.66    0.95
   7  13 -10    6.22    0.88
   6  13 -10    0.41    0.46
   5  13 -10   12.41    0.97
   4  13 -10   24.64    1.38
   3  13 -10   31.85    1.64
   2  13 -10   12.33    0.93
   1  13 -10   42.24    1.99
   0  13 -10    4.31    0.59
  -1  13 -10   18.13    1.09
   1 -13  10   18.43    1.24
  -2  13 -10   29.81    1.52
   2 -13  10   30.79    1.72
  -3  13 -10   15.75    1.02
   3 -13  10   15.07    1.19
  -4  13 -10    3.36    0.52
   4 -13  10    2.88    0.61
  -5  13 -10    0.03    0.40
   5 -13  10    0.21    0.41
   6 -13  10    0.47    0.56
   8  12 -10    6.41    0.81
   8  12 -10    6.01    0.89
   7  12 -10    3.96    0.74
   6  12 -10   -0.16    0.38
   5  12 -10    0.15    0.37
   4  12 -10    0.27    0.34
   3  12 -10    6.07    0.67
   2  12 -10    0.32    0.32
   1  12 -10    3.55    0.54
   0  12 -10    2.76    0.49
  -1  12 -10    7.26    0.69
   1 -12  10    6.76    0.77
  -2  12 -10    0.42    0.21
   2 -12  10    1.43    0.46
  -3  12 -10    1.41    0.39
   3 -12  10    1.25    0.52
  -4  12 -10   -0.31    0.28
   4 -12  10    0.75    0.45
   5 -12  10    0.85    0.50
   6 -12  10    3.51    0.70
   7 -12  10    0.40    0.55
   8  11 -10    1.56    0.61
   8  11 -10    2.01    0.52
   7  11 -10    0.80    0.41
   7  11 -10    0.10    0.44
   6  11 -10    2.70    0.58
   5  11 -10    7.37    0.76
   4  11 -10   24.75    1.36
   3  11 -10   13.01    0.89
   2  11 -10   86.30    3.51
   1  11 -10   18.24    1.04
   0  11 -10   17.63    0.99
   0 -11  10   15.86    1.07
  -1  11 -10   22.77    1.19
   1 -11  10   21.51    1.30
  -2  11 -10   37.12    1.73
   2 -11  10   38.28    1.91
  -3  11 -10   14.56    0.88
   3 -11  10   10.98    0.94
  -4  11 -10   10.45    0.74
   4 -11  10    8.59    0.91
   5 -11  10    6.40    0.81
   6 -11  10    0.84    0.53
   7 -11  10    0.28    0.46
   9  10 -10    6.73    0.81
   9  10 -10    8.90    1.04
   8  10 -10    5.92    0.88
   8  10 -10    5.18    0.68
   7  10 -10    3.33    0.53
   6  10 -10    3.42    0.56
   5  10 -10    1.12    0.39
   4  10 -10    1.57    0.45
   3  10 -10    0.40    0.32
   2  10 -10   10.83    0.78
   1  10 -10    1.24    0.36
   0  10 -10    0.11    0.25
   0 -10  10   -0.18    0.29
  -1  10 -10   13.38    0.79
  -2  10 -10    5.38    0.55
   2 -10  10    4.47    0.64
  -3  10 -10    0.60    0.29
   3 -10  10    0.01    0.37
  -4  10 -10    1.66    0.37
   4 -10  10    2.05    0.49
   5 -10  10    5.71    0.74
   6 -10  10    2.64    0.64
   7 -10  10    0.16    0.46
   8 -10  10    0.86    0.58
   9   9 -10    0.39    0.49
   9   9 -10   -0.23    0.33
   8   9 -10    0.64    0.56
   8   9 -10    0.08    0.30
   7   9 -10    1.34    0.47
   7   9 -10    0.77    0.31
   6   9 -10    2.82    0.53
   5   9 -10    4.98    0.60
   4   9 -10    1.70    0.41
   3   9 -10   50.28    2.18
   2   9 -10   37.73    1.70
   1   9 -10  120.21    4.67
   0   9 -10   51.37    2.18
   0  -9  10   51.97    2.27
  -1   9 -10   37.30    1.76
   1  -9  10   45.55    1.96
  -2   9 -10   26.27    1.24
   2  -9  10   24.22    1.38
  -3   9 -10   46.34    1.95
   3  -9  10   44.52    2.14
  -4   9 -10   13.36    0.80
   4  -9  10   12.76    0.97
   5  -9  10   18.12    1.25
   6  -9  10   13.27    1.10
   7  -9  10    1.99    0.61
   8  -9  10    0.89    0.52
   9   8 -10   13.34    1.19
   9   8 -10   10.06    0.87
   8   8 -10    4.71    0.59
   8   8 -10    5.73    0.79
   7   8 -10   10.27    1.00
   7   8 -10    8.94    0.73
   6   8 -10    6.49    0.75
   5   8 -10    5.96    0.66
   4   8 -10    7.37    0.64
   3   8 -10    0.48    0.29
   2   8 -10    0.60    0.25
   1   8 -10    0.48    0.27
   0   8 -10   21.23    1.05
   0  -8  10   20.72    1.12
  -1   8 -10   19.06    0.95
   1  -8  10   18.59    1.07
   1  -8  10   18.58    1.05
  -2   8 -10    7.36    0.54
   2  -8  10    5.70    0.62
   2  -8  10    6.94    0.71
  -3   8 -10   15.42    0.84
   3  -8  10   14.55    1.02
   3  -8  10   16.90    1.13
  -4   8 -10    0.98    0.27
   4  -8  10    0.54    0.36
   5  -8  10   -0.10    0.30
   6  -8  10   -0.18    0.32
   7  -8  10    0.82    0.48
   8  -8  10    1.32    0.57
  10   7 -10    0.52    0.45
  10   7 -10    0.26    0.46
   9   7 -10    1.04    0.51
   9   7 -10    0.60    0.38
   8   7 -10    0.14    0.39
   8   7 -10    0.66    0.33
   7   7 -10   -0.17    0.24
   7   7 -10   -0.41    0.38
   6   7 -10    2.11    0.48
   5   7 -10    8.71    0.71
   4   7 -10   54.34    2.34
   3   7 -10   18.65    1.00
   2   7 -10   46.50    1.98
   1   7 -10   87.78    3.42
  -1  -7  10   86.52    3.46
   0  -7  10   71.77    2.93
   0  -7  10   71.31    3.01
  -1   7 -10   35.58    1.48
   1  -7  10   32.30    1.57
   1  -7  10   33.61    1.64
  -2   7 -10   63.89    2.51
   2  -7  10   60.79    2.67
   2  -7  10   63.71    2.71
  -3   7 -10   52.64    2.09
   3  -7  10   53.58    2.32
   3  -7  10   47.67    2.27
  -4   7 -10   28.32    1.27
   4  -7  10   29.23    1.54
   4  -7  10   28.66    1.51
   5  -7  10   20.63    1.27
   6  -7  10   25.63    1.50
   7  -7  10   11.53    1.11
   8  -7  10    0.91    0.45
   9  -7  10   -0.41    0.43
  10   6 -10    9.09    0.87
  10   6 -10    7.31    0.88
   9   6 -10    6.61    0.70
   9   6 -10    7.02    0.83
   8   6 -10   29.70    1.44
   8   6 -10   27.58    1.59
   7   6 -10   18.86    1.25
   7   6 -10   19.14    1.05
   6   6 -10   39.99    1.74
   6   6 -10   38.63    1.91
   5   6 -10   21.58    1.21
   4   6 -10    1.27    0.34
   3   6 -10    9.22    0.66
   2   6 -10   -0.04    0.19
   1   6 -10    0.16    0.19
  -1  -6  10    0.24    0.26
  -1  -6  10    0.28    0.20
   0   6 -10   15.51    0.83
   0  -6  10   18.52    1.04
   0  -6  10   16.58    0.90
  -1   6 -10    6.42    0.47
   1  -6  10    5.96    0.55
   1  -6  10    7.52    0.65
  -2   6 -10    4.40    0.38
   2  -6  10    4.25    0.56
   2  -6  10    4.16    0.47
  -3   6 -10    9.66    0.57
   3  -6  10    9.64    0.79
   3  -6  10    9.62    0.75
  -4   6 -10    1.40    0.25
   4  -6  10    1.39    0.42
   4  -6  10    1.28    0.40
   5  -6  10   13.36    0.97
   5  -6  10   12.90    1.02
   6  -6  10    2.46    0.50
   7  -6  10    0.26    0.41
   8  -6  10    2.90    0.62
   9  -6  10    1.05    0.48
  10   5 -10    1.32    0.52
  10   5 -10    1.65    0.48
   9   5 -10    0.05    0.39
   9   5 -10   -0.25    0.29
   8   5 -10    0.46    0.28
   8   5 -10   -0.29    0.34
   7   5 -10    0.43    0.42
   7   5 -10    0.34    0.25
   6   5 -10   15.76    1.08
   6   5 -10   18.25    0.93
   5   5 -10   -0.25    0.30
   4   5 -10    0.04    0.23
   3   5 -10    2.05    0.34
   2   5 -10   54.96    2.25
   1   5 -10   78.66    3.07
  -1  -5  10   78.94    3.28
  -1  -5  10   76.96    3.06
   0   5 -10   34.02    1.47
   0  -5  10   36.54    1.70
   0  -5  10   33.95    1.52
  -1   5 -10   61.80    2.40
   1  -5  10   60.75    2.65
   1  -5  10   60.43    2.51
  -2   5 -10   73.43    2.89
   2  -5  10   77.34    3.19
   2  -5  10   74.73    3.05
  -3   5 -10   39.04    1.59
   3  -5  10   39.80    1.81
   3  -5  10   39.42    1.90
  -4   5 -10   57.54    2.28
   4  -5  10   58.28    2.50
   4  -5  10   56.35    2.61
   5  -5  10   39.52    1.91
   5  -5  10   40.85    2.03
   6  -5  10   12.78    0.96
   6  -5  10   11.36    1.02
   7  -5  10    8.00    0.85
   8  -5  10    1.93    0.57
   9  -5  10    1.16    0.54
  10   4 -10    5.00    0.66
  10   4 -10    5.63    0.76
   9   4 -10   16.96    1.17
   9   4 -10   19.20    1.09
   8   4 -10   22.52    1.17
   8   4 -10   22.48    1.33
   7   4 -10   62.80    2.69
   7   4 -10   58.17    2.46
   6   4 -10   32.93    1.49
   6   4 -10   36.42    1.72
   5   4 -10   31.42    1.58
   4   4 -10    0.84    0.30
   3   4 -10   38.28    1.69
   2   4 -10    5.29    0.47
  -2  -4  10    5.56    0.64
   1   4 -10    0.20    0.18
  -1  -4  10    0.18    0.15
  -1  -4  10    0.03    0.09
   0   4 -10    9.24    0.54
   0  -4  10    9.46    0.57
   0  -4  10    8.21    0.69
  -1   4 -10   12.99    0.66
   1  -4  10   13.57    0.75
   1  -4  10   12.30    0.87
  -2   4 -10    4.11    0.33
   2  -4  10    4.81    0.48
   2  -4  10    4.05    0.55
  -3   4 -10    2.44    0.25
   3  -4  10    2.72    0.51
   3  -4  10    2.26    0.39
   4  -4  10   16.22    1.09
   4  -4  10   15.61    0.97
   5  -4  10    7.86    0.85
   5  -4  10    7.23    0.74
   6  -4  10    5.64    0.76
   6  -4  10    6.82    0.74
   7  -4  10   -0.37    0.29
   7  -4  10   -0.39    0.39
   8  -4  10    0.54    0.42
   9  -4  10    1.48    0.53
  10   3 -10    2.45    0.50
  10   3 -10    1.73    0.49
   9   3 -10    4.21    0.53
   9   3 -10    3.38    0.59
   8   3 -10    0.60    0.27
   8   3 -10    0.52    0.36
   7   3 -10    2.34    0.51
   7   3 -10    2.62    0.36
   6   3 -10    0.84    0.22
   6   3 -10    1.24    0.38
   5   3 -10    5.60    0.60
   5   3 -10    4.74    0.37
   4   3 -10    1.53    0.38
   3   3 -10    0.43    0.27
   2   3 -10   46.69    1.96
  -2  -3  10   47.09    2.16
  -1  -3  10   19.27    0.90
  -1  -3  10   20.70    1.16
   0   3 -10   76.48    2.87
   0  -3  10   71.38    2.88
  -1   3 -10   43.74    1.80
   1  -3  10   46.52    2.11
   1  -3  10   46.05    1.89
  -2   3 -10  107.41    4.11
   2  -3  10  112.55    4.26
   2  -3  10  110.82    4.47
  -3   3 -10   62.13    2.41
   3  -3  10   64.14    2.83
   3  -3  10   64.47    2.62
   4  -3  10    8.43    0.65
   4  -3  10    6.63    0.76
   5  -3  10   53.51    2.38
   5  -3  10   54.05    2.54
   6  -3  10   34.95    1.76
   7  -3  10    8.76    0.89
   8  -3  10    4.60    0.69
   9  -3  10    3.56    0.73
  11   2 -10    7.00    0.84
  10   2 -10    6.54    0.80
  10   2 -10    7.91    0.84
   9   2 -10    2.57    0.52
   9   2 -10    2.40    0.43
   8   2 -10   39.05    1.89
   8   2 -10   38.14    1.73
   7   2 -10   27.15    1.22
   7   2 -10   24.83    1.39
   6   2 -10   43.98    1.94
   6   2 -10   40.06    1.71
   5   2 -10   38.69    1.72
   5   2 -10   35.38    1.49
   4   2 -10   19.63    1.04
   3   2 -10   83.43    3.24
  -3  -2  10   77.82    3.41
   2   2 -10  113.04    4.44
  -2  -2  10  117.86    4.65
   1   2 -10    1.21    0.25
  -1  -2  10    0.87    0.17
  -1  -2  10    1.41    0.39
   0   2 -10    3.56    0.35
   0  -2  10    3.58    0.52
   0  -2  10    3.04    0.31
  -1   2 -10   38.83    1.59
   1  -2  10   39.97    1.65
  -2   2 -10    1.55    0.20
   2  -2  10    1.07    0.25
   2  -2  10    1.73    0.44
  -3   2 -10    0.14    0.13
   3  -2  10    0.13    0.20
   3  -2  10    0.46    0.35
   4  -2  10   45.29    2.19
   4  -2  10   45.35    2.00
   5  -2  10   -0.04    0.29
   6  -2  10    2.19    0.50
   7  -2  10    9.09    0.92
   8  -2  10    0.43    0.44
   9  -2  10    0.57    0.50
  11   1 -10    0.36    0.38
  10   1 -10    0.32    0.37
   9   1 -10    4.34    0.54
   9   1 -10    4.64    0.63
   8   1 -10    8.75    0.78
   8   1 -10    7.03    0.61
   7   1 -10    1.86    0.43
   7   1 -10    1.21    0.26
   6   1 -10    3.07    0.32
   6   1 -10    3.14    0.49
   5   1 -10    0.84    0.17
   5   1 -10    1.10    0.32
   4   1 -10    3.15    0.44
   4   1 -10    3.02    0.24
   3   1 -10    2.74    0.37
  -3  -1  10    2.72    0.46
   2   1 -10   12.19    0.72
  -2  -1  10   12.47    0.86
   1   1 -10   36.44    1.48
  -1  -1  10   33.06    1.35
  -1  -1  10   33.34    1.67
   0   1 -10   36.24    1.50
   0  -1  10   35.97    1.46
   0  -1  10   35.26    1.74
  -1   1 -10   55.08    2.15
   1  -1  10   55.88    2.49
   1  -1  10   54.78    2.19
  -2   1 -10  106.18    3.76
   2  -1  10   89.09    4.12
   2  -1  10  105.71    3.90
  -3   1 -10   39.79    1.51
   3  -1  10   39.39    1.74
   4  -1  10   61.07    2.57
   5  -1  10   43.79    2.01
   6  -1  10   66.85    2.91
   7  -1  10   11.29    0.96
   8  -1  10    9.78    0.96
   9  -1  10    7.74    0.95
  11   0 -10   11.00    0.99
  10   0 -10    7.31    0.81
   9   0 -10   11.70    0.93
   9   0 -10   13.25    0.97
   8   0 -10   25.06    1.33
   8   0 -10   22.23    1.17
   7   0 -10   29.07    1.49
   7   0 -10   28.89    1.31
   6   0 -10   29.41    1.24
   6   0 -10   27.04    1.41
   5   0 -10   17.46    0.79
   5   0 -10   18.45    1.01
   4   0 -10   17.14    0.92
   4   0 -10   15.93    0.69
   3   0 -10   58.09    2.35
   3   0 -10   55.65    2.11
  -3   0  10   57.21    2.52
   2   0 -10   71.51    2.85
  -2   0  10   72.71    3.07
   1   0 -10   40.41    1.63
  -1   0  10   37.86    1.49
  -1   0  10   37.58    1.85
   0   0 -10   22.08    0.96
   0   0  10   21.14    0.91
   0   0  10   20.17    1.19
  -1   0 -10    7.06    0.43
   1   0  10    7.31    0.69
   1   0  10    6.57    0.45
  -2   0 -10    1.29    0.17
   2   0  10    0.79    0.22
   2   0  10    0.71    0.34
   3   0  10    7.23    0.57
   3   0  10    8.34    0.79
   4   0  10    8.16    0.64
   5   0  10    1.48    0.36
   6   0  10    2.42    0.49
   7   0  10    9.01    0.91
   8   0  10    4.02    0.69
   9   0  10    0.65    0.51
  11  -1 -10    0.51    0.40
  10  -1 -10    0.24    0.37
   9  -1 -10    6.64    0.75
   8  -1 -10    4.11    0.58
   8  -1 -10    3.59    0.45
   7  -1 -10    0.46    0.33
   7  -1 -10   -0.15    0.18
   6  -1 -10   18.31    1.06
   6  -1 -10   18.98    0.88
   5  -1 -10   17.37    0.78
   5  -1 -10   17.47    0.98
   4  -1 -10    5.89    0.52
   4  -1 -10    5.68    0.30
  -4   1  10    4.52    0.59
   3  -1 -10   29.49    1.06
   3  -1 -10   25.04    1.29
  -3   1  10   29.93    1.49
   2  -1 -10    6.95    0.50
  -2   1  10    6.49    0.63
   1  -1 -10   36.38    1.49
  -1   1  10   33.77    1.71
  -1   1  10   33.77    1.32
   0  -1 -10    5.77    0.43
   0   1  10    6.20    0.68
   0   1  10    6.49    0.37
  -1  -1 -10  147.26    5.52
   1   1  10  151.77    5.56
   1   1  10  148.03    5.91
  -2  -1 -10   44.83    1.74
   2   1  10   45.04    2.15
   2   1  10   45.48    1.86
   3   1  10   59.88    2.44
   4   1  10   44.68    1.95
   5   1  10   27.61    1.39
   6   1  10   56.85    2.51
   7   1  10   21.08    1.29
   8   1  10    2.20    0.58
   9   1  10   12.40    1.17
  11  -2 -10    1.66    0.50
  10  -2 -10   14.16    1.06
   9  -2 -10   19.37    1.22
   8  -2 -10   17.80    1.12
   7  -2 -10   41.73    1.80
   7  -2 -10   43.05    1.99
   6  -2 -10   47.07    2.13
   6  -2 -10   48.02    1.93
   5  -2 -10   63.58    2.39
   5  -2 -10   60.33    2.61
   4  -2 -10  161.00    5.86
   4  -2 -10  154.38    6.12
  -4   2  10  166.60    6.32
   3  -2 -10   21.64    1.14
  -3   2  10   26.96    1.34
   2  -2 -10   21.89    1.09
  -2   2  10   24.82    1.30
   1  -2 -10   54.62    2.31
  -1   2  10   59.05    2.13
  -1   2  10   58.97    2.58
   0  -2 -10   34.97    1.48
   0   2  10   34.88    1.40
   0   2  10   37.03    1.79
  -1  -2 -10   16.06    0.77
   1   2  10   16.37    0.76
   1   2  10   17.71    1.09
  -2  -2 -10    1.67    0.19
   2   2  10    1.54    0.25
   2   2  10    1.37    0.41
   3   2  10   28.91    1.31
   4   2  10    2.64    0.38
   5   2  10    2.30    0.41
   6   2  10   -0.22    0.29
   7   2  10    0.24    0.39
   8   2  10    7.46    0.82
   9   2  10    5.00    0.76
  11  -3 -10    0.08    0.37
  10  -3 -10    1.62    0.47
   9  -3 -10   10.65    0.89
   8  -3 -10    0.41    0.35
   7  -3 -10    0.10    0.28
   6  -3 -10    7.68    0.49
   6  -3 -10    7.74    0.68
   5  -3 -10    0.11    0.24
   5  -3 -10    0.05    0.11
   4  -3 -10   10.08    0.70
   4  -3 -10   10.26    0.44
  -4   3  10   10.22    0.81
   3  -3 -10   48.92    2.07
  -3   3  10   48.14    2.21
   2  -3 -10    7.55    0.54
  -2   3  10    6.82    0.66
   1  -3 -10   -0.18    0.16
  -1   3  10    0.01    0.07
  -1   3  10    0.20    0.26
   0  -3 -10    6.49    0.46
   0   3  10    5.54    0.33
   0   3  10    5.93    0.70
  -1  -3 -10    0.16    0.16
   1   3  10    0.47    0.34
   1   3  10    0.46    0.16
  -2  -3 -10   48.11    1.90
   2   3  10   48.13    1.96
   2   3  10   50.35    2.33
   3   3  10   32.76    1.44
   4   3  10    5.86    0.51
   5   3  10   16.77    0.98
   6   3  10   62.04    2.67
   7   3  10   18.71    1.16
   8   3  10    9.96    1.00
   9   3  10    6.46    0.84
  11  -4 -10    0.66    0.43
  10  -4 -10    1.31    0.46
   9  -4 -10   11.51    0.94
   8  -4 -10   32.62    1.70
   7  -4 -10   37.79    1.83
   6  -4 -10   19.29    1.13
   5  -4 -10   74.57    2.83
   5  -4 -10   76.05    3.12
   4  -4 -10  119.41    4.61
   4  -4 -10  116.67    4.29
  -4   4  10  115.49    4.71
   3  -4 -10   44.16    1.89
  -3   4  10   41.49    2.00
   2  -4 -10   51.24    2.09
  -2   4  10   46.71    2.23
   1  -4 -10   82.15    3.21
  -1   4  10   80.38    2.99
  -1   4  10   81.10    3.43
   0  -4 -10   84.63    3.25
   0   4  10   82.53    3.11
   0   4  10   82.56    3.55
  -1  -4 -10   23.42    1.07
   1   4  10   23.58    1.01
   1   4  10   24.50    1.37
  -2  -4 -10    8.11    0.48
   2   4  10    8.45    0.51
   3   4  10   -0.10    0.18
   4   4  10    6.05    0.57
   5   4  10   11.40    0.80
   6   4  10   -0.46    0.30
   7   4  10    3.08    0.58
   8   4  10    3.81    0.66
   9   4  10    0.49    0.52
  11  -5 -10    2.01    0.55
  10  -5 -10    0.46    0.40
   9  -5 -10    2.99    0.59
   8  -5 -10    0.50    0.38
   7  -5 -10   16.82    1.08
   6  -5 -10    6.14    0.67
   5  -5 -10   14.04    0.93
   4  -5 -10    8.62    0.40
   4  -5 -10    7.86    0.68
  -4   5  10    8.53    0.73
   3  -5 -10    0.35    0.27
  -3   5  10   -0.04    0.26
   2  -5 -10   17.20    0.95
  -2   5  10   18.14    0.68
  -2   5  10   16.49    1.06
   1  -5 -10    0.53    0.24
  -1   5  10    0.91    0.36
  -1   5  10    0.28    0.09
   0  -5 -10    0.00    0.19
   0   5  10    0.28    0.29
   0   5  10    0.11    0.11
  -1  -5 -10   12.68    0.70
   1   5  10   12.76    0.63
   1   5  10   12.47    0.94
  -2  -5 -10   10.08    0.59
   2   5  10   11.23    0.61
   3   5  10   24.80    1.17
   4   5  10    6.11    0.57
   5   5  10   27.04    1.35
   6   5  10   12.34    0.90
   7   5  10   26.44    1.45
   8   5  10   17.74    1.25
  10  -6 -10    0.52    0.43
   9  -6 -10    1.06    0.41
   8  -6 -10    4.23    0.64
   7  -6 -10    8.29    0.86
   6  -6 -10   28.36    1.52
   5  -6 -10   52.81    2.37
   4  -6 -10   30.57    1.53
  -4   6  10   30.33    1.56
   3  -6 -10   50.50    2.16
  -3   6  10   46.95    2.21
   2  -6 -10   30.33    1.41
  -2   6  10   26.85    1.49
   1  -6 -10   85.53    3.49
  -1   6  10   89.46    3.25
  -1   6  10   86.84    3.70
   0  -6 -10   37.22    1.68
   0   6  10   37.29    1.93
   0   6  10   39.26    1.51
  -1  -6 -10   12.87    0.73
   1   6  10   12.29    0.62
   1   6  10   11.50    0.95
  -2  -6 -10   28.77    1.30
   2   6  10   30.74    1.30
   3   6  10   21.22    1.04
   4   6  10    0.21    0.27
   5   6  10    6.90    0.65
   6   6  10    0.18    0.31
   7   6  10    2.74    0.52
   8   6  10    0.02    0.43
  10  -7 -10    1.42    0.52
   9  -7 -10    0.19    0.39
   8  -7 -10    0.43    0.41
   7  -7 -10    4.01    0.61
   6  -7 -10    0.46    0.37
   5  -7 -10   16.83    1.06
  -5   7  10   16.14    1.07
   4  -7 -10    0.12    0.31
  -4   7  10    0.63    0.32
   3  -7 -10    9.01    0.72
  -3   7  10    9.24    0.76
   2  -7 -10   30.87    1.53
  -2   7  10   31.60    1.64
   1  -7 -10    3.56    0.47
  -1   7  10    3.05    0.55
   0  -7 -10    0.07    0.24
   0   7  10    0.71    0.16
   0   7  10    0.22    0.32
  -1  -7 -10    3.92    0.44
   1   7  10    3.88    0.35
   1   7  10    3.10    0.55
  -2  -7 -10    8.62    0.59
   2   7  10    9.20    0.58
   3   7  10    1.02    0.27
   4   7  10   18.64    1.01
   5   7  10   15.57    0.98
   6   7  10   21.83    1.24
   7   7  10   20.03    1.28
   8   7  10    9.67    0.98
  10  -8 -10    0.22    0.45
   9  -8 -10    0.61    0.46
   8  -8 -10    1.83    0.51
   7  -8 -10    8.18    0.85
   6  -8 -10   44.83    2.17
   5  -8 -10   21.42    1.30
  -5   8  10   23.15    1.29
   4  -8 -10   39.88    1.92
  -4   8  10   39.54    1.90
   3  -8 -10   32.70    1.65
  -3   8  10   32.10    1.66
   2  -8 -10   43.74    2.01
  -2   8  10   42.81    2.09
   1  -8 -10   92.43    3.75
  -1   8  10   93.31    3.95
   0  -8 -10    2.96    0.44
   0   8  10    2.79    0.55
   0   8  10    2.32    0.26
  -1  -8 -10    3.62    0.44
   1   8  10    3.21    0.34
   1   8  10    2.25    0.51
  -2  -8 -10   14.25    0.80
   2   8  10   12.69    0.74
   3   8  10    1.16    0.30
   4   8  10    7.56    0.64
   5   8  10    3.41    0.50
   6   8  10    0.71    0.40
   7   8  10    1.98    0.55
  10  -9 -10    1.95    0.61
   9  -9 -10    0.20    0.42
   8  -9 -10    0.17    0.42
   7  -9 -10    0.45    0.45
   6  -9 -10    4.14    0.63
   5  -9 -10    1.98    0.53
  -5   9  10    1.17    0.40
   4  -9 -10    0.14    0.33
  -4   9  10    0.48    0.31
   3  -9 -10    8.43    0.83
  -3   9  10    9.23    0.78
   2  -9 -10   11.55    0.88
  -2   9  10   11.09    0.90
   1  -9 -10   28.34    1.49
  -1   9  10   31.65    1.69
   0  -9 -10   27.38    1.35
   0   9  10   23.96    1.48
  -1  -9 -10    1.10    0.34
   1   9  10    1.16    0.25
   1   9  10    0.47    0.43
  -2  -9 -10    1.49    0.33
   2   9  10    1.04    0.27
   3   9  10    5.74    0.53
   4   9  10    0.63    0.32
   5   9  10   14.10    0.95
   6   9  10    8.67    0.85
   7   9  10    7.19    0.82
   9 -10 -10    0.63    0.50
   8 -10 -10    0.85    0.50
   7 -10 -10    7.77    0.89
   6 -10 -10   13.09    1.09
   5 -10 -10   33.14    1.80
   4 -10 -10   22.35    1.38
  -4  10  10   24.87    1.34
   3 -10 -10   25.53    1.40
  -3  10  10   22.92    1.35
   2 -10 -10   61.38    2.76
  -2  10  10   64.07    2.83
   1 -10 -10   38.82    1.88
  -1  10  10   38.62    2.02
   0 -10 -10   35.90    1.74
   0  10  10   36.13    1.94
  -1 -10 -10   65.37    2.80
   1  10  10   67.35    2.64
   1  10  10   65.31    3.06
  -2 -10 -10   25.52    1.30
   2  10  10   25.90    1.23
   3  10  10    4.28    0.50
   4  10  10    0.01    0.30
   5  10  10    1.49    0.42
   6  10  10    0.59    0.38
   7  10  10    0.24    0.44
   9 -11 -10    0.87    0.54
   8 -11 -10    0.75    0.48
   7 -11 -10    1.09    0.49
   6 -11 -10    0.36    0.39
   5 -11 -10    0.08    0.37
   4 -11 -10   15.14    1.12
   3 -11 -10    5.55    0.72
  -3  11  10    6.59    0.73
   2 -11 -10    1.73    0.47
  -2  11  10    2.41    0.50
   1 -11 -10    1.38    0.43
  -1  11  10    2.30    0.54
   0 -11 -10    0.47    0.34
   0  11  10    0.31    0.39
  -1 -11 -10   18.66    1.12
   1  11  10   19.26    1.36
   1  11  10   19.22    0.97
  -2 -11 -10    1.19    0.37
   2  11  10    1.53    0.34
   3  11  10    0.10    0.28
   4  11  10    0.53    0.34
   5  11  10    6.10    0.65
   6  11  10    2.90    0.53
   9 -12 -10    2.08    0.67
   8 -12 -10   -0.19    0.49
   7 -12 -10    2.16    0.63
   6 -12 -10    2.04    0.58
   5 -12 -10    4.38    0.76
   4 -12 -10   13.72    1.09
   3 -12 -10   15.33    1.16
   2 -12 -10   47.08    2.31
  -2  12  10   49.59    2.34
  -1  12  10   23.24    1.47
   0 -12 -10   37.34    1.87
   0  12  10   37.03    2.02
  -1 -12 -10   24.87    1.43
   1  12  10   26.55    1.28
   1  12  10   29.87    1.73
   2  12  10   26.60    1.32
   3  12  10   30.75    1.49
   4  12  10    1.08    0.34
   5  12  10    0.69    0.33
   6  12  10    3.41    0.59
   8 -13 -10    3.02    0.69
   7 -13 -10    0.81    0.58
   6 -13 -10    0.07    0.45
   5 -13 -10    0.11    0.43
   4 -13 -10    1.90    0.55
   3 -13 -10    9.71    0.98
   2 -13 -10    6.74    0.82
  -1  13  10    1.68    0.55
   0 -13 -10    2.60    0.56
   0  13  10    1.45    0.52
  -1 -13 -10    3.12    0.57
   1  13  10    2.78    0.65
   1  13  10    1.86    0.37
   2  13  10    2.43    0.44
   2  13  10    2.59    0.42
   3  13  10    0.06    0.24
   4  13  10    0.14    0.28
   5  13  10    0.40    0.36
   7 -14 -10    0.32    0.54
   6 -14 -10   -0.16    0.41
   5 -14 -10    4.78    0.83
   4 -14 -10    5.64    0.85
   3 -14 -10    4.49    0.78
   2 -14 -10   10.16    1.02
   0 -14 -10    9.60    0.96
   0  14  10   11.38    1.07
  -1 -14 -10   12.52    1.00
   1  14  10   11.27    1.06
   2  14  10   18.94    1.06
   3  14  10   10.10    0.76
   4  14  10    2.89    0.50
   6 -15 -10    3.36    0.79
   5 -15 -10    0.72    0.53
   4 -15 -10    0.01    0.51
   3 -15 -10    2.98    0.67
   2 -15 -10    5.36    0.85
   1 -15 -10    0.66    0.42
   0 -15 -10    5.97    0.84
   2  15  10    0.37    0.44
   2  15  10    0.01    0.25
   3  15  10    1.31    0.38
   5 -16 -10    0.87    0.57
   4 -16 -10    8.34    1.08
   3 -16 -10    6.33    0.95
   2 -16 -10    8.29    0.97
   1 -16 -10    9.42    1.09
   0 -16 -10   11.56    1.16
   1  16  10   10.23    0.89
   4 -17 -10    0.23    0.61
   3 -17 -10   -0.05    0.57
   2 -17 -10    0.27    0.56
   1 -17 -10    0.82    0.62
   3  17 -11    1.98    0.56
   2  17 -11    3.94    0.75
   1  17 -11    4.36    0.75
   0  17 -11   12.78    1.06
  -1  17 -11   14.56    1.18
  -2  17 -11    4.46    0.74
   4  16 -11    3.62    0.70
   3  16 -11    2.75    0.58
   2  16 -11    1.19    0.52
   1  16 -11    1.72    0.50
   0  16 -11    0.24    0.45
  -1  16 -11    1.47    0.54
  -2  16 -11   -0.40    0.41
   2 -16  11    0.40    0.52
   3 -16  11    5.32    0.83
  -4  16 -11    2.22    0.56
   4 -16  11    2.16    0.74
   5  15 -11    0.60    0.52
   4  15 -11   -0.28    0.36
   3  15 -11    1.83    0.54
   2  15 -11    1.14    0.50
   1  15 -11    2.20    0.49
   0  15 -11   21.13    1.32
  -1  15 -11    7.05    0.78
  -2  15 -11    6.92    0.75
   2 -15  11    7.68    0.94
  -3  15 -11   13.06    1.01
   3 -15  11   11.32    1.19
  -4  15 -11   10.96    0.93
   4 -15  11    9.94    1.12
   5 -15  11   11.49    1.28
   6  14 -11    7.71    0.94
   5  14 -11    8.53    0.94
   4  14 -11   17.20    1.16
   3  14 -11   10.77    0.93
   2  14 -11    1.65    0.46
   1  14 -11    2.19    0.53
   0  14 -11    0.26    0.39
  -1  14 -11   -0.05    0.34
   1 -14  11    0.27    0.38
  -2  14 -11    5.27    0.66
   2 -14  11    3.52    0.69
  -3  14 -11    1.27    0.45
   3 -14  11    1.06    0.50
  -4  14 -11    0.08    0.37
   4 -14  11    0.44    0.48
   5 -14  11    1.01    0.59
   7  13 -11    0.32    0.54
   6  13 -11    0.11    0.42
   5  13 -11   -0.05    0.37
   4  13 -11    1.15    0.48
   3  13 -11    1.62    0.47
   2  13 -11    1.94    0.46
   1  13 -11    0.80    0.38
   0  13 -11    3.43    0.52
  -1  13 -11    8.96    0.81
   1 -13  11   10.15    0.89
  -3  13 -11    9.68    0.80
   3 -13  11    7.71    0.95
  -4  13 -11   14.34    0.99
   4 -13  11   18.00    1.32
   5 -13  11   11.69    1.20
   6 -13  11    5.11    0.88
   8  12 -11   11.64    1.21
   8  12 -11    9.35    0.94
   7  12 -11    6.91    0.89
   6  12 -11   11.80    1.03
   5  12 -11   17.00    1.18
   4  12 -11   23.93    1.38
   3  12 -11   39.13    1.88
   2  12 -11   24.75    1.36
   1  12 -11    0.46    0.36
   0  12 -11   10.34    0.78
  -1  12 -11    0.73    0.37
   1 -12  11    0.67    0.37
  -2  12 -11    3.74    0.54
   2 -12  11    3.91    0.66
  -3  12 -11   -0.07    0.31
   3 -12  11    0.18    0.41
  -4  12 -11    0.39    0.33
   4 -12  11    0.15    0.37
   5 -12  11    3.75    0.70
   6 -12  11    2.29    0.69
   7 -12  11    4.21    0.83
   8  11 -11   -0.26    0.54
   8  11 -11    0.12    0.33
   7  11 -11    0.56    0.50
   6  11 -11    0.22    0.40
   5  11 -11    0.49    0.38
   4  11 -11    2.22    0.47
   3  11 -11    3.45    0.54
   2  11 -11    2.54    0.49
   1  11 -11   10.33    0.81
   0  11 -11    2.99    0.48
   0 -11  11    2.86    0.52
  -1  11 -11    1.29    0.37
   1 -11  11    2.03    0.47
  -2  11 -11    4.20    0.53
   2 -11  11    4.90    0.68
  -3  11 -11   29.30    1.41
   3 -11  11   26.85    1.57
  -4  11 -11   29.98    1.45
   4 -11  11   29.07    1.72
   5 -11  11    6.46    0.88
   6 -11  11    3.58    0.68
   7 -11  11    7.32    0.94
   9  10 -11    8.84    0.90
   9  10 -11    8.64    1.03
   8  10 -11   14.14    1.25
   8  10 -11   12.53    0.98
   7  10 -11    6.29    0.81
   7  10 -11    5.95    0.67
   6  10 -11   15.52    1.12
   5  10 -11   28.86    1.53
   4  10 -11   40.93    1.92
   3  10 -11   53.21    2.35
   2  10 -11   19.06    1.09
   1  10 -11   23.15    1.23
   0  10 -11    0.59    0.28
   0 -10  11    0.23    0.31
  -1  10 -11    1.92    0.35
   1 -10  11    2.99    0.51
  -2  10 -11    1.17    0.35
   2 -10  11    1.10    0.42
  -3  10 -11    0.03    0.26
   3 -10  11    0.04    0.37
  -4  10 -11    3.40    0.45
   4 -10  11    3.23    0.62
   5 -10  11    0.10    0.42
   6 -10  11    8.93    1.01
   7 -10  11    6.54    0.94
   9   9 -11    0.44    0.42
   9   9 -11   -0.30    0.47
   8   9 -11   -0.58    0.46
   8   9 -11    0.01    0.32
   7   9 -11    0.83    0.45
   7   9 -11    0.88    0.33
   6   9 -11   -0.29    0.37
   5   9 -11    0.15    0.33
   4   9 -11   24.00    1.29
   3   9 -11    0.33    0.29
   2   9 -11    0.15    0.26
   1   9 -11   -0.07    0.24
   0   9 -11    1.74    0.34
   0  -9  11    1.99    0.40
  -1   9 -11    5.54    0.54
   1  -9  11    5.89    0.65
  -2   9 -11    1.32    0.32
   2  -9  11    1.19    0.41
  -3   9 -11   11.60    0.75
   3  -9  11   12.14    0.95
  -4   9 -11   42.45    1.82
   4  -9  11   41.37    2.08
   5  -9  11   39.34    2.04
   6  -9  11   19.65    1.36
   7  -9  11    5.72    0.84
   8  -9  11   10.87    1.20
   9   8 -11    2.98    0.65
   9   8 -11    2.43    0.50
   8   8 -11    9.54    1.00
   8   8 -11    9.02    0.77
   7   8 -11   25.49    1.55
   7   8 -11   26.36    1.35
   6   8 -11   41.36    2.01
   5   8 -11   25.65    1.40
   4   8 -11   22.65    1.25
   3   8 -11   29.24    1.44
   2   8 -11   52.52    2.24
   1   8 -11   44.86    1.94
   0   8 -11   38.45    1.68
  -1   8 -11    8.64    0.62
   1  -8  11    8.99    0.75
   1  -8  11    8.57    0.69
  -2   8 -11    7.86    0.58
   2  -8  11    7.18    0.70
   2  -8  11    6.26    0.70
  -3   8 -11    7.08    0.54
   3  -8  11    7.08    0.72
  -4   8 -11    2.39    0.35
   4  -8  11    2.28    0.48
   5  -8  11    0.46    0.40
   6  -8  11    0.68    0.45
   7  -8  11    4.37    0.71
   8  -8  11    5.13    0.81
  10   7 -11    1.17    0.53
  10   7 -11    1.60    0.51
   9   7 -11    1.27    0.42
   9   7 -11    1.22    0.53
   8   7 -11    0.88    0.34
   8   7 -11    0.71    0.47
   7   7 -11    2.69    0.44
   7   7 -11    1.42    0.55
   6   7 -11    0.65    0.40
   5   7 -11   37.73    1.80
   4   7 -11    5.74    0.59
   3   7 -11    1.60    0.34
   1   7 -11    0.22    0.24
  -1  -7  11    0.06    0.21
   0  -7  11    7.18    0.59
   0  -7  11    6.15    0.68
  -1   7 -11    7.95    0.57
   1  -7  11    8.19    0.64
   1  -7  11    8.85    0.75
  -2   7 -11   13.00    0.74
   2  -7  11   13.27    0.87
   2  -7  11   13.08    0.94
  -3   7 -11    3.88    0.40
   3  -7  11    4.05    0.59
   3  -7  11    3.63    0.55
  -4   7 -11    5.41    0.67
   4  -7  11    6.40    0.85
   4  -7  11    6.50    0.73
   5  -7  11   32.38    1.72
   6  -7  11   17.18    1.20
   7  -7  11   13.81    1.13
   8  -7  11   12.54    1.14
  10   6 -11    0.59    0.49
  10   6 -11    0.84    0.42
   9   6 -11    1.46    0.53
   9   6 -11    1.80    0.43
   8   6 -11    3.59    0.66
   8   6 -11    3.47    0.50
   7   6 -11   20.26    1.10
   7   6 -11   22.23    1.35
   6   6 -11   21.16    1.28
   6   6 -11   21.32    1.09
   5   6 -11   46.78    2.13
   4   6 -11   73.65    3.05
   3   6 -11   61.83    2.58
   2   6 -11   76.09    3.06
   1   6 -11   76.13    3.08
  -1  -6  11   78.35    3.10
  -1  -6  11   78.92    3.32
   0   6 -11   77.39    3.03
   0  -6  11   75.94    3.09
   0  -6  11   77.31    3.27
  -1   6 -11   73.33    2.79
   1  -6  11   68.95    2.91
   1  -6  11   69.61    3.03
  -2   6 -11    2.19    0.30
   2  -6  11    2.19    0.37
   2  -6  11    2.86    0.50
  -3   6 -11    3.22    0.34
   3  -6  11    2.73    0.44
   3  -6  11    3.59    0.58
   4  -6  11    0.43    0.33
   4  -6  11    0.05    0.34
   5  -6  11    0.22    0.32
   5  -6  11    0.08    0.38
   6  -6  11    0.37    0.33
   7  -6  11    2.10    0.55
   8  -6  11    0.52    0.42
  10   5 -11    1.58    0.56
  10   5 -11    2.20    0.50
   9   5 -11    0.22    0.42
   9   5 -11    0.25    0.32
   8   5 -11   -0.17    0.23
   8   5 -11   -0.37    0.37
   7   5 -11   10.33    0.94
   7   5 -11    8.56    0.65
   6   5 -11    3.21    0.60
   6   5 -11    3.19    0.38
   5   5 -11    1.89    0.43
   4   5 -11    1.03    0.35
   3   5 -11    7.47    0.59
   2   5 -11    7.16    0.54
   1   5 -11    2.60    0.35
  -1  -5  11    2.78    0.48
  -1  -5  11    2.95    0.35
   0   5 -11   12.14    0.68
   0  -5  11   11.17    0.70
   0  -5  11   12.17    0.88
  -1   5 -11    0.46    0.21
   1  -5  11    0.55    0.31
   1  -5  11    0.30    0.21
  -2   5 -11    0.39    0.18
   2  -5  11    0.38    0.32
   2  -5  11    0.62    0.24
  -3   5 -11   14.63    0.73
   3  -5  11   15.33    1.04
   3  -5  11   16.02    0.95
   4  -5  11    1.62    0.41
   4  -5  11    1.38    0.48
   5  -5  11    1.04    0.37
   5  -5  11    1.15    0.47
   6  -5  11    7.30    0.80
   6  -5  11    6.90    0.87
   7  -5  11   15.13    1.14
   8  -5  11   14.54    1.17
   9  -5  11    9.74    1.05
  10   4 -11   -0.25    0.37
   9   4 -11    0.24    0.39
   9   4 -11    0.32    0.31
   8   4 -11   13.91    1.04
   8   4 -11   14.24    0.86
   7   4 -11   32.98    1.53
   7   4 -11   36.28    1.78
   6   4 -11    3.75    0.39
   6   4 -11    3.66    0.55
   5   4 -11   46.60    2.13
   4   4 -11   49.48    2.18
   3   4 -11   23.75    1.19
   2   4 -11  128.49    4.76
  -2  -4  11  118.16    4.96
  -1  -4  11  109.43    4.17
   0   4 -11  129.53    4.85
   0  -4  11  124.89    4.88
   0  -4  11  130.76    5.15
  -1   4 -11   22.05    1.00
   1  -4  11   22.56    1.09
   1  -4  11   21.30    1.26
  -2   4 -11    8.13    0.49
   2  -4  11    8.11    0.61
   2  -4  11    8.35    0.76
  -3   4 -11   20.17    0.89
   3  -4  11   19.56    1.07
   3  -4  11   19.42    1.23
   4  -4  11    9.22    0.75
   4  -4  11    9.60    0.90
   5  -4  11    1.22    0.49
   5  -4  11    1.31    0.40
   6  -4  11    0.53    0.38
   6  -4  11    0.91    0.49
   7  -4  11    0.40    0.40
   7  -4  11    1.13    0.57
   8  -4  11    1.44    0.48
   9  -4  11    2.48    0.63
  11   3 -11    4.94    0.73
  10   3 -11    4.48    0.68
   9   3 -11    2.63    0.44
   9   3 -11    4.28    0.66
   8   3 -11    0.44    0.36
   8   3 -11    1.28    0.30
   7   3 -11    1.68    0.31
   7   3 -11    1.08    0.40
   6   3 -11    1.02    0.37
   6   3 -11    1.47    0.26
   5   3 -11    1.46    0.23
   5   3 -11    1.00    0.37
   4   3 -11    0.46    0.29
   3   3 -11    6.96    0.59
   2   3 -11    0.30    0.25
  -2  -3  11    0.10    0.29
   1   3 -11   40.63    1.75
  -1  -3  11   42.62    1.70
  -1  -3  11   41.35    1.99
   0   3 -11    2.84    0.33
   0  -3  11    3.62    0.36
  -1   3 -11    4.85    0.39
   1  -3  11    5.56    0.67
   1  -3  11    5.15    0.43
  -2   3 -11   -0.07    0.14
   2  -3  11    0.08    0.18
   2  -3  11    0.22    0.32
  -3   3 -11    6.67    0.41
   3  -3  11    6.98    0.81
   3  -3  11    7.42    0.59
   4  -3  11   40.60    2.06
   4  -3  11   39.64    1.84
   5  -3  11    5.03    0.74
   5  -3  11    5.04    0.62
   6  -3  11    3.25    0.68
   6  -3  11    2.11    0.45
   7  -3  11   13.59    1.04
   7  -3  11   12.64    1.19
   8  -3  11    7.77    0.91
   9  -3  11    4.59    0.75
  11   2 -11    3.41    0.65
  10   2 -11    0.27    0.37
   9   2 -11   -0.34    0.32
   8   2 -11    4.60    0.65
   8   2 -11    3.75    0.46
   7   2 -11    6.56    0.52
   7   2 -11    7.09    0.72
   6   2 -11   13.66    0.93
   6   2 -11   13.33    0.70
   5   2 -11   25.53    1.12
   5   2 -11   27.89    1.37
   4   2 -11   39.61    1.78
   3   2 -11   70.71    2.87
  -3  -2  11   70.35    3.08
   2   2 -11   50.97    2.13
  -2  -2  11   48.99    2.30
   1   2 -11  112.06    4.29
  -1  -2  11  107.87    4.17
  -1  -2  11  114.89    4.55
   0   2 -11  120.83    4.54
   0  -2  11  117.07    4.82
   0  -2  11  120.51    4.51
  -1   2 -11   82.02    3.22
   1  -2  11   86.05    3.27
  -2   2 -11   52.23    2.10
   2  -2  11   55.68    2.23
  -3   2 -11   44.57    1.79
   3  -2  11   47.15    2.25
   3  -2  11   46.02    1.98
   4  -2  11   18.46    1.05
   4  -2  11   18.34    1.26
   5  -2  11    0.62    0.44
   5  -2  11    0.72    0.34
   6  -2  11    0.09    0.36
   7  -2  11    0.17    0.39
   8  -2  11   -0.25    0.39
   9  -2  11    1.27    0.52
  11   1 -11    3.40    0.62
  10   1 -11    4.61    0.66
   9   1 -11    6.87    0.77
   8   1 -11    2.55    0.38
   8   1 -11    3.11    0.54
   7   1 -11   13.21    0.74
   7   1 -11   12.29    0.93
   6   1 -11    1.86    0.43
   6   1 -11    1.83    0.26
   5   1 -11    5.83    0.59
   5   1 -11    3.84    0.30
   4   1 -11    1.37    0.33
   4   1 -11    1.53    0.17
   3   1 -11    0.93    0.28
  -3  -1  11    0.47    0.31
   2   1 -11   28.12    1.30
  -2  -1  11   27.79    1.49
   1   1 -11   -0.10    0.20
  -1  -1  11    0.00    0.26
  -1  -1  11   -0.08    0.10
   0   1 -11    7.87    0.52
   0  -1  11    8.86    0.75
   0  -1  11    8.22    0.48
  -1   1 -11   12.86    0.64
   1  -1  11   11.44    0.89
   1  -1  11   12.41    0.67
  -2   1 -11    0.77    0.18
   2  -1  11    1.44    0.25
   2  -1  11    0.83    0.41
   3  -1  11   14.35    0.84
   4  -1  11    0.07    0.35
   4  -1  11    0.41    0.28
   5  -1  11    7.35    0.73
   6  -1  11    8.37    0.82
   7  -1  11   21.86    1.36
   8  -1  11    5.29    0.74
   9  -1  11    3.27    0.69
  11   0 -11    0.66    0.44
  10   0 -11    1.55    0.46
   9   0 -11    0.15    0.35
   8   0 -11    1.07    0.38
   7   0 -11    0.44    0.22
   7   0 -11    0.27    0.30
   6   0 -11   23.65    1.01
   6   0 -11   20.03    1.19
   5   0 -11   16.93    0.96
   5   0 -11   15.76    0.73
   4   0 -11   24.15    1.14
   4   0 -11   19.32    0.84
   3   0 -11  116.85    4.32
   3   0 -11  122.18    4.59
  -3   0  11  116.53    4.79
   2   0 -11  125.86    4.99
  -2   0  11  137.45    5.28
   1   0 -11  127.26    4.55
  -1   0  11  112.75    4.40
  -1   0  11  118.38    4.83
   0   0 -11   57.33    2.22
   0   0  11   54.39    2.53
   0   0  11   55.38    2.17
  -1   0 -11   72.89    2.70
   1   0  11   68.74    2.73
   1   0  11   68.47    3.08
  -2   0 -11   68.18    2.54
   2   0  11   65.94    2.98
   2   0  11   65.78    2.66
   3   0  11   46.52    2.00
   3   0  11   46.94    2.30
   4   0  11   26.26    1.57
   4   0  11   24.73    1.27
   5   0  11   16.37    1.02
   6   0  11    0.49    0.39
   7   0  11    0.56    0.41
   8   0  11    1.77    0.55
   9   0  11   -0.12    0.47
  11  -1 -11    6.02    0.78
  10  -1 -11    7.03    0.80
   9  -1 -11   15.30    1.09
   8  -1 -11   21.48    1.29
   7  -1 -11   17.46    1.10
   6  -1 -11    2.96    0.46
   6  -1 -11    3.79    0.34
   5  -1 -11   10.02    0.74
   5  -1 -11   11.74    0.55
   4  -1 -11   20.59    0.81
   4  -1 -11   19.00    1.07
  -4   1  11   20.94    1.26
   3  -1 -11    6.06    0.55
  -3   1  11    4.29    0.59
   2  -1 -11    0.34    0.19
  -2   1  11    0.36    0.32
   1  -1 -11   11.84    0.67
  -1   1  11   11.05    0.49
  -1   1  11   11.37    0.86
   0  -1 -11   25.89    1.17
   0   1  11   26.51    1.10
   0   1  11   27.67    1.50
  -1  -1 -11   14.41    0.70
   1   1  11   14.19    0.71
   1   1  11   13.67    1.04
  -2  -1 -11   12.89    0.60
   2   1  11   12.97    0.72
   2   1  11   12.49    1.00
   3   1  11    9.97    0.93
   3   1  11   10.73    0.68
   4   1  11    0.85    0.33
   5   1  11   -0.34    0.29
   6   1  11    1.94    0.45
   7   1  11    4.70    0.67
   8   1  11    4.88    0.72
   9   1  11    4.07    0.78
  11  -2 -11    0.76    0.46
  10  -2 -11    1.22    0.46
   9  -2 -11    0.36    0.35
   8  -2 -11    1.45    0.44
   7  -2 -11    0.61    0.35
   6  -2 -11    8.01    0.76
   5  -2 -11    0.11    0.27
   5  -2 -11    0.43    0.13
   4  -2 -11   31.00    1.54
   4  -2 -11   33.72    1.24
  -4   2  11   34.23    1.72
   3  -2 -11   19.30    1.05
  -3   2  11   23.31    1.27
  -2   2  11   69.29    3.03
   1  -2 -11   95.15    3.92
  -1   2  11  106.05    4.24
  -1   2  11  104.82    3.74
   0  -2 -11  125.66    4.99
   0   2  11  137.14    5.36
   0   2  11  134.86    4.90
  -1  -2 -11   76.70    2.95
   1   2  11   74.41    3.34
   1   2  11   78.20    2.95
  -2  -2 -11   65.37    2.52
   2   2  11   64.98    2.97
   2   2  11   67.55    2.62
   3   2  11   41.34    2.14
   3   2  11   41.69    1.78
   4   2  11   37.31    1.69
   5   2  11   33.98    1.64
   6   2  11   10.79    0.83
   7   2  11    0.19    0.35
   8   2  11    0.56    0.48
   9   2  11    0.93    0.54
  11  -3 -11    7.20    0.85
  10  -3 -11   11.00    0.98
   9  -3 -11   17.84    1.20
   8  -3 -11   19.61    1.23
   7  -3 -11   13.07    0.95
   6  -3 -11   18.81    1.12
   5  -3 -11    7.52    0.67
   4  -3 -11    0.28    0.28
  -4   3  11    0.56    0.34
   3  -3 -11    2.48    0.37
  -3   3  11    3.56    0.55
  -2   3  11    1.01    0.34
   1  -3 -11    0.87    0.25
  -1   3  11    0.76    0.11
  -1   3  11    0.77    0.34
   0  -3 -11    1.42    0.26
   0   3  11    1.12    0.42
   0   3  11    1.38    0.19
  -1  -3 -11    2.52    0.30
   1   3  11    2.07    0.25
   1   3  11    2.79    0.54
  -2  -3 -11   27.19    1.14
   2   3  11   27.05    1.19
   2   3  11   26.17    1.53
   3   3  11   13.27    0.76
   4   3  11   -0.10    0.24
   5   3  11    0.11    0.27
   6   3  11    3.58    0.56
   7   3  11    0.13    0.34
   8   3  11    2.05    0.54
  11  -4 -11    1.79    0.56
  10  -4 -11    3.71    0.64
   9  -4 -11   12.89    1.00
   8  -4 -11    6.17    0.72
   7  -4 -11    0.21    0.36
   6  -4 -11   -0.13    0.25
   5  -4 -11    6.62    0.66
   4  -4 -11   10.39    0.75
  -4   4  11   11.64    0.86
   3  -4 -11   26.42    1.28
  -3   4  11   23.15    1.38
  -2   4  11   10.06    0.81
   1  -4 -11   59.65    2.45
  -1   4  11   59.17    2.70
  -1   4  11   59.74    2.22
   0  -4 -11   97.68    3.80
   0   4  11   95.31    4.13
   0   4  11   99.87    3.65
  -1  -4 -11   80.67    3.07
   1   4  11   73.44    3.40
   1   4  11   80.54    3.01
  -2  -4 -11   78.92    3.03
   2   4  11   77.75    3.46
   2   4  11   79.58    3.07
   3   4  11   26.55    1.24
   4   4  11   12.53    0.79
   5   4  11   38.32    1.78
   6   4  11   24.00    1.33
   7   4  11    9.85    0.92
   8   4  11    0.11    0.46
  11  -5 -11    3.15    0.65
  10  -5 -11    7.71    0.90
   9  -5 -11    7.06    0.86
   8  -5 -11   26.34    1.49
   7  -5 -11   21.57    1.31
   6  -5 -11   14.70    1.01
   5  -5 -11   22.57    1.26
  -5   5  11   22.93    1.36
   4  -5 -11   11.19    0.82
  -4   5  11   13.55    0.92
   3  -5 -11   10.87    0.76
  -3   5  11    9.16    0.78
  -2   5  11   12.19    0.93
   1  -5 -11    0.34    0.23
  -1   5  11    0.16    0.10
  -1   5  11    0.48    0.32
   0  -5 -11    0.09    0.20
   0   5  11   -0.01    0.33
   0   5  11    0.08    0.12
  -1  -5 -11    1.29    0.27
   1   5  11    1.24    0.21
   1   5  11    0.66    0.38
  -2  -5 -11   -0.14    0.17
   2   5  11   -0.18    0.30
   2   5  11    0.34    0.19
   3   5  11    7.58    0.57
   4   5  11   26.82    1.32
   5   5  11    0.61    0.33
   6   5  11    0.94    0.37
   7   5  11    2.76    0.52
   8   5  11    0.17    0.42
  10  -6 -11    3.68    0.71
   9  -6 -11    2.28    0.55
   8  -6 -11   -0.30    0.34
   7  -6 -11   13.10    1.02
   6  -6 -11    0.84    0.42
   5  -6 -11    0.53    0.34
  -5   6  11    0.45    0.37
   4  -6 -11   -0.02    0.30
  -4   6  11   -0.22    0.29
   3  -6 -11    9.51    0.72
  -3   6  11    9.53    0.80
  -2   6  11   11.03    0.89
  -2   6  11   12.18    0.50
   1  -6 -11   42.97    1.88
  -1   6  11   42.40    2.08
  -1   6  11   41.11    1.61
   0  -6 -11   38.35    1.72
   0   6  11   39.42    1.53
   0   6  11   37.26    1.98
  -1  -6 -11   43.88    1.84
   1   6  11   42.73    2.16
   1   6  11   42.15    1.73
  -2  -6 -11  118.44    4.52
   2   6  11  120.18    4.51
   2   6  11  117.32    4.97
   3   6  11   20.89    1.05
   4   6  11   29.45    1.41
   5   6  11   22.96    1.23
   6   6  11   11.17    0.91
   7   6  11    6.30    0.75
   8   6  11    4.64    0.73
  10  -7 -11    9.54    1.07
   9  -7 -11    7.52    0.87
   8  -7 -11   24.89    1.52
   7  -7 -11   12.10    0.97
   6  -7 -11   18.59    1.22
   5  -7 -11    9.98    0.83
  -5   7  11    9.69    0.86
   4  -7 -11    8.90    0.84
  -4   7  11    8.05    0.76
   3  -7 -11    0.01    0.29
  -3   7  11   -0.41    0.26
   2  -7 -11    1.27    0.33
  -2   7  11    1.94    0.44
   1  -7 -11    8.57    0.70
  -1   7  11    9.43    0.47
  -1   7  11    9.23    0.86
   0  -7 -11   -0.04    0.24
   0   7  11    0.24    0.38
   0   7  11    0.11    0.14
  -1  -7 -11    1.39    0.31
   1   7  11    1.06    0.23
   1   7  11    1.14    0.45
  -2  -7 -11    0.23    0.23
   2   7  11   -0.09    0.18
   3   7  11    1.43    0.32
   4   7  11    6.16    0.58
   5   7  11    9.29    0.77
   6   7  11    0.52    0.41
   7   7  11   -0.18    0.40
  10  -8 -11    1.77    0.57
   9  -8 -11    1.09    0.48
   8  -8 -11    3.09    0.61
   7  -8 -11    1.20    0.46
   6  -8 -11    4.82    0.67
   5  -8 -11    2.71    0.53
  -5   8  11    3.27    0.55
   4  -8 -11    0.18    0.33
  -4   8  11   -0.23    0.26
   3  -8 -11    2.36    0.51
  -3   8  11    2.37    0.49
   2  -8 -11    3.86    0.53
  -2   8  11    3.83    0.62
   1  -8 -11   20.42    1.15
  -1   8  11   19.53    1.30
  -1   8  11   19.53    0.86
   0  -8 -11   55.86    2.35
   0   8  11   51.64    2.59
   0   8  11   53.91    2.12
  -1  -8 -11   49.68    2.13
   1   8  11   50.29    2.47
   1   8  11   47.48    1.97
  -2  -8 -11   13.90    0.80
   2   8  11   13.27    0.76
   3   8  11   54.84    2.29
   4   8  11   34.94    1.63
   5   8  11   12.19    0.88
   6   8  11   12.89    0.97
   7   8  11    6.80    0.83
  10  -9 -11    5.46    0.88
   9  -9 -11    9.44    1.03
   8  -9 -11   13.67    1.16
   7  -9 -11   23.33    1.49
   6  -9 -11   12.33    1.00
   5  -9 -11   37.96    1.98
  -5   9  11   38.40    1.91
   4  -9 -11   26.36    1.52
  -4   9  11   26.92    1.49
   3  -9 -11    2.00    0.50
  -3   9  11    0.99    0.42
   2  -9 -11    1.92    0.45
  -2   9  11    1.67    0.46
   1  -9 -11    0.82    0.38
  -1   9  11    0.42    0.39
   0  -9 -11    1.45    0.40
   0   9  11    1.52    0.51
   0   9  11    1.01    0.23
  -1  -9 -11    1.22    0.36
   1   9  11    0.99    0.25
   1   9  11    0.57    0.44
  -2  -9 -11   29.36    1.48
   2   9  11   26.23    1.26
   3   9  11    0.35    0.27
   4   9  11   10.40    0.78
   5   9  11    1.27    0.41
   6   9  11    0.62    0.40
   7   9  11    1.02    0.48
   9 -10 -11    3.50    0.76
   8 -10 -11    5.29    0.81
   7 -10 -11    0.96    0.48
   6 -10 -11    5.22    0.77
   5 -10 -11   11.84    1.12
   4 -10 -11    0.63    0.41
  -4  10  11    1.05    0.41
   3 -10 -11   -0.34    0.30
  -3  10  11   -0.56    0.26
   2 -10 -11    0.36    0.38
  -2  10  11   -0.10    0.31
   1 -10 -11   12.18    0.94
  -1  10  11   13.02    1.08
   0 -10 -11   10.96    0.85
   0  10  11   11.03    1.03
   0  10  11   11.61    0.65
  -1 -10 -11    9.99    0.80
   1  10  11    9.68    0.97
   1  10  11   10.61    0.65
   2  10  11    1.93    0.35
   3  10  11   43.76    1.92
   4  10  11   30.00    1.48
   5  10  11    9.00    0.78
   6  10  11   19.97    1.26
   9 -11 -11    6.92    0.93
   8 -11 -11    8.30    0.98
   7 -11 -11   13.26    1.13
   6 -11 -11   14.03    1.13
   5 -11 -11   23.50    1.48
   4 -11 -11   53.96    2.59
   3 -11 -11    9.09    0.92
  -3  11  11    7.83    0.85
   2 -11 -11    7.79    0.85
  -2  11  11    6.02    0.77
   1 -11 -11    1.91    0.49
  -1  11  11    2.32    0.58
   0 -11 -11    2.18    0.49
   0  11  11    2.48    0.62
   0  11  11    1.60    0.30
  -1 -11 -11    1.28    0.40
   1  11  11    1.75    0.33
   1  11  11    1.46    0.57
   2  11  11    0.10    0.25
   3  11  11    2.61    0.42
   4  11  11    0.78    0.34
   5  11  11    4.22    0.59
   6  11  11    0.56    0.41
   8 -12 -11    6.48    0.97
   7 -12 -11    3.95    0.77
   6 -12 -11    5.40    0.80
   5 -12 -11    9.08    1.03
   4 -12 -11    3.30    0.65
   3 -12 -11    5.85    0.76
   2 -12 -11    0.97    0.41
  -2  12  11    0.13    0.36
   1 -12 -11    5.59    0.74
  -1  12  11    4.91    0.77
   0 -12 -11    2.96    0.57
   0  12  11    3.16    0.69
  -1 -12 -11    2.17    0.49
   1  12  11    3.51    0.74
   1  12  11    2.86    0.41
   2  12  11   16.71    0.98
   2  12  11   18.98    1.47
   3  12  11   12.13    0.82
   4  12  11   18.68    1.11
   5  12  11   10.47    0.84
   8 -13 -11    2.33    0.70
   7 -13 -11    9.69    1.11
   6 -13 -11   17.12    1.39
   5 -13 -11   15.82    1.25
   4 -13 -11    3.60    0.69
   3 -13 -11   18.39    1.30
   2 -13 -11    7.43    0.89
   1 -13 -11    6.48    0.79
  -1  13  11    5.72    0.83
   0 -13 -11    2.87    0.58
   0  13  11    2.58    0.65
  -1 -13 -11    0.56    0.40
   1  13  11   -0.52    0.19
   1  13  11   -0.47    0.33
   2  13  11   -0.52    0.36
   2  13  11    0.20    0.24
   3  13  11    0.18    0.27
   4  13  11   -0.29    0.26
   5  13  11    0.83    0.36
   7 -14 -11    0.62    0.61
   6 -14 -11    0.79    0.54
   5 -14 -11    3.12    0.74
   4 -14 -11    5.55    0.88
   3 -14 -11    7.76    0.97
   2 -14 -11    2.29    0.63
   1 -14 -11    0.32    0.47
   0 -14 -11    0.25    0.41
   0  14  11   -0.09    0.33
  -1 -14 -11    2.35    0.55
   1  14  11    2.01    0.56
   2  14  11    8.24    0.67
   2  14  11    6.77    0.96
   3  14  11    4.96    0.56
   4  14  11    5.38    0.62
   6 -15 -11   10.94    1.22
   5 -15 -11   12.12    1.23
   4 -15 -11    8.16    1.02
   3 -15 -11    5.07    0.79
   2 -15 -11    9.18    1.06
   1 -15 -11    3.78    0.67
   0 -15 -11    3.32    0.70
   1  15  11    0.13    0.58
   2  15  11    0.21    0.42
   3  15  11   -0.34    0.46
   5 -16 -11    0.92    0.59
   4 -16 -11    1.07    0.57
   3 -16 -11    3.59    0.77
   2 -16 -11    0.93    0.60
   1 -16 -11    0.90    0.37
   0 -16 -11    0.48    0.50
   1  16  11    2.05    0.47
   3 -17 -11   10.16    1.21
   2 -17 -11    7.42    1.03
   1 -17 -11    1.18    0.39
   2  17 -12    2.24    0.56
   1  17 -12    8.91    0.99
   0  17 -12    3.00    0.68
  -1  17 -12    0.13    0.48
   4  16 -12    4.77    0.77
   3  16 -12   11.67    1.06
   2  16 -12   18.89    1.27
   1  16 -12   17.04    1.24
   0  16 -12    8.65    0.88
  -1  16 -12   15.07    1.16
  -2  16 -12   13.11    1.10
   2 -16  12   14.38    1.28
  -3  16 -12    0.99    0.51
   3 -16  12    1.10    0.55
   5  15 -12   -0.03    0.47
   4  15 -12    0.55    0.49
   3  15 -12    3.40    0.61
   2  15 -12    3.29    0.64
   1  15 -12    4.64    0.70
   0  15 -12    0.06    0.38
  -1  15 -12    3.29    0.61
  -2  15 -12   -0.15    0.42
   2 -15  12   -0.61    0.41
  -3  15 -12   -0.10    0.38
   3 -15  12    0.42    0.54
  -4  15 -12    0.36    0.41
   4 -15  12    0.64    0.50
   6  14 -12    2.43    0.64
   5  14 -12    6.22    0.84
   4  14 -12    9.38    0.97
   3  14 -12    7.78    0.81
   2  14 -12   31.94    1.67
   1  14 -12   10.10    0.87
   0  14 -12    8.91    0.85
  -1  14 -12   28.55    1.57
   1 -14  12   31.50    1.77
   2 -14  12    9.21    1.00
  -3  14 -12   18.35    1.13
   3 -14  12   15.32    1.26
  -4  14 -12    8.00    0.78
   4 -14  12    8.49    1.06
   5 -14  12    0.32    0.49
   7  13 -12    3.59    0.78
   6  13 -12    0.59    0.52
   5  13 -12    3.54    0.62
   4  13 -12    0.17    0.38
   3  13 -12    0.11    0.41
   2  13 -12   10.50    0.90
   1  13 -12    0.00    0.33
   0  13 -12    2.39    0.47
  -1  13 -12    0.52    0.34
   1 -13  12    0.32    0.44
  -2  13 -12    2.96    0.51
   2 -13  12    2.96    0.60
  -3  13 -12    6.00    0.67
   3 -13  12    5.90    0.86
  -4  13 -12    0.96    0.40
   4 -13  12    0.89    0.52
   5 -13  12    0.12    0.48
   6 -13  12    1.81    0.65
   7  12 -12    0.59    0.48
   6  12 -12    0.90    0.48
   5  12 -12   10.24    0.98
   4  12 -12   21.26    1.28
   3  12 -12   22.87    1.34
   2  12 -12    0.79    0.39
   1  12 -12   26.10    1.40
   0  12 -12   37.15    1.79
  -1  12 -12   21.54    1.21
   1 -12  12   21.18    1.34
  -2  12 -12   17.59    1.06
   2 -12  12   16.89    1.23
  -3  12 -12   15.17    0.97
   3 -12  12   16.16    1.22
  -4  12 -12    2.71    0.48
   4 -12  12    3.96    0.71
   5 -12  12    0.77    0.56
   6 -12  12    3.22    0.75
   8  11 -12    7.35    1.00
   8  11 -12    9.90    0.92
   7  11 -12    5.28    0.80
   6  11 -12    1.87    0.56
   5  11 -12    1.90    0.48
   4  11 -12    4.04    0.61
   3  11 -12    2.55    0.51
   2  11 -12   -0.30    0.31
   1  11 -12    2.45    0.47
   0  11 -12    0.88    0.37
   0 -11  12    0.40    0.37
   1 -11  12    4.93    0.68
  -2  11 -12    8.39    0.72
   2 -11  12    9.67    0.93
  -3  11 -12    3.52    0.51
   3 -11  12    5.38    0.74
  -4  11 -12    0.44    0.31
   4 -11  12   -0.14    0.36
   5 -11  12   -0.01    0.42
   6 -11  12    0.38    0.44
   7 -11  12   -0.26    0.42
   8  10 -12   -0.30    0.35
   8  10 -12   -0.67    0.51
   7  10 -12    0.03    0.31
   7  10 -12   -0.17    0.42
   6  10 -12    0.18    0.39
   5  10 -12    0.46    0.41
   4  10 -12   30.55    1.57
   3  10 -12   20.78    1.21
   2  10 -12   16.80    1.00
   1  10 -12   23.82    1.24
   0  10 -12   61.42    2.58
   0 -10  12   60.59    2.67
  -1  10 -12   38.56    1.73
   1 -10  12   36.51    1.85
  -2  10 -12   63.40    2.60
   2 -10  12   60.82    2.79
  -3  10 -12   37.32    1.71
   3 -10  12   38.56    1.95
   4 -10  12   12.69    1.06
   5 -10  12    3.21    0.67
   6 -10  12    0.46    0.48
   7 -10  12    5.78    0.88
   9   9 -12   10.19    0.95
   9   9 -12   10.62    1.12
   8   9 -12   12.06    0.91
   8   9 -12   10.44    1.14
   7   9 -12    7.58    0.88
   7   9 -12    6.79    0.69
   6   9 -12    1.82    0.50
   5   9 -12    4.99    0.64
   4   9 -12    1.59    0.44
   3   9 -12    9.22    0.79
   2   9 -12    0.64    0.31
   1   9 -12    0.42    0.30
   0   9 -12    0.93    0.33
   0  -9  12    1.50    0.39
  -1   9 -12   25.15    1.20
   1  -9  12   23.34    1.34
   1  -9  12   20.78    1.27
  -2   9 -12    5.38    0.53
   2  -9  12    6.16    0.68
  -3   9 -12   -0.11    0.25
   3  -9  12   -0.28    0.33
   4  -9  12   -0.34    0.35
   5  -9  12    1.02    0.47
   6  -9  12    2.94    0.64
   7  -9  12    0.69    0.54
   9   8 -12    0.96    0.42
   9   8 -12    0.56    0.51
   8   8 -12    1.98    0.43
   8   8 -12    2.41    0.66
   7   8 -12    0.11    0.29
   7   8 -12   -0.25    0.45
   6   8 -12    0.84    0.47
   5   8 -12    6.23    0.72
   4   8 -12    6.64    0.68
   3   8 -12    2.01    0.39
   2   8 -12   21.20    1.15
   1   8 -12   57.46    2.41
   0  -8  12    7.23    0.64
   0  -8  12    6.79    0.76
  -1   8 -12   64.65    2.54
   1  -8  12   61.63    2.74
   1  -8  12   57.89    2.63
  -2   8 -12   45.94    1.93
   2  -8  12   44.96    2.12
   2  -8  12   45.05    2.15
  -3   8 -12   36.11    1.58
   3  -8  12   35.69    1.79
   4  -8  12   71.58    3.15
   5  -8  12   28.25    1.62
   6  -8  12    5.95    0.78
   7  -8  12    4.82    0.78
   8  -8  12    1.01    0.55
  10   7 -12   12.94    1.17
   9   7 -12   11.06    0.87
   9   7 -12   12.21    1.16
   8   7 -12   12.15    0.85
   8   7 -12   12.40    1.08
   7   7 -12   19.64    1.35
   7   7 -12   19.13    1.07
   6   7 -12   42.63    2.11
   5   7 -12   12.28    0.90
   4   7 -12    6.50    0.69
   3   7 -12    2.73    0.47
   2   7 -12    1.38    0.32
   1   7 -12    0.52    0.28
  -1  -7  12    0.33    0.25
   0   7 -12    7.52    0.59
   0  -7  12    8.56    0.78
   0  -7  12    8.62    0.67
  -1   7 -12    4.05    0.43
   1  -7  12    3.80    0.50
   1  -7  12    3.28    0.54
  -2   7 -12   37.53    1.61
   2  -7  12   38.10    1.78
   2  -7  12   35.48    1.85
  -3   7 -12    6.21    0.51
   3  -7  12    6.90    0.78
   3  -7  12    5.61    0.66
   4  -7  12    1.07    0.40
   5  -7  12    0.08    0.38
   6  -7  12    5.67    0.74
   7  -7  12    0.87    0.45
   8  -7  12    0.29    0.48
  10   6 -12    0.35    0.48
   9   6 -12    1.19    0.54
   9   6 -12    1.34    0.39
   8   6 -12    0.69    0.30
   8   6 -12    1.07    0.50
   7   6 -12    0.14    0.23
   7   6 -12    0.15    0.38
   6   6 -12    0.32    0.43
   5   6 -12    8.31    0.75
   4   6 -12    1.70    0.40
   3   6 -12    3.41    0.46
   2   6 -12   22.77    1.16
   1   6 -12    8.66    0.62
  -1  -6  12    8.94    0.81
  -1  -6  12    7.93    0.59
   0   6 -12   37.36    1.67
   0  -6  12   37.97    1.73
   0  -6  12   42.23    1.97
  -1   6 -12   35.55    1.54
   1  -6  12   36.43    1.67
   1  -6  12   34.78    1.80
  -2   6 -12   22.25    1.04
   2  -6  12   22.26    1.33
   2  -6  12   22.39    1.19
  -3   6 -12   31.85    1.39
   3  -6  12   31.57    1.71
   3  -6  12   33.67    1.63
   4  -6  12   55.91    2.56
   4  -6  12   52.00    2.42
   5  -6  12   31.29    1.61
   5  -6  12   28.06    2.22
   6  -6  12   17.16    1.18
   7  -6  12    2.98    0.63
   8  -6  12    1.48    0.51
  10   5 -12    7.20    0.89
   9   5 -12   11.32    0.86
   9   5 -12   12.15    1.04
   8   5 -12   11.58    0.81
   8   5 -12   14.96    1.09
   7   5 -12   19.48    1.21
   7   5 -12   18.29    1.00
   6   5 -12   65.84    2.93
   6   5 -12   67.44    2.69
   5   5 -12   30.23    1.59
   4   5 -12   22.65    1.23
   3   5 -12    7.43    0.64
   2   5 -12    1.44    0.32
  -2  -5  12    1.37    0.42
  -1  -5  12    3.51    0.56
  -1  -5  12    5.57    0.45
   0   5 -12   10.00    0.63
   0  -5  12   11.22    0.87
   0  -5  12    9.42    0.65
  -1   5 -12    0.58    0.22
   1  -5  12   -0.13    0.21
   1  -5  12    0.18    0.31
  -2   5 -12    1.35    0.26
   2  -5  12    1.00    0.39
   2  -5  12    0.84    0.32
  -3   5 -12   19.66    0.91
   3  -5  12   19.55    1.09
   3  -5  12   17.65    1.23
   4  -5  12   12.87    1.02
   4  -5  12   11.55    0.88
   5  -5  12    6.09    0.84
   5  -5  12    7.18    0.75
   6  -5  12    1.05    0.83
   6  -5  12    1.51    0.48
   7  -5  12    1.81    0.53
   8  -5  12    0.18    0.42
  10   4 -12    0.64    0.45
   9   4 -12   -0.12    0.40
   8   4 -12    3.74    0.64
   8   4 -12    3.79    0.45
   7   4 -12    0.90    0.27
   7   4 -12    1.17    0.47
   6   4 -12    4.00    0.40
   6   4 -12    4.17    0.61
   5   4 -12   10.50    0.82
   4   4 -12    4.40    0.55
   3   4 -12   27.42    1.35
   2   4 -12   60.54    2.48
  -2  -4  12   58.56    2.72
   1   4 -12   31.25    1.49
  -1  -4  12   32.57    1.74
  -1  -4  12   37.78    1.49
   0   4 -12   15.11    0.79
   0  -4  12   14.51    1.03
   0  -4  12   14.91    0.80
  -1   4 -12   18.63    0.93
   1  -4  12   20.93    1.02
   1  -4  12   19.29    1.22
  -2   4 -12   58.87    2.40
   2  -4  12   62.78    2.57
   2  -4  12   62.67    2.78
  -3   4 -12   32.62    1.40
   3  -4  12   36.33    1.84
   3  -4  12   33.61    1.61
   4  -4  12   34.71    1.62
   4  -4  12   29.05    1.76
   5  -4  12   40.76    2.18
   5  -4  12   41.72    1.98
   6  -4  12   13.96    1.04
   6  -4  12   14.76    1.22
   7  -4  12    5.26    0.73
   8  -4  12    7.09    0.87
  10   3 -12    5.34    0.76
   9   3 -12   16.47    1.18
   8   3 -12    9.67    0.69
   8   3 -12   10.93    0.94
   7   3 -12   52.25    2.25
   7   3 -12   44.38    1.98
   6   3 -12   32.16    1.43
   6   3 -12   35.55    1.71
   5   3 -12   37.30    1.56
   5   3 -12   39.13    1.82
   4   3 -12   32.98    1.60
   3   3 -12   21.94    1.18
  -3  -3  12   21.89    1.36
   2   3 -12   10.51    0.72
  -2  -3  12    9.91    0.86
   1   3 -12    4.37    0.44
  -1  -3  12    4.58    0.38
  -1  -3  12    5.09    0.67
   0   3 -12    8.92    0.57
   0  -3  12    7.19    0.82
   0  -3  12    9.08    0.56
  -1   3 -12    1.35    0.25
   1  -3  12    1.33    0.27
   1  -3  12    1.78    0.46
  -2   3 -12    2.04    0.27
   2  -3  12    2.17    0.35
   2  -3  12    1.96    0.46
   3  -3  12    4.63    0.52
   3  -3  12    2.94    0.58
   4  -3  12   56.23    2.45
   4  -3  12   56.57    2.73
   5  -3  12   -0.21    0.29
   5  -3  12    0.32    0.45
   6  -3  12    2.85    0.53
   6  -3  12    4.49    0.79
   7  -3  12    1.88    0.48
   7  -3  12    1.46    0.62
   8  -3  12    0.14    0.41
  11   2 -12    0.44    0.45
  10   2 -12    0.54    0.41
   9   2 -12    1.04    0.42
   8   2 -12    0.81    0.45
   7   2 -12    5.85    0.71
   7   2 -12    4.29    0.42
   6   2 -12    4.58    0.60
   6   2 -12    3.58    0.35
   5   2 -12    0.20    0.13
   5   2 -12   -0.11    0.30
   4   2 -12    6.35    0.64
   3   2 -12   -0.12    0.23
  -3  -2  12   -0.15    0.31
   2   2 -12   13.75    0.83
  -2  -2  12   13.83    1.01
   1   2 -12   15.10    0.81
  -1  -2  12   12.68    0.95
  -1  -2  12   12.42    0.65
   0   2 -12    6.63    0.53
   0  -2  12    8.11    0.74
   0  -2  12    7.55    0.48
  -1   2 -12   35.17    1.53
   1  -2  12   35.61    1.84
   1  -2  12   37.19    1.56
  -2   2 -12   46.48    1.86
   2  -2  12   46.61    1.98
   3  -2  12   40.17    1.77
   3  -2  12   38.36    2.06
   4  -2  12   36.68    1.71
   4  -2  12   35.59    1.95
   5  -2  12   82.01    3.69
   5  -2  12   80.99    3.39
   6  -2  12   45.50    2.17
   6  -2  12   45.70    2.43
   7  -2  12   10.53    0.94
   7  -2  12    9.69    1.19
   8  -2  12    8.31    0.91
  11   1 -12    1.84    0.56
  10   1 -12    5.46    0.76
   9   1 -12    5.74    0.70
   8   1 -12   19.62    1.21
   7   1 -12   30.12    1.59
   6   1 -12   50.88    2.14
   6   1 -12   59.50    2.45
   5   1 -12   22.85    1.02
   5   1 -12   28.11    1.32
   4   1 -12   25.88    1.25
   4   1 -12   23.16    0.98
   3   1 -12   19.60    1.05
  -3  -1  12   20.05    1.24
   2   1 -12   86.31    3.54
  -2  -1  12   95.16    3.85
   1   1 -12   25.82    1.16
  -1  -1  12   23.24    1.02
  -1  -1  12   23.56    1.39
   0   1 -12    4.22    0.40
   0  -1  12    4.03    0.36
   0  -1  12    3.51    0.59
  -1   1 -12   11.37    0.63
   1  -1  12   11.61    0.65
   1  -1  12   12.54    0.94
  -2   1 -12    3.37    0.30
   2  -1  12    2.18    0.52
   2  -1  12    2.65    0.36
   3  -1  12    5.37    0.78
   3  -1  12    7.50    0.59
   4  -1  12    0.31    0.29
   4  -1  12    1.84    0.39
   5  -1  12   -0.01    0.27
   5  -1  12    0.77    0.51
   6  -1  12    4.05    0.58
   6  -1  12    5.32    0.86
   7  -1  12    7.02    0.83
   8  -1  12    1.43    0.51
  11   0 -12    0.15    0.41
  10   0 -12    0.10    0.37
   9   0 -12    1.07    0.40
   8   0 -12    0.66    0.40
   7   0 -12    3.41    0.54
   6   0 -12   12.56    0.92
   5   0 -12   20.21    0.85
   5   0 -12   19.27    1.10
   4   0 -12    0.34    0.25
   4   0 -12    0.39    0.10
  -4   0  12    0.37    0.32
   3   0 -12    0.14    0.25
   3   0 -12    0.09    0.06
  -3   0  12   -0.06    0.28
  -2   0  12   16.53    1.11
   1   0 -12    5.93    0.49
  -1   0  12    4.83    0.31
  -1   0  12    5.32    0.67
   0   0 -12   15.86    0.80
   0   0  12   16.33    0.75
   0   0  12   15.56    1.11
  -1   0 -12   61.65    2.39
   1   0  12   60.90    2.42
   1   0  12   60.79    2.81
  -2   0 -12   20.14    0.88
   2   0  12   20.37    1.32
   2   0  12   19.93    1.00
   3   0  12   34.90    1.90
   3   0  12   35.46    1.60
   4   0  12   31.25    1.78
   4   0  12   28.44    1.45
   5   0  12    8.36    0.76
   5   0  12    8.46    1.05
   6   0  12   45.80    2.18
   7   0  12   18.45    1.22
   8   0  12    8.54    0.91
  11  -1 -12    6.61    0.85
  10  -1 -12    3.84    0.64
   9  -1 -12    5.95    0.77
   8  -1 -12   13.20    1.01
   7  -1 -12   32.08    1.66
   6  -1 -12   20.71    1.17
   5  -1 -12   75.17    3.12
   4  -1 -12   91.92    3.77
  -4   1  12   97.46    4.03
   3  -1 -12   99.31    3.91
  -3   1  12   98.70    4.15
  -2   1  12   77.81    3.37
   1  -1 -12   81.12    3.04
  -1   1  12   72.79    3.31
  -1   1  12   75.34    2.85
   0  -1 -12    0.72    0.21
   0   1  12    0.89    0.17
   0   1  12    0.86    0.37
  -1  -1 -12    7.28    0.48
   1   1  12    7.48    0.86
   1   1  12    7.27    0.48
  -2  -1 -12    0.04    0.14
   2   1  12   -0.04    0.18
   2   1  12    0.18    0.39
   3   1  12   -0.06    0.35
   3   1  12    0.44    0.27
   4   1  12    1.04    0.52
   4   1  12    0.70    0.31
   5   1  12    6.36    0.67
   6   1  12    5.47    0.67
   7   1  12    1.30    0.50
   8   1  12    6.50    0.86
  11  -2 -12    0.77    0.47
  10  -2 -12    2.19    0.56
   9  -2 -12    3.11    0.59
   8  -2 -12    1.85    0.49
   7  -2 -12   -0.09    0.29
   6  -2 -12    9.68    0.81
   5  -2 -12    7.40    0.72
   4  -2 -12   16.71    1.02
  -4   2  12   19.91    1.24
   3  -2 -12    3.80    0.46
  -3   2  12    4.29    0.61
  -2   2  12   30.78    1.66
   1  -2 -12    5.87    0.50
  -1   2  12    6.25    0.31
  -1   2  12    6.33    0.73
   0  -2 -12   15.98    0.84
   0   2  12   16.71    1.12
   0   2  12   16.65    0.75
  -1  -2 -12    9.12    0.55
   1   2  12    8.91    0.54
   1   2  12   11.01    0.95
  -2  -2 -12    6.03    0.40
   2   2  12    5.85    0.77
   2   2  12    5.84    0.48
   3   2  12   23.21    1.51
   3   2  12   23.22    1.16
   4   2  12   14.10    0.88
   5   2  12   25.73    1.36
   6   2  12    8.96    0.78
   7   2  12   13.92    1.08
   8   2  12   13.81    1.16
  11  -3 -12   -0.03    0.39
  10  -3 -12    4.17    0.70
   9  -3 -12    5.68    0.74
   8  -3 -12   18.71    1.23
   7  -3 -12   40.46    1.97
   6  -3 -12   28.01    1.48
   5  -3 -12   11.88    0.86
   4  -3 -12   37.88    1.81
  -4   3  12   41.55    2.00
   3  -3 -12  140.77    5.68
  -3   3  12  155.20    5.94
  -2   3  12  102.56    4.29
   1  -3 -12   24.84    1.22
  -1   3  12   26.25    1.49
  -1   3  12   26.43    1.01
   0  -3 -12   63.28    2.56
   0   3  12   65.18    2.92
   0   3  12   62.65    2.43
  -1  -3 -12    8.52    0.53
   1   3  12    7.89    0.49
   1   3  12    7.22    0.86
  -2  -3 -12   -0.03    0.15
   2   3  12    0.11    0.40
   2   3  12    0.19    0.19
   3   3  12    5.07    0.49
   3   3  12    4.71    0.74
   4   3  12    8.41    0.66
   5   3  12    0.35    0.34
   6   3  12    1.96    0.50
   7   3  12    3.54    0.63
   8   3  12    0.02    0.46
  11  -4 -12    1.03    0.51
  10  -4 -12    2.38    0.58
   9  -4 -12    0.77    0.44
   8  -4 -12    0.31    0.38
   7  -4 -12    4.38    0.65
   6  -4 -12    1.75    0.42
   5  -4 -12    5.08    0.60
  -5   4  12    5.18    0.70
   4  -4 -12   15.51    0.96
  -4   4  12   15.54    1.07
   3  -4 -12    7.74    0.64
  -3   4  12    8.97    0.79
   2  -4 -12    1.77    0.32
  -2   4  12    3.82    0.59
   1  -4 -12    2.69    0.38
  -1   4  12    3.22    0.57
  -1   4  12    2.57    0.20
   0  -4 -12   10.44    0.67
   0   4  12   10.06    0.91
   0   4  12   10.51    0.52
  -1  -4 -12    5.39    0.47
   1   4  12    6.13    0.42
   1   4  12    6.90    0.83
  -2  -4 -12    4.33    0.41
   2   4  12    3.74    0.70
   2   4  12    3.29    0.37
   3   4  12    8.48    0.99
   3   4  12    7.60    0.58
   4   4  12   22.25    1.16
   5   4  12   51.81    2.29
   6   4  12   12.00    0.92
   7   4  12   10.19    0.96
   8   4  12   11.54    1.12
  10  -5 -12    0.79    0.45
   9  -5 -12    0.43    0.40
   8  -5 -12    1.60    0.48
   7  -5 -12   23.65    1.39
   6  -5 -12   10.87    0.86
   5  -5 -12   34.22    1.70
  -5   5  12   33.44    1.78
   4  -5 -12   31.89    1.55
  -4   5  12   27.77    1.61
   3  -5 -12   70.02    2.91
  -3   5  12   67.31    3.04
   2  -5 -12   24.08    1.23
   1  -5 -12   29.38    1.42
  -1   5  12   28.78    1.63
  -1   5  12   30.32    1.16
   0  -5 -12   58.33    2.44
   0   5  12   58.33    2.26
   0   5  12   60.35    2.81
  -1  -5 -12   48.92    2.04
   1   5  12   48.88    2.43
   1   5  12   48.53    1.95
   2   5  12    8.16    0.94
   2   5  12    9.53    0.59
   3   5  12    0.76    0.27
   4   5  12    1.91    0.38
   5   5  12    1.39    0.40
   6   5  12    0.73    0.40
   7   5  12    0.42    0.42
   8   5  12   -0.26    0.46
  10  -6 -12    3.78    0.73
   9  -6 -12    1.64    0.51
   8  -6 -12    3.66    0.63
   7  -6 -12    0.30    0.38
   6  -6 -12    0.54    0.37
   5  -6 -12    2.29    0.52
  -5   6  12    2.10    0.51
   4  -6 -12   11.45    0.87
  -4   6  12   12.98    0.98
   3  -6 -12   18.52    1.11
  -3   6  12   17.76    1.18
  -2   6  12    5.69    0.74
   1  -6 -12    0.22    0.26
  -1   6  12    0.32    0.34
  -1   6  12    0.01    0.11
   0  -6 -12    0.88    0.31
   0   6  12    0.79    0.41
   0   6  12    0.85    0.19
  -1  -6 -12    6.05    0.55
   1   6  12    5.66    0.43
   1   6  12    6.28    0.82
   2   6  12    3.58    0.39
   2   6  12    3.61    0.71
   3   6  12    6.67    0.56
   4   6  12    6.19    0.61
   5   6  12   30.40    1.53
   6   6  12   25.10    1.40
   7   6  12    9.52    0.93
  10  -7 -12    0.06    0.47
   9  -7 -12   -0.03    0.43
   8  -7 -12    3.92    0.69
   7  -7 -12    7.29    0.84
   6  -7 -12   14.87    1.09
   5  -7 -12   11.23    0.95
  -5   7  12   11.81    0.95
   4  -7 -12   51.59    2.35
  -4   7  12   49.00    2.39
   3  -7 -12   44.28    2.04
  -3   7  12   40.86    2.11
  -2   7  12   73.48    3.28
   1  -7 -12   69.12    2.89
  -1   7  12   68.44    2.58
  -1   7  12   67.45    3.11
   0  -7 -12    1.43    0.34
   0   7  12    1.26    0.21
   0   7  12    1.68    0.51
  -1  -7 -12   44.57    1.99
   1   7  12   45.95    1.87
   1   7  12   48.15    2.39
   2   7  12   34.05    1.93
   2   7  12   33.38    1.47
   3   7  12    0.05    0.24
   4   7  12   -0.13    0.28
   5   7  12    1.55    0.44
   6   7  12   -0.31    0.37
   7   7  12   -0.25    0.39
  10  -8 -12    5.25    0.82
   9  -8 -12    0.80    0.48
   8  -8 -12   -0.06    0.37
   7  -8 -12    0.63    0.42
   6  -8 -12    0.66    0.40
   5  -8 -12    1.04    0.46
  -5   8  12    0.83    0.41
   4  -8 -12    4.61    0.63
  -4   8  12    5.02    0.70
   3  -8 -12   13.43    0.98
  -3   8  12   11.44    0.98
  -2   8  12   12.32    1.01
   1  -8 -12   32.96    1.64
  -1   8  12   31.97    1.83
  -1   8  12   33.72    1.35
   0  -8 -12   41.10    1.91
   0   8  12   40.50    2.21
   0   8  12   42.33    1.68
  -1  -8 -12    4.30    0.52
   1   8  12    4.10    0.39
   1   8  12    4.14    0.73
   2   8  12    5.98    0.91
   2   8  12    4.95    0.47
   3   8  12    1.72    0.34
   4   8  12    3.71    0.50
   5   8  12    1.91    0.45
   6   8  12    5.07    0.66
   7   8  12    5.69    0.75
   9  -9 -12    1.42    0.52
   8  -9 -12   -0.39    0.43
   7  -9 -12    4.22    0.75
   6  -9 -12   23.22    1.45
   5  -9 -12    8.84    0.95
  -5   9  12    8.87    0.83
  -4   9  12   24.12    1.45
   3  -9 -12   24.03    1.39
  -3   9  12   21.74    1.40
  -2   9  12   35.23    1.91
   1  -9 -12   39.40    1.89
  -1   9  12   37.68    2.06
   0  -9 -12   32.76    1.58
   0   9  12   28.21    1.81
   0   9  12   31.12    1.32
  -1  -9 -12   90.25    3.74
   1   9  12   96.51    4.17
   1   9  12   92.38    3.58
   2   9  12   29.95    1.38
   2   9  12   30.93    1.90
   3   9  12    0.45    0.29
   4   9  12    7.40    0.66
   5   9  12    4.48    0.60
   6   9  12    1.14    0.45
   9 -10 -12    1.34    0.62
   8 -10 -12    0.21    0.47
   7 -10 -12    0.15    0.43
   6 -10 -12    1.56    0.59
   5 -10 -12    0.21    0.46
   4 -10 -12    7.05    0.83
  -4  10  12    6.99    0.81
   3 -10 -12    0.85    0.42
  -3  10  12    0.28    0.36
   2 -10 -12    5.27    0.71
  -2  10  12    7.31    0.86
   1 -10 -12    3.09    0.56
  -1  10  12    2.22    0.60
   0 -10 -12    4.28    0.60
   0  10  12    5.20    0.44
   0  10  12    4.62    0.80
  -1 -10 -12   17.01    1.06
   1  10  12   17.62    0.90
   1  10  12   16.10    1.34
   2  10  12    0.79    0.28
   2  10  12    0.95    0.59
   3  10  12    0.88    0.32
   4  10  12    0.24    0.31
   5  10  12    5.58    0.66
   6  10  12    1.79    0.50
   9 -11 -12    0.70    0.54
   8 -11 -12   -0.43    0.41
   7 -11 -12    0.15    0.43
   6 -11 -12    0.27    0.44
   5 -11 -12    7.15    0.88
   4 -11 -12   14.77    1.18
   3 -11 -12   20.31    1.34
  -3  11  12   18.50    1.27
   2 -11 -12   23.99    1.49
  -2  11  12   27.49    1.60
   1 -11 -12   17.31    1.14
  -1  11  12   14.22    1.20
   0 -11 -12   46.73    2.20
   0  11  12   46.02    2.47
  -1 -11 -12   32.77    1.68
   1  11  12   34.24    2.00
   1  11  12   33.74    1.49
   2  11  12   18.41    1.48
   2  11  12   18.54    0.99
   3  11  12   14.04    0.90
   4  11  12    0.82    0.34
   5  11  12    7.24    0.73
   8 -12 -12    5.98    0.94
   7 -12 -12    0.94    0.57
   6 -12 -12    1.71    0.60
   5 -12 -12    0.42    0.50
   4 -12 -12    0.57    0.47
   3 -12 -12   -0.04    0.39
   2 -12 -12    4.35    0.67
  -2  12  12    4.88    0.76
   1 -12 -12    0.16    0.42
  -1  12  12    0.29    0.47
   0 -12 -12    1.89    0.52
   0  12  12    2.14    0.62
  -1 -12 -12    8.38    0.82
   1  12  12    6.41    0.95
   2  12  12    0.77    0.61
   2  12  12    1.41    0.34
   3  12  12    1.37    0.34
   4  12  12    1.38    0.35
   5  12  12    2.32    0.48
   8 -13 -12   -0.01    0.50
   7 -13 -12    1.84    0.68
   6 -13 -12    0.63    0.57
   5 -13 -12    1.86    0.64
   4 -13 -12    3.89    0.72
   3 -13 -12    3.27    0.69
   2 -13 -12   10.85    0.99
   1 -13 -12   14.08    1.12
  -1  13  12   14.04    1.20
   0 -13 -12   24.57    1.47
   0  13  12   23.75    1.64
  -1 -13 -12    9.60    0.94
   1  13  12    9.97    1.18
   2  13  12   14.93    1.34
   3  13  12   11.11    0.77
   3  13  12    8.36    1.15
   4  13  12    3.36    0.51
   7 -14 -12    4.47    0.88
   6 -14 -12    1.38    0.66
   5 -14 -12    0.13    0.48
   4 -14 -12    0.37    0.51
   3 -14 -12    2.10    0.60
   2 -14 -12    0.61    0.52
   1 -14 -12    2.75    0.65
   0 -14 -12    6.49    0.83
   0  14  12    6.71    0.94
   1  14  12    1.07    0.50
   2  14  12    3.79    0.79
   3  14  12    0.75    0.52
   6 -15 -12    0.35    0.59
   5 -15 -12    0.22    0.58
   4 -15 -12    0.40    0.52
   3 -15 -12    5.05    0.86
   2 -15 -12    4.42    0.82
   1 -15 -12   15.44    1.28
   0 -15 -12   12.75    1.13
   1  15  12    9.11    1.42
   2  15  12    6.73    1.03
   4 -16 -12   -0.37    0.55
   3 -16 -12   -0.18    0.55
   2 -16 -12   -0.19    0.57
   1 -16 -12    0.99    0.58
   0 -16 -12    2.32    0.68
   3  16 -13   -0.78    0.38
   2  16 -13    0.23    0.44
   1  16 -13    3.36    0.68
   0  16 -13    2.17    0.62
  -1  16 -13    2.63    0.61
  -2  16 -13    6.46    0.82
   2 -16  13    7.46    0.97
   5  15 -13   10.35    1.05
   4  15 -13    8.56    0.97
   3  15 -13    6.42    0.81
   2  15 -13    2.73    0.61
   1  15 -13    2.84    0.61
   0  15 -13    4.41    0.71
  -1  15 -13   -0.02    0.42
  -2  15 -13   -0.15    0.16
   2 -15  13   -0.38    0.44
  -3  15 -13    2.48    0.55
   3 -15  13    4.08    0.82
   6  14 -13    1.29    0.61
   5  14 -13    1.37    0.59
   4  14 -13    0.90    0.46
   3  14 -13    0.97    0.47
   2  14 -13    1.77    0.52
   1  14 -13   -0.31    0.40
   0  14 -13    2.37    0.54
  -1  14 -13    4.89    0.66
   1 -14  13    3.57    0.65
  -2  14 -13    2.42    0.49
   2 -14  13    2.83    0.62
  -3  14 -13   12.45    0.97
   3 -14  13   13.90    1.24
   4 -14  13   10.30    1.17
   6  13 -13   12.09    1.16
   5  13 -13   16.72    1.26
   4  13 -13   18.44    1.28
   3  13 -13   11.69    1.04
   2  13 -13    4.64    0.66
   1  13 -13   10.40    0.93
   0  13 -13    1.14    0.44
  -1  13 -13    1.57    0.46
  -2  13 -13    0.49    0.39
   2 -13  13    0.35    0.40
  -3  13 -13   -0.27    0.34
   3 -13  13   -0.35    0.40
   4 -13  13    0.51    0.46
   5 -13  13    0.40    0.54
   7  12 -13    0.09    0.51
   6  12 -13    0.25    0.50
   5  12 -13    0.63    0.48
   4  12 -13    0.51    0.45
   3  12 -13    4.31    0.64
   2  12 -13   -0.10    0.36
   1  12 -13   -0.16    0.36
   0  12 -13    2.56    0.50
   1 -12  13    1.30    0.47
  -2  12 -13    6.84    0.67
   2 -12  13    6.42    0.85
  -3  12 -13    8.53    0.74
   3 -12  13    8.95    0.95
   4 -12  13    4.49    0.73
   5 -12  13    6.34    0.96
   6 -12  13   11.60    1.21
   8  11 -13    5.79    0.94
   8  11 -13    6.90    0.79
   7  11 -13    4.86    0.77
   6  11 -13   14.15    1.16
   5  11 -13   27.88    1.56
   4  11 -13   44.82    2.16
   3  11 -13   32.92    1.68
   2  11 -13   29.51    1.52
   1  11 -13    1.22    0.42
   0  11 -13   16.26    1.01
   0 -11  13   17.72    1.15
  -1  11 -13    2.36    0.43
   1 -11  13    2.13    0.52
  -2  11 -13    0.63    0.33
   2 -11  13    0.64    0.42
  -3  11 -13    0.22    0.31
   3 -11  13    0.50    0.38
   4 -11  13    1.90    0.57
   5 -11  13    3.52    0.69
   6 -11  13    1.28    0.52
   8  10 -13    0.57    0.41
   8  10 -13    0.23    0.56
   7  10 -13    1.36    0.57
   6  10 -13   -0.37    0.42
   5  10 -13   -0.29    0.40
   4  10 -13    1.83    0.51
   3  10 -13    5.88    0.65
   2  10 -13   11.19    0.83
   1  10 -13    2.32    0.46
   0  10 -13    0.39    0.33
   0 -10  13   -0.18    0.30
  -1  10 -13    3.28    0.48
   1 -10  13    3.88    0.57
  -2  10 -13   14.79    0.93
   2 -10  13   15.98    1.08
  -3  10 -13    6.21    0.60
   3 -10  13    6.99    0.83
   4 -10  13    1.66    0.53
   5 -10  13    9.83    1.01
   6 -10  13   13.41    1.26
   7 -10  13   12.97    1.17
   9   9 -13    5.19    0.69
   9   9 -13    4.39    0.79
   8   9 -13    5.89    0.69
   8   9 -13    4.65    0.82
   7   9 -13    7.08    0.88
   7   9 -13    6.66    0.67
   6   9 -13   10.19    1.01
   5   9 -13   42.89    2.09
   4   9 -13   40.46    1.95
   3   9 -13   54.85    2.42
   2   9 -13   18.27    1.09
   1   9 -13   41.09    1.88
   0  -9  13    2.92    0.46
  -1   9 -13   22.98    1.17
   1  -9  13   21.37    1.34
   1  -9  13   21.95    1.29
  -2   9 -13   33.70    1.53
   2  -9  13   30.78    1.68
  -3   9 -13   15.17    0.88
   3  -9  13   15.45    1.07
   4  -9  13    0.82    0.43
   5  -9  13    2.68    0.57
   6  -9  13    2.95    0.66
   7  -9  13    0.97    0.55
   9   8 -13    1.85    0.49
   9   8 -13    2.32    0.62
   8   8 -13    0.38    0.32
   8   8 -13   -0.04    0.41
   7   8 -13   -0.08    0.49
   7   8 -13    0.53    0.30
   6   8 -13    1.90    0.52
   5   8 -13   10.02    0.89
   4   8 -13    9.21    0.79
   3   8 -13    4.28    0.58
   2   8 -13    4.24    0.54
   1   8 -13    3.22    0.43
  -1  -8  13    2.87    0.45
   0   8 -13    0.02    0.24
   0  -8  13   -0.01    0.32
   0  -8  13   -0.08    0.24
  -1   8 -13    2.99    0.41
   1  -8  13    2.29    0.45
   1  -8  13    2.85    0.56
  -2   8 -13    0.51    0.30
   2  -8  13    1.09    0.38
   2  -8  13    0.56    0.41
  -3   8 -13   12.75    0.77
   3  -8  13   12.27    0.96
   4  -8  13    5.27    0.71
   5  -8  13    4.66    0.70
   6  -8  13    9.01    0.98
   7  -8  13   15.56    1.27
   9   7 -13    0.25    0.52
   8   7 -13   10.87    0.79
   8   7 -13   10.07    1.04
   7   7 -13    4.78    0.75
   7   7 -13    3.78    0.50
   6   7 -13    8.66    0.89
   5   7 -13   32.77    1.69
   4   7 -13   68.29    2.92
   3   7 -13   53.31    2.33
   2   7 -13   46.06    2.03
   1   7 -13   52.97    2.27
  -1  -7  13   52.05    2.27
  -1  -7  13   54.77    2.55
   0   7 -13   39.98    1.75
   0  -7  13   39.22    2.01
   0  -7  13   39.66    1.82
  -1   7 -13    0.93    0.29
   1  -7  13    0.82    0.40
   1  -7  13    1.10    0.35
  -2   7 -13   20.60    0.99
   2  -7  13   16.81    1.23
   2  -7  13   19.74    1.13
  -3   7 -13   31.19    1.37
   3  -7  13   29.13    1.55
   3  -7  13   30.03    1.69
   4  -7  13   11.39    0.93
   5  -7  13   -0.25    0.34
   6  -7  13    0.82    0.45
   7  -7  13    1.33    0.48
   8  -7  13    1.88    0.62
  10   6 -13    5.15    0.83
   9   6 -13    0.19    0.50
   8   6 -13    2.83    0.44
   8   6 -13    2.58    0.59
   7   6 -13    0.25    0.25
   7   6 -13    0.28    0.45
   6   6 -13    0.14    0.44
   5   6 -13    1.77    0.50
   4   6 -13    0.84    0.36
   3   6 -13    0.66    0.31
   2   6 -13    4.77    0.53
  -1  -6  13   13.16    1.01
  -1  -6  13   11.35    0.75
   0   6 -13    6.97    0.56
   0  -6  13    6.83    0.59
   0  -6  13    8.19    0.86
  -1   6 -13   24.25    1.15
   1  -6  13   23.23    1.42
   1  -6  13   23.21    1.24
  -2   6 -13    0.55    0.26
   2  -6  13    0.39    0.32
   2  -6  13    0.93    0.44
  -3   6 -13    5.79    0.49
   3  -6  13    4.11    0.67
   3  -6  13    5.08    0.61
   4  -6  13    7.83    0.89
   4  -6  13    7.47    0.75
   5  -6  13    1.18    0.40
   6  -6  13    1.69    0.48
   7  -6  13   10.16    1.05
   8  -6  13   15.05    1.24
  10   5 -13    0.94    0.55
   9   5 -13    1.94    0.57
   8   5 -13    0.31    0.31
   8   5 -13    1.26    0.53
   7   5 -13    7.07    0.60
   7   5 -13    9.89    0.96
   6   5 -13   13.57    0.79
   6   5 -13   14.71    1.07
   5   5 -13   30.40    1.60
   4   5 -13   38.93    1.85
   3   5 -13   29.30    1.46
   2   5 -13   63.05    2.64
  -2  -5  13   64.37    2.92
   1   5 -13   69.18    2.72
  -1  -5  13   63.63    2.98
   0   5 -13  116.46    4.43
   0  -5  13  114.41    4.76
   0  -5  13  113.84    4.46
  -1   5 -13   59.93    2.38
   1  -5  13   57.94    2.72
   1  -5  13   57.69    2.47
  -2   5 -13   24.04    1.13
   2  -5  13   25.73    1.49
   2  -5  13   24.88    1.29
   3  -5  13   15.46    1.14
   3  -5  13   15.14    0.98
   4  -5  13   11.07    0.86
   4  -5  13   11.03    1.03
   5  -5  13    2.29    0.63
   5  -5  13    1.16    0.43
   6  -5  13    3.03    0.55
   7  -5  13    0.01    0.39
   8  -5  13    0.66    0.45
  10   4 -13    6.21    0.83
   9   4 -13    2.92    0.63
   8   4 -13    0.89    0.48
   7   4 -13    9.06    0.64
   7   4 -13   11.27    0.90
   6   4 -13    1.98    0.52
   6   4 -13    1.67    0.30
   5   4 -13    0.09    0.36
   4   4 -13    4.12    0.55
   3   4 -13    0.70    0.34
   2   4 -13    7.15    0.58
  -2  -4  13    5.86    0.75
   1   4 -13    0.72    0.27
  -1  -4  13    0.43    0.36
  -1  -4  13    0.95    0.23
   0   4 -13    7.03    0.53
   0  -4  13    7.90    0.55
   0  -4  13    5.09    0.73
  -1   4 -13   11.23    0.68
   1  -4  13   11.84    0.75
   1  -4  13   12.29    0.97
  -2   4 -13   11.17    0.65
   2  -4  13   12.27    0.79
   2  -4  13   11.72    0.99
   3  -4  13   40.87    1.87
   3  -4  13   39.64    2.08
   4  -4  13   18.96    1.09
   4  -4  13   16.42    1.28
   5  -4  13    0.28    0.31
   5  -4  13    0.88    0.54
   6  -4  13    0.51    0.38
   6  -4  13    0.42    0.52
   7  -4  13    9.77    0.97
   8  -4  13    2.00    0.55
  10   3 -13    0.03    0.43
   9   3 -13    0.09    0.43
   8   3 -13    3.90    0.62
   7   3 -13    2.74    0.52
   6   3 -13    3.11    0.53
   6   3 -13    3.05    0.34
   5   3 -13    9.91    0.56
   5   3 -13   10.74    0.85
   4   3 -13   52.56    2.32
   3   3 -13   32.89    1.60
  -3  -3  13   34.71    1.86
   2   3 -13   41.75    1.85
  -2  -3  13   40.85    2.08
   1   3 -13   95.76    3.79
  -1  -3  13   91.97    3.69
  -1  -3  13  102.98    4.14
   0   3 -13  139.97    5.34
   0  -3  13  145.95    5.34
   0  -3  13  135.12    5.68
  -1   3 -13   60.77    2.46
   1  -3  13   62.59    2.53
  -2   3 -13   70.86    2.82
   2  -3  13   72.18    2.94
   2  -3  13   74.48    3.25
   3  -3  13   37.35    1.72
   3  -3  13   36.20    1.98
   4  -3  13    6.70    0.92
   4  -3  13    7.11    0.70
   5  -3  13    0.49    0.35
   5  -3  13    0.87    0.53
   6  -3  13    0.18    0.36
   6  -3  13    0.25    0.52
   7  -3  13    0.94    0.44
   7  -3  13    0.71    0.60
   8  -3  13    0.67    0.45
  10   2 -13    6.22    0.82
   9   2 -13    3.76    0.63
   8   2 -13    2.88    0.56
   7   2 -13    3.88    0.62
   6   2 -13    3.37    0.53
   5   2 -13    0.30    0.14
   5   2 -13    0.67    0.34
   4   2 -13    0.46    0.33
   3   2 -13   10.50    0.73
  -3  -2  13   11.07    0.93
   2   2 -13    9.13    0.65
  -2  -2  13   11.00    0.90
   1   2 -13    8.55    0.62
  -1  -2  13    8.31    0.90
  -1  -2  13    7.54    0.47
   0   2 -13    4.66    0.46
   0  -2  13    4.56    0.65
   0  -2  13    4.97    0.40
  -1   2 -13    5.82    0.47
   1  -2  13    6.52    0.77
   1  -2  13    5.86    0.47
  -2   2 -13    0.48    0.20
   2  -2  13   -0.12    0.12
   2  -2  13   -0.25    0.19
   3  -2  13    0.98    0.51
   3  -2  13    1.08    0.32
   4  -2  13    7.45    0.94
   4  -2  13    6.85    0.62
   5  -2  13    5.54    0.89
   5  -2  13    5.35    0.66
   6  -2  13    4.79    0.87
   6  -2  13    4.14    0.64
   7  -2  13   10.46    0.94
   7  -2  13    9.04    1.17
   8  -2  13    3.97    0.94
   8  -2  13    3.91    0.69
  10   1 -13    0.78    0.47
   9   1 -13    0.68    0.41
   8   1 -13   -0.08    0.33
   7   1 -13    2.12    0.47
   6   1 -13   12.84    0.94
   5   1 -13    7.37    0.67
   4   1 -13   20.26    0.89
   4   1 -13   24.66    1.22
  -4  -1  13   23.05    1.42
   3   1 -13   40.77    1.78
  -3  -1  13   37.95    2.00
  -2  -1  13   55.90    2.62
   1   1 -13  127.26    4.71
  -1  -1  13  119.23    4.58
  -1  -1  13  122.03    5.06
   0   1 -13   81.88    3.24
   0  -1  13   82.59    3.21
   0  -1  13   86.07    3.66
  -1   1 -13   19.82    0.92
   1  -1  13   18.57    0.93
   1  -1  13   19.62    1.27
  -2   1 -13   74.23    2.77
   2  -1  13   70.81    2.88
   2  -1  13   70.26    3.26
   3  -1  13   45.37    2.39
   3  -1  13   48.73    2.06
   4  -1  13   46.82    2.10
   5  -1  13   11.97    1.19
   5  -1  13   13.17    0.94
   6  -1  13    0.04    0.37
   6  -1  13    0.56    0.58
   7  -1  13    4.04    0.68
   7  -1  13    3.41    0.79
   8  -1  13    0.25    0.67
   8  -1  13    0.86    0.47
  11   0 -13    5.42    0.77
  10   0 -13    7.03    0.85
   9   0 -13    6.44    0.80
   8   0 -13   14.14    1.05
   7   0 -13   21.63    1.27
   6   0 -13    1.14    0.36
   5   0 -13    8.53    0.74
   4   0 -13    4.99    0.54
  -4   0  13    5.03    0.71
   3   0 -13    1.70    0.37
  -3   0  13    1.94    0.47
   2   0 -13    0.56    0.18
  -2   0  13    1.30    0.44
   1   0 -13    7.88    0.57
  -1   0  13    8.08    0.87
  -1   0  13    7.44    0.41
   0   0 -13   41.94    1.77
   0   0  13   42.40    2.13
   0   0  13   42.69    1.71
  -1   0 -13   32.81    1.36
   1   0  13   30.01    1.72
   1   0  13   31.17    1.36
  -2   0 -13   13.34    0.67
   2   0  13   12.99    1.09
   2   0  13   14.57    0.79
   3   0  13    2.00    0.36
   3   0  13    0.84    0.48
   4   0  13    9.34    1.04
   4   0  13    8.42    0.71
   5   0  13    0.96    0.39
   5   0  13    1.07    0.54
   6   0  13    0.06    0.37
   6   0  13   -0.14    0.37
   7   0  13    4.74    0.73
   8   0  13    5.83    0.82
  11  -1 -13    0.96    0.52
  10  -1 -13    0.42    0.42
   9  -1 -13   -0.07    0.35
   8  -1 -13    8.99    0.91
   7  -1 -13    1.81    0.50
   6  -1 -13    0.04    0.29
   5  -1 -13    3.87    0.55
   4  -1 -13   14.98    0.92
  -4   1  13   14.71    1.11
   3  -1 -13   81.50    3.24
  -3   1  13   77.15    3.49
   2  -1 -13   15.95    0.94
  -2   1  13   21.90    1.27
   1  -1 -13   38.03    1.63
  -1   1  13   38.43    1.96
  -1   1  13   35.64    1.44
   0  -1 -13   74.67    2.95
   0   1  13   74.96    2.87
   0   1  13   76.05    3.35
  -1  -1 -13   77.88    3.01
   1   1  13   80.20    3.50
   1   1  13   75.06    3.00
   2   1  13   43.93    2.28
   2   1  13   43.88    1.86
   3   1  13   42.82    1.96
   3   1  13   48.36    2.41
   4   1  13   46.53    2.44
   4   1  13   46.27    2.08
   5   1  13   15.17    1.02
   5   1  13   15.94    1.38
   6   1  13    0.69    0.42
   7   1  13    7.89    0.88
   8   1  13    0.93    0.53
  11  -2 -13    9.27    1.04
  10  -2 -13   14.55    1.17
   9  -2 -13   10.47    0.91
   8  -2 -13   18.63    1.21
   7  -2 -13   17.04    1.15
   6  -2 -13    4.70    0.59
   5  -2 -13    0.93    0.38
   4  -2 -13   21.61    1.17
  -4   2  13   21.01    1.34
   3  -2 -13    7.50    0.65
  -3   2  13    8.19    0.90
   2  -2 -13    2.02    0.36
  -2   2  13    2.82    0.54
   1  -2 -13    7.69    0.57
  -1   2  13    8.14    0.79
  -1   2  13    6.63    0.35
   0  -2 -13    0.27    0.21
   0   2  13   -0.10    0.29
   0   2  13    0.05    0.13
  -1  -2 -13    4.64    0.41
   1   2  13    4.83    0.77
   1   2  13    4.44    0.39
   2   2  13    6.55    0.52
   2   2  13    5.71    0.81
   3   2  13    4.22    0.49
   3   2  13    4.52    0.76
   4   2  13    7.65    0.72
   4   2  13    8.01    1.02
   5   2  13    1.71    0.46
   6   2  13    2.11    0.50
   7   2  13    0.72    0.48
   8   2  13   -0.25    0.46
  10  -3 -13    3.08    0.63
   9  -3 -13   11.50    0.97
   8  -3 -13    6.80    0.81
   7  -3 -13   -0.14    0.29
   6  -3 -13    2.84    0.52
   5  -3 -13    1.06    0.39
  -5   3  13    0.41    0.38
   4  -3 -13   29.12    1.56
  -4   3  13   36.11    1.83
   3  -3 -13    0.67    0.31
  -3   3  13    0.77    0.42
   2  -3 -13   47.30    2.10
  -2   3  13   50.69    2.39
   1  -3 -13   43.77    2.00
  -1   3  13   49.53    2.35
  -1   3  13   48.22    1.78
   0  -3 -13   53.93    2.24
   0   3  13   55.83    2.62
   0   3  13   53.89    2.11
  -1  -3 -13   17.33    0.88
   1   3  13   17.40    0.85
   1   3  13   17.82    1.30
   2   3  13   58.69    2.41
   2   3  13   60.87    2.91
   3   3  13   85.18    3.38
   3   3  13   83.92    3.85
   4   3  13   37.13    1.75
   4   3  13   38.80    2.18
   5   3  13    8.92    0.82
   6   3  13   16.63    1.13
   7   3  13    1.05    0.49
   8   3  13    0.88    0.53
  10  -4 -13    3.87    0.69
   9  -4 -13   24.53    1.52
   8  -4 -13   41.40    2.10
   7  -4 -13   18.97    1.24
   6  -4 -13    2.14    0.49
   5  -4 -13    3.29    0.52
  -5   4  13    3.54    0.64
   4  -4 -13   21.23    1.26
  -4   4  13   25.29    1.47
   3  -4 -13   20.86    1.20
  -3   4  13   24.07    1.43
   2  -4 -13    1.56    0.36
  -2   4  13    2.56    0.57
   1  -4 -13    1.03    0.30
  -1   4  13    0.17    0.33
  -1   4  13    0.90    0.13
   0  -4 -13    9.72    0.68
   0   4  13   10.76    0.55
   0   4  13   11.38    1.01
  -1  -4 -13    3.34    0.39
   1   4  13    3.83    0.70
   1   4  13    3.04    0.32
   2   4  13    4.60    0.44
   2   4  13    4.78    0.83
   3   4  13   -0.22    0.24
   3   4  13   -0.30    0.40
   4   4  13   -0.27    0.26
   4   4  13    0.04    0.49
   5   4  13    0.32    0.34
   6   4  13    1.11    0.44
   7   4  13    0.43    0.47
   8   4  13   -0.44    0.46
  10  -5 -13    6.45    0.88
   9  -5 -13    6.29    0.86
   8  -5 -13    1.63    0.51
   7  -5 -13   -0.07    0.34
   6  -5 -13    2.19    0.52
   5  -5 -13    2.13    0.46
  -5   5  13    2.07    0.55
   4  -5 -13    2.33    0.45
  -4   5  13    2.20    0.53
   3  -5 -13    6.59    0.69
  -3   5  13    6.26    0.78
   2  -5 -13    0.71    0.32
  -2   5  13    1.03    0.41
   1  -5 -13   81.08    3.28
  -1   5  13   80.22    3.57
  -1   5  13   79.91    3.01
   0  -5 -13   46.07    1.98
   0   5  13   43.85    2.31
   0   5  13   45.25    1.78
  -1  -5 -13    8.20    0.61
   1   5  13    8.34    0.52
   1   5  13    9.64    1.08
   2   5  13   26.37    1.21
   2   5  13   25.50    1.65
   3   5  13   67.92    3.31
   3   5  13   71.11    2.84
   4   5  13   44.73    2.00
   5   5  13   24.10    1.31
   6   5  13    9.94    0.88
   7   5  13   17.34    1.23
  10  -6 -13    3.73    0.73
   9  -6 -13   13.08    1.14
   8  -6 -13   24.87    1.52
   7  -6 -13   27.09    1.57
   6  -6 -13    4.40    0.65
   5  -6 -13    5.38    0.68
  -5   6  13    6.26    0.80
   4  -6 -13   26.39    1.45
  -4   6  13   26.74    1.57
   3  -6 -13    2.70    0.51
  -3   6  13    2.35    0.55
   2  -6 -13    3.46    0.51
  -2   6  13    3.36    0.65
   1  -6 -13    1.11    0.35
  -1   6  13    1.24    0.50
   0  -6 -13   11.94    0.80
   0   6  13   11.66    1.04
   0   6  13   11.47    0.59
  -1  -6 -13   12.25    0.78
   1   6  13   12.31    0.67
   1   6  13   13.94    1.19
   2   6  13   25.11    1.19
   2   6  13   26.06    1.70
   3   6  13    3.73    0.78
   3   6  13    5.14    0.51
   4   6  13    0.00    0.28
   5   6  13    1.64    0.44
   6   6  13    0.37    0.37
   7   6  13   -0.28    0.42
  10  -7 -13    3.04    0.72
   9  -7 -13    2.76    0.69
   8  -7 -13    0.20    0.42
   7  -7 -13   15.00    1.12
   6  -7 -13    0.22    0.40
   5  -7 -13    8.22    0.85
  -5   7  13    9.34    0.93
   4  -7 -13    0.53    0.41
  -4   7  13    0.58    0.41
   3  -7 -13    0.16    0.36
  -3   7  13    1.05    0.44
   2  -7 -13    0.10    0.34
  -2   7  13    0.14    0.35
   1  -7 -13   22.55    1.24
  -1   7  13   21.32    1.44
   0  -7 -13   80.81    3.30
   0   7  13   83.18    3.07
   0   7  13   75.53    3.63
  -1  -7 -13   18.11    1.02
   1   7  13   18.78    0.90
   1   7  13   18.13    1.36
   2   7  13   24.78    1.16
   2   7  13   22.79    1.60
   3   7  13   17.39    1.42
   3   7  13   18.58    1.01
   4   7  13   31.72    1.56
   5   7  13   15.61    1.05
   6   7  13   12.67    0.98
   7   7  13   11.38    1.02
  10  -8 -13   10.95    1.19
   9  -8 -13    2.56    0.70
   8  -8 -13   23.93    1.58
   7  -8 -13   14.33    1.18
   6  -8 -13   17.41    1.26
   5  -8 -13   37.20    1.91
  -5   8  13   34.97    1.91
   4  -8 -13   28.44    1.61
  -4   8  13   28.02    1.63
   3  -8 -13   11.83    0.91
  -3   8  13   10.94    1.00
   2  -8 -13    1.82    0.46
  -2   8  13    0.90    0.43
   1  -8 -13    4.01    0.57
  -1   8  13    3.26    0.68
   0  -8 -13   48.51    2.19
   0   8  13   49.57    2.20
   0   8  13   47.61    2.53
  -1  -8 -13    0.73    0.33
   1   8  13    0.56    0.51
   1   8  13    1.03    0.26
   2   8  13   17.99    0.96
   2   8  13   20.02    1.50
   3   8  13    5.54    0.97
   3   8  13    5.21    0.53
   4   8  13    4.90    0.58
   5   8  13    5.34    0.64
   6   8  13    0.33    0.41
   9  -9 -13    2.84    0.70
   8  -9 -13    5.58    0.89
   7  -9 -13    0.62    0.45
   6  -9 -13   16.84    1.29
   5  -9 -13   17.96    1.21
  -5   9  13   13.82    1.12
   4  -9 -13    0.12    0.37
  -4   9  13   -0.11    0.33
   3  -9 -13    2.67    0.57
  -3   9  13    3.03    0.61
   2  -9 -13    1.65    0.47
  -2   9  13    2.06    0.57
   1  -9 -13    0.54    0.39
  -1   9  13    1.02    0.51
   0  -9 -13    2.47    0.48
   0   9  13    2.12    0.64
  -1  -9 -13   23.47    1.25
   1   9  13   22.46    1.62
   1   9  13   22.86    1.09
   2   9  13    8.08    1.07
   2   9  13    8.52    0.63
   3   9  13   26.82    1.30
   3   9  13   24.88    1.78
   4   9  13   21.29    1.18
   5   9  13   10.41    0.86
   6   9  13   12.75    1.01
   9 -10 -13   11.60    1.23
   8 -10 -13    8.74    1.08
   7 -10 -13   14.51    1.25
   6 -10 -13   22.98    1.52
   5 -10 -13   45.59    2.32
   4 -10 -13   27.09    1.58
  -4  10  13   23.09    1.49
   3 -10 -13   14.80    1.14
  -3  10  13   14.36    1.14
   2 -10 -13    0.49    0.29
  -2  10  13    1.90    0.55
   1 -10 -13    5.63    0.70
  -1  10  13    6.48    0.90
   0 -10 -13    9.00    0.79
   0  10  13    7.68    1.02
  -1 -10 -13    3.70    0.54
   1  10  13    4.10    0.80
   2  10  13    3.48    0.43
   2  10  13    3.35    0.81
   3  10  13    0.15    0.29
   3  10  13    0.86    0.66
   4  10  13    0.06    0.29
   5  10  13    0.41    0.34
   6  10  13    3.56    0.62
   8 -11 -13    4.41    0.85
   7 -11 -13    1.03    0.58
   6 -11 -13    7.86    1.02
   5 -11 -13   19.98    1.44
   4 -11 -13   -0.47    0.34
   3 -11 -13    2.73    0.60
  -3  11  13    2.83    0.61
   2 -11 -13    0.03    0.17
  -2  11  13    0.52    0.44
   1 -11 -13    1.60    0.51
  -1  11  13    1.07    0.52
   0 -11 -13    0.85    0.41
   0  11  13    1.06    0.58
   1  11  13    4.73    0.92
   2  11  13    0.96    0.58
   3  11  13   22.45    1.76
   3  11  13   21.65    1.16
   4  11  13   19.73    1.13
   5  11  13    9.10    0.84
   8 -12 -13    3.30    0.78
   7 -12 -13    5.84    0.87
   6 -12 -13   20.23    1.53
   5 -12 -13   10.92    1.14
   4 -12 -13   24.15    1.60
   3 -12 -13   12.89    1.23
   2 -12 -13    0.42    0.25
  -2  12  13    2.98    0.64
   1 -12 -13   12.60    1.02
  -1  12  13   10.05    1.13
   0 -12 -13    6.50    0.79
   0  12  13    6.68    0.96
   1  12  13    1.88    0.66
   2  12  13   -0.47    0.42
   3  12  13   -0.56    0.50
   4  12  13    0.46    0.33
   7 -13 -13    2.39    0.73
   6 -13 -13    6.81    0.96
   5 -13 -13    0.89    0.61
   4 -13 -13    6.32    0.93
   3 -13 -13    6.12    0.89
   2 -13 -13    1.00    0.44
   1 -13 -13   -0.45    0.37
  -1  13  13    0.40    0.46
   0 -13 -13    3.96    0.67
   0  13  13    4.41    0.78
   1  13  13    0.32    0.44
   2  13  13    3.50    0.76
   3  13  13   -0.19    0.50
   6 -14 -13    6.14    1.00
   5 -14 -13    8.95    1.13
   4 -14 -13    8.35    1.04
   3 -14 -13   18.48    1.44
   2 -14 -13    7.46    0.91
   1 -14 -13    5.73    0.82
   0 -14 -13    5.48    0.79
   0  14  13    5.46    0.89
   1  14  13   -0.15    0.40
   2  14  13   -0.10    0.42
   3  14  13    1.08    0.63
   5 -15 -13    2.85    0.80
   4 -15 -13    2.62    0.75
   3 -15 -13    5.05    0.89
   2 -15 -13    5.04    0.87
   1 -15 -13    5.19    0.86
   0 -15 -13   -0.26    0.47
   1  15  13    2.91    0.85
   2  15  13    0.01    0.48
   3 -16 -13    5.34    0.91
   2 -16 -13   10.87    1.24
   1 -16 -13   17.26    1.40
   0 -16 -13   12.36    1.62
   2  16 -14   -0.44    0.41
   1  16 -14    3.77    0.70
   0  16 -14    3.11    0.61
  -1  16 -14    1.94    0.54
   4  15 -14    2.89    0.64
   3  15 -14   11.49    1.12
   2  15 -14   19.27    1.33
   1  15 -14   12.71    1.02
   0  15 -14   17.16    1.23
  -1  15 -14   17.74    1.23
  -2  15 -14    9.77    0.92
   2 -15  14   10.04    1.13
  -3  15 -14    5.02    0.68
   3 -15  14    4.03    0.75
   5  14 -14    0.02    0.53
   4  14 -14    0.19    0.50
   3  14 -14    1.11    0.53
   2  14 -14    1.58    0.55
   1  14 -14    3.18    0.57
   0  14 -14    1.86    0.53
  -1  14 -14    0.04    0.37
   1 -14  14    0.01    0.38
  -2  14 -14    0.46    0.41
   2 -14  14    0.30    0.48
  -3  14 -14    1.97    0.50
   3 -14  14    2.20    0.65
   4 -14  14    3.95    0.80
   6  13 -14    1.15    0.57
   5  13 -14    1.30    0.57
   4  13 -14    3.95    0.66
   3  13 -14   11.44    1.02
   2  13 -14    9.89    0.88
   1  13 -14    6.55    0.76
   0  13 -14   16.19    1.11
   1 -13  14   24.94    1.56
  -2  13 -14   13.40    0.95
   2 -13  14    9.65    1.04
  -3  13 -14    5.55    0.67
   3 -13  14    6.28    0.86
   4 -13  14   11.25    1.21
   5 -13  14    5.09    0.89
   7  12 -14   10.91    1.19
   6  12 -14    5.75    0.87
   5  12 -14    1.96    0.58
   4  12 -14    0.44    0.46
   3  12 -14    2.06    0.56
   2  12 -14    2.86    0.52
   1  12 -14    1.60    0.46
   0  12 -14    2.46    0.50
   1 -12  14    2.57    0.58
  -2  12 -14    3.19    0.54
   2 -12  14    3.36    0.65
  -3  12 -14    4.96    0.61
   3 -12  14    6.92    0.89
   4 -12  14    1.88    0.61
   5 -12  14   -0.08    0.49
   7  11 -14   -0.01    0.55
   6  11 -14    0.89    0.50
   5  11 -14    1.55    0.54
   4  11 -14    5.67    0.71
   3  11 -14   10.88    0.90
   2  11 -14   10.19    0.88
   1  11 -14   31.12    1.59
   0  11 -14   24.85    1.32
   0 -11  14   22.75    1.39
  -1  11 -14   24.24    1.29
   1 -11  14   22.79    1.41
  -2  11 -14   34.53    1.64
   2 -11  14   32.87    1.82
  -3  11 -14   18.32    1.08
   3 -11  14   19.73    1.33
   4 -11  14   12.13    1.17
   5 -11  14   11.19    1.15
   6 -11  14    3.52    0.74
   8  10 -14    8.94    0.86
   8  10 -14    7.97    1.02
   7  10 -14    6.06    0.95
   6  10 -14    4.94    0.79
   5  10 -14   16.54    1.20
   4  10 -14    3.75    0.60
   3  10 -14    0.65    0.38
   2  10 -14   13.22    0.97
   1  10 -14    0.46    0.36
   0 -10  14    3.58    0.57
  -1  10 -14    1.55    0.39
   1 -10  14    1.22    0.44
  -2  10 -14    9.45    0.75
   2 -10  14   10.53    0.93
  -3  10 -14    8.55    0.70
   3 -10  14    9.84    0.99
   4 -10  14    3.94    0.70
   5 -10  14    0.00    0.37
   6 -10  14    0.86    0.48
   8   9 -14    8.27    0.81
   8   9 -14    8.64    1.07
   7   9 -14    1.47    0.60
   7   9 -14    1.79    0.42
   6   9 -14    0.30    0.43
   5   9 -14    8.40    0.89
   4   9 -14    1.98    0.48
   3   9 -14    0.56    0.37
   2   9 -14   16.66    1.07
   1   9 -14    2.57    0.48
   0   9 -14   36.82    1.71
   0  -9  14   35.86    1.78
  -1   9 -14   61.46    2.61
   1  -9  14   63.53    2.78
   1  -9  14   62.63    2.89
  -2   9 -14   52.85    2.25
   2  -9  14   52.20    2.44
  -3   9 -14   21.19    1.13
   3  -9  14   20.93    1.33
   4  -9  14   12.04    0.98
   5  -9  14   12.03    1.07
   6  -9  14   13.21    1.16
   7  -9  14    3.39    0.76
   9   8 -14   16.73    1.36
   8   8 -14   10.00    0.83
   8   8 -14   13.90    1.19
   7   8 -14    7.82    0.99
   7   8 -14    7.59    0.66
   6   8 -14   26.30    1.60
   5   8 -14   23.05    1.37
   4   8 -14    4.25    0.64
   3   8 -14    6.22    0.70
   2   8 -14    2.75    0.48
   1   8 -14    1.77    0.42
  -1  -8  14    1.25    0.38
   0   8 -14    0.97    0.35
   0  -8  14    0.61    0.32
   0  -8  14    0.74    0.43
  -1   8 -14    0.28    0.29
   1  -8  14   -0.55    0.34
   1  -8  14   -0.09    0.30
  -2   8 -14    0.62    0.31
   2  -8  14    0.57    0.40
   2  -8  14    0.77    0.35
   3  -8  14    5.16    0.70
   4  -8  14    2.75    0.56
   5  -8  14    0.33    0.37
   6  -8  14   -0.40    0.40
   7  -8  14    1.79    0.60
   9   7 -14   -0.16    0.50
   8   7 -14    1.48    0.60
   7   7 -14    1.54    0.53
   7   7 -14    1.44    0.35
   6   7 -14    0.01    0.43
   5   7 -14    0.57    0.40
   4   7 -14    2.69    0.52
   3   7 -14    3.63    0.51
   2   7 -14    9.45    0.76
   1   7 -14    0.56    0.28
  -1  -7  14    0.89    0.46
  -1  -7  14    0.76    0.29
   0   7 -14    4.00    0.49
   0  -7  14    3.29    0.60
   0  -7  14    2.01    0.41
  -1   7 -14   82.44    3.20
   1  -7  14   78.16    3.30
   1  -7  14   77.44    3.51
  -2   7 -14   62.44    2.53
   2  -7  14   60.03    2.87
   2  -7  14   62.83    2.72
   3  -7  14   23.81    1.40
   3  -7  14   26.51    1.56
   4  -7  14   25.87    1.48
   5  -7  14   16.15    1.16
   6  -7  14   18.32    1.29
   7  -7  14    5.67    0.79
   9   6 -14   27.36    1.67
   8   6 -14    3.99    0.74
   7   6 -14   12.29    1.09
   7   6 -14   10.17    0.73
   6   6 -14   45.98    2.25
   5   6 -14   15.77    1.15
   4   6 -14   22.76    1.32
   3   6 -14   23.26    1.26
   2   6 -14   12.45    0.85
  -1  -6  14    4.39    0.49
  -1  -6  14    7.13    0.86
   0   6 -14   14.01    0.85
   0  -6  14   14.77    1.13
   0  -6  14   13.87    0.87
  -1   6 -14    0.02    0.26
   1  -6  14   -0.04    0.36
   1  -6  14    0.08    0.27
  -2   6 -14    0.98    0.29
   2  -6  14    0.48    0.30
   2  -6  14    0.71    0.42
   3  -6  14    0.98    0.49
   3  -6  14    0.96    0.37
   4  -6  14    6.32    0.71
   4  -6  14    7.68    0.94
   5  -6  14    4.39    0.64
   6  -6  14    2.78    0.58
   7  -6  14    1.82    0.57
  10   5 -14    0.63    0.52
   9   5 -14    0.36    0.50
   8   5 -14    0.42    0.46
   7   5 -14    1.07    0.46
   6   5 -14    0.50    0.22
   6   5 -14    0.29    0.39
   5   5 -14   10.39    0.89
   4   5 -14    0.27    0.41
   3   5 -14    8.38    0.77
   2   5 -14   15.94    0.99
  -2  -5  14   18.03    1.27
   1   5 -14   16.15    0.91
  -1  -5  14   15.60    0.87
   0   5 -14    2.07    0.36
   0  -5  14    2.20    0.52
   0  -5  14    2.18    0.36
  -1   5 -14    2.34    0.37
   1  -5  14    1.91    0.38
   1  -5  14    1.77    0.52
  -2   5 -14   63.71    2.53
   2  -5  14   61.70    2.67
   2  -5  14   63.00    2.94
   3  -5  14   33.16    1.86
   3  -5  14   33.20    1.65
   4  -5  14   12.90    1.13
   4  -5  14   14.77    1.00
   5  -5  14   27.53    1.49
   5  -5  14   25.84    1.68
   6  -5  14   17.50    1.20
   7  -5  14    4.11    0.72
   8  -5  14    5.71    0.85
  10   4 -14    5.57    0.82
   9   4 -14   10.17    1.03
   8   4 -14   11.64    1.08
   7   4 -14   12.58    1.03
   6   4 -14   67.27    2.82
   6   4 -14   57.30    2.76
   5   4 -14   37.36    1.83
   4   4 -14   28.35    1.49
   3   4 -14    8.89    0.78
  -3  -4  14    8.86    1.01
   2   4 -14   41.58    1.96
  -2  -4  14   46.37    2.27
   1   4 -14   63.44    2.65
  -1  -4  14   62.82    2.57
  -1  -4  14   66.03    3.00
   0   4 -14    0.36    0.26
   0  -4  14   -0.16    0.18
   0  -4  14    0.09    0.21
  -1   4 -14    3.05    0.39
   1  -4  14    2.73    0.55
   1  -4  14    3.02    0.41
  -2   4 -14    7.11    0.55
   2  -4  14    8.62    0.69
   2  -4  14    8.01    0.90
   3  -4  14   28.23    1.67
   3  -4  14   26.59    1.40
   4  -4  14   10.08    0.81
   4  -4  14    9.05    1.02
   5  -4  14    2.21    0.68
   5  -4  14    1.28    0.43
   6  -4  14    6.16    0.97
   6  -4  14    6.42    0.78
   7  -4  14    0.94    0.43
   8  -4  14    1.21    0.52
  10   3 -14   -0.15    0.43
   9   3 -14   -0.24    0.35
   8   3 -14    1.07    0.46
   7   3 -14    5.12    0.68
   6   3 -14    7.99    0.84
   5   3 -14    7.93    0.77
   5   3 -14    5.33    0.44
   4   3 -14    4.60    0.57
   3   3 -14    1.76    0.40
  -3  -3  14    2.16    0.54
   2   3 -14    7.37    0.64
  -2  -3  14    9.42    0.91
   1   3 -14   15.10    0.92
  -1  -3  14   15.18    1.13
  -1  -3  14   15.85    0.80
   0   3 -14    5.65    0.55
   0  -3  14    8.22    0.94
   0  -3  14    7.70    0.54
  -1   3 -14    9.35    0.64
   1  -3  14    9.02    0.64
  -2   3 -14   16.47    0.89
   2  -3  14   18.60    0.99
   2  -3  14   17.86    1.24
   3  -3  14   36.72    1.98
   3  -3  14   35.60    1.69
   4  -3  14   39.00    2.20
   4  -3  14   41.15    1.90
   5  -3  14   54.99    2.84
   5  -3  14   57.04    2.53
   6  -3  14   19.98    1.58
   6  -3  14   20.08    1.27
   7  -3  14   10.47    1.03
   7  -3  14   10.64    1.28
   8  -3  14    6.23    0.88
  10   2 -14    2.87    0.63
   9   2 -14    7.74    0.90
   8   2 -14    7.31    0.87
   7   2 -14   68.39    3.02
   6   2 -14   28.35    1.53
   5   2 -14   58.60    2.57
   4   2 -14   20.41    1.15
   3   2 -14   13.86    0.88
  -3  -2  14   14.66    1.15
  -2  -2  14   46.97    2.36
   1   2 -14   10.04    0.69
  -1  -2  14    9.43    0.56
  -1  -2  14   11.00    0.97
   0   2 -14    6.25    0.51
   0  -2  14    5.05    0.44
   0  -2  14    5.75    0.75
  -1   2 -14    3.30    0.38
   1  -2  14    4.45    0.70
   1  -2  14    2.87    0.37
  -2   2 -14    5.44    0.45
   2  -2  14    3.58    0.63
   2  -2  14    5.54    0.53
   3  -2  14    6.99    0.60
   3  -2  14    4.54    0.81
   4  -2  14    8.01    0.74
   4  -2  14    6.82    0.94
   5  -2  14    3.04    0.78
   5  -2  14    3.65    0.54
   6  -2  14    1.39    0.45
   6  -2  14    1.39    0.71
   7  -2  14    1.72    0.75
   7  -2  14    0.36    0.44
   8  -2  14    1.56    0.56
   8  -2  14    1.23    0.77
  10   1 -14    0.27    0.46
   9   1 -14    0.01    0.39
   8   1 -14    0.22    0.41
   7   1 -14   16.92    1.17
   6   1 -14   23.68    1.36
   5   1 -14    0.81    0.40
   4   1 -14    4.45    0.57
  -4  -1  14    3.53    0.69
   3   1 -14    8.02    0.68
  -3  -1  14    8.44    0.94
   2   1 -14    0.76    0.26
  -2  -1  14    1.36    0.45
   1   1 -14   12.80    0.75
  -1  -1  14   11.54    0.60
  -1  -1  14   10.77    1.01
   0   1 -14    5.59    0.50
   0  -1  14    6.13    0.44
   0  -1  14    4.97    0.72
  -1   1 -14    6.37    0.50
   1  -1  14    7.89    0.53
   1  -1  14    8.86    0.86
   2  -1  14   20.67    1.40
   2  -1  14   20.75    1.05
   3  -1  14   33.60    1.94
   3  -1  14   30.33    1.49
   4  -1  14    5.46    0.87
   4  -1  14    8.98    0.71
   5  -1  14   40.18    1.94
   6  -1  14   28.93    1.89
   6  -1  14   26.94    1.52
   7  -1  14   12.90    1.03
   7  -1  14   13.59    1.46
   8  -1  14   10.51    1.42
   8  -1  14    6.49    0.84
  10   0 -14    2.19    0.61
   9   0 -14    2.26    0.58
   8   0 -14   13.56    1.05
   7   0 -14   28.47    1.58
   6   0 -14   73.98    3.17
   5   0 -14   31.56    1.59
   4   0 -14   24.76    1.32
  -4   0  14   25.28    1.55
   3   0 -14   84.35    3.42
  -3   0  14   84.82    3.74
   2   0 -14  116.55    4.46
  -2   0  14  112.07    4.80
   1   0 -14   30.45    1.37
  -1   0  14   29.67    1.71
  -1   0  14   28.82    1.20
   0   0 -14    1.62    0.30
   0   0  14    1.94    0.51
   0   0  14    2.33    0.27
  -1   0 -14    2.92    0.34
   1   0  14    2.14    0.56
   1   0  14    2.67    0.33
   2   0  14    3.60    0.72
   2   0  14    2.51    0.36
   3   0  14    1.73    0.63
   3   0  14    1.41    0.34
   4   0  14    2.01    0.66
   4   0  14    2.31    0.43
   5   0  14    2.29    0.48
   5   0  14    2.84    0.80
   6   0  14    1.60    0.47
   6   0  14    1.25    0.67
   7   0  14    0.28    0.40
   7   0  14    3.00    0.58
   8   0  14    0.81    0.54
   8   0  14    1.58    0.84
  10  -1 -14    0.44    0.41
   9  -1 -14    0.46    0.44
   8  -1 -14    1.86    0.49
   7  -1 -14    0.78    0.45
   6  -1 -14    0.18    0.35
   5  -1 -14    9.19    0.76
   4  -1 -14    2.12    0.40
  -4   1  14    2.28    0.58
   3  -1 -14    1.28    0.33
  -3   1  14    1.71    0.50
   2  -1 -14   12.15    0.78
  -2   1  14   10.82    0.95
   1  -1 -14    9.45    0.65
  -1   1  14    9.96    0.91
  -1   1  14    9.78    0.48
   0  -1 -14    0.44    0.23
   0   1  14    0.43    0.16
   0   1  14    0.21    0.39
  -1  -1 -14    1.39    0.26
   1   1  14    0.84    0.21
   1   1  14    1.34    0.49
   2   1  14    6.24    0.53
   2   1  14    6.15    0.90
   3   1  14   10.78    1.21
   3   1  14   10.19    0.73
   4   1  14    5.00    0.87
   4   1  14    5.52    0.62
   5   1  14    6.20    0.70
   5   1  14    5.83    0.96
   6   1  14   18.43    1.51
   6   1  14   16.70    1.17
   7   1  14    6.61    1.14
   7   1  14    5.54    0.75
   8   1  14   12.47    1.55
   8   1  14   14.51    1.20
  10  -2 -14    0.61    0.49
   9  -2 -14    9.89    1.01
   8  -2 -14    4.55    0.72
   7  -2 -14   14.94    1.10
   6  -2 -14   31.60    1.65
   5  -2 -14   33.13    1.70
  -5   2  14   35.85    1.95
   4  -2 -14   17.88    1.06
  -4   2  14   15.86    1.19
   3  -2 -14  104.79    4.12
  -3   2  14  101.08    4.40
   2  -2 -14  110.30    4.27
  -2   2  14  105.76    4.59
   1  -2 -14   57.09    2.36
  -1   2  14   54.02    2.12
  -1   2  14   59.49    2.74
   0  -2 -14   21.96    1.09
   0   2  14   22.69    0.97
   0   2  14   21.90    1.45
  -1  -2 -14   19.67    0.97
   1   2  14   20.41    0.96
   1   2  14   20.01    1.43
   2   2  14    7.11    0.97
   2   2  14    6.60    0.55
   3   2  14    1.01    0.34
   3   2  14    0.77    0.52
   4   2  14   -0.02    0.46
   4   2  14   -0.10    0.30
   5   2  14   -0.28    0.31
   5   2  14   -0.49    0.46
   6   2  14   -0.16    0.36
   6   2  14    0.65    0.68
   7   2  14    2.74    0.64
   8   2  14    0.14    0.51
  10  -3 -14    3.52    0.69
   9  -3 -14    3.45    0.68
   8  -3 -14    0.40    0.37
   7  -3 -14    0.62    0.41
   6  -3 -14    0.29    0.34
   5  -3 -14    1.92    0.47
  -5   3  14    2.40    0.59
   4  -3 -14   22.86    1.30
  -4   3  14   26.04    1.57
   3  -3 -14    9.06    0.71
  -3   3  14    8.76    0.88
   2  -3 -14    0.14    0.26
  -2   3  14    0.46    0.40
   1  -3 -14    0.54    0.27
  -1   3  14    0.53    0.38
   0  -3 -14    0.17    0.23
   0   3  14    0.08    0.14
   0   3  14    0.00    0.39
  -1  -3 -14    0.31    0.22
   1   3  14    0.38    0.20
   1   3  14    0.53    0.46
   2   3  14    7.33    0.59
   2   3  14    8.66    1.02
   3   3  14    7.57    0.65
   3   3  14    7.42    1.00
   4   3  14    5.64    0.94
   4   3  14    7.07    0.69
   5   3  14   16.65    1.10
   5   3  14   18.65    1.57
   6   3  14    6.06    0.73
   7   3  14   10.86    1.04
  10  -4 -14    2.51    0.62
   9  -4 -14    1.86    0.57
   8  -4 -14    0.42    0.42
   7  -4 -14    3.39    0.59
   6  -4 -14   13.18    0.99
   5  -4 -14    5.35    0.66
  -5   4  14    5.69    0.78
   4  -4 -14   62.98    2.90
  -4   4  14   73.60    3.18
   3  -4 -14   80.24    3.44
  -3   4  14   87.44    3.74
   2  -4 -14   34.43    1.68
  -2   4  14   37.46    1.98
   1  -4 -14   15.78    0.95
  -1   4  14   17.38    1.23
   0  -4 -14   14.68    0.86
   0   4  14   13.35    0.68
   0   4  14   14.46    1.14
  -1  -4 -14   48.85    2.12
   1   4  14   52.15    2.64
   1   4  14   51.60    2.06
   2   4  14   53.86    2.19
   2   4  14   51.57    2.70
   3   4  14   23.65    1.18
   3   4  14   21.68    1.60
   4   4  14    1.34    0.38
   4   4  14    1.57    0.66
   5   4  14    0.50    0.63
   5   4  14    0.35    0.37
   6   4  14    0.31    0.41
   7   4  14    0.18    0.45
  10  -5 -14    1.78    0.60
   9  -5 -14    2.49    0.63
   8  -5 -14    3.08    0.63
   7  -5 -14    0.13    0.37
   6  -5 -14    3.56    0.64
   5  -5 -14    0.45    0.39
  -5   5  14    0.82    0.44
   4  -5 -14   35.52    1.79
  -4   5  14   34.95    1.95
   3  -5 -14   28.22    1.50
  -3   5  14   30.31    1.73
   2  -5 -14    2.91    0.47
  -2   5  14    3.60    0.65
   1  -5 -14   -0.23    0.24
  -1   5  14    0.29    0.38
   0  -5 -14    7.17    0.61
   0   5  14    6.91    0.90
   0   5  14    6.75    0.44
  -1  -5 -14    3.69    0.45
   1   5  14    3.41    0.37
   1   5  14    3.67    0.74
   2   5  14    0.01    0.23
   2   5  14    0.13    0.46
   3   5  14   -0.40    0.25
   3   5  14    0.14    0.50
   4   5  14    5.01    0.96
   4   5  14    5.96    0.61
   5   5  14   15.07    1.01
   6   5  14   19.59    1.25
   7   5  14    4.69    0.74
  10  -6 -14    0.26    0.45
   9  -6 -14    0.71    0.50
   8  -6 -14    1.56    0.52
   7  -6 -14    8.27    0.90
   6  -6 -14    0.92    0.43
   5  -6 -14   28.75    1.59
  -5   6  14   26.73    1.66
   4  -6 -14   28.70    1.59
  -4   6  14   31.44    1.75
   3  -6 -14   45.31    2.11
  -3   6  14   42.87    2.26
   2  -6 -14  185.06    7.27
  -2   6  14  193.11    7.57
   1  -6 -14   19.38    1.14
  -1   6  14   19.36    1.35
   0  -6 -14    0.43    0.30
   0   6  14    0.79    0.52
  -1  -6 -14    9.24    0.69
   1   6  14    8.86    0.57
   1   6  14    9.14    1.08
   2   6  14   34.26    2.07
   2   6  14   35.78    1.57
   3   6  14   13.86    0.85
   3   6  14   13.29    1.25
   4   6  14    3.64    0.86
   4   6  14    3.22    0.48
   5   6  14    1.29    0.41
   6   6  14    1.52    0.50
   7   6  14    0.07    0.44
  10  -7 -14    3.81    0.81
   9  -7 -14    6.91    0.96
   8  -7 -14    0.04    0.38
   7  -7 -14   -0.27    0.40
   6  -7 -14    5.57    0.79
   5  -7 -14    1.47    0.48
  -5   7  14    0.46    0.45
   4  -7 -14   20.47    1.32
  -4   7  14   21.15    1.41
   3  -7 -14    3.42    0.61
  -3   7  14    3.46    0.65
   2  -7 -14    4.48    0.64
  -2   7  14    4.68    0.76
   1  -7 -14    9.35    0.78
  -1   7  14    7.62    0.93
   0  -7 -14   26.19    1.36
   0   7  14   24.25    1.68
  -1  -7 -14    6.84    0.61
   1   7  14    4.80    0.83
   1   7  14    5.47    0.49
   2   7  14    1.16    0.58
   2   7  14    1.64    0.34
   3   7  14    0.38    0.30
   3   7  14    0.04    0.50
   4   7  14    2.74    0.82
   4   7  14    1.65    0.41
   5   7  14    0.99    0.41
   6   7  14    3.62    0.60
   9  -8 -14   -0.29    0.42
   8  -8 -14    2.29    0.65
   7  -8 -14    0.36    0.45
   6  -8 -14    9.60    1.04
   5  -8 -14   22.64    1.41
  -5   8  14   18.36    1.37
   4  -8 -14    7.73    0.89
  -4   8  14    7.28    0.91
   3  -8 -14   10.15    0.93
  -3   8  14    9.81    0.99
   2  -8 -14   38.67    1.91
  -2   8  14   38.39    2.11
   1  -8 -14   91.45    3.79
  -1   8  14   90.90    4.07
   0  -8 -14   34.48    1.65
   0   8  14   30.73    1.94
   1   8  14   49.28    2.64
   2   8  14   20.65    1.56
   2   8  14   20.07    1.04
   3   8  14    2.45    0.42
   3   8  14    1.50    0.63
   4   8  14    4.65    0.59
   4   8  14    3.35    0.84
   5   8  14    7.71    0.80
   6   8  14    6.17    0.75
   9  -9 -14    5.46    0.90
   8  -9 -14    0.58    0.52
   7  -9 -14    1.70    0.59
   6  -9 -14    5.33    0.79
   5  -9 -14    0.51    0.43
  -5   9  14   -0.13    0.40
   4  -9 -14    1.57    0.50
  -4   9  14    1.19    0.50
   3  -9 -14    4.29    0.72
  -3   9  14    3.12    0.68
   2  -9 -14   14.12    1.07
  -2   9  14   12.94    1.16
   1  -9 -14   -0.07    0.35
  -1   9  14   -0.36    0.42
   0  -9 -14    5.50    0.66
   0   9  14    5.54    0.93
   1   9  14    3.83    0.86
   2   9  14    0.58    0.54
   3   9  14    0.69    0.60
   3   9  14    0.22    0.29
   4   9  14   -0.18    0.29
   4   9  14   -0.55    0.52
   5   9  14    0.14    0.33
   6   9  14    3.23    0.60
   9 -10 -14    0.04    0.54
   8 -10 -14    0.39    0.48
   7 -10 -14    0.01    0.44
   6 -10 -14    0.80    0.55
   5 -10 -14    3.26    0.73
  -5  10  14    2.79    0.96
   4 -10 -14    4.38    0.72
  -4  10  14    6.33    0.84
   3 -10 -14   14.62    1.11
  -3  10  14   13.31    1.15
   2 -10 -14   11.05    1.04
  -2  10  14   10.90    1.06
   1 -10 -14   24.53    1.44
  -1  10  14   24.77    1.64
   0 -10 -14   66.14    2.84
   0  10  14   60.78    3.14
   1  10  14   26.25    1.85
   2  10  14   29.59    1.97
   3  10  14    4.54    0.99
   4  10  14    7.96    0.75
   4  10  14    7.89    1.26
   5  10  14    7.10    0.75
   8 -11 -14    9.60    1.12
   7 -11 -14    2.75    0.72
   6 -11 -14    0.74    0.52
   5 -11 -14    1.29    0.57
   4 -11 -14    4.50    0.78
   3 -11 -14    3.03    0.64
  -3  11  14    2.25    0.63
   2 -11 -14    3.58    0.68
  -2  11  14    2.89    0.69
   1 -11 -14    0.74    0.45
  -1  11  14    1.34    0.57
   0 -11 -14    6.54    0.77
   0  11  14    4.92    0.87
   1  11  14    8.25    1.15
   2  11  14    0.28    0.62
   3  11  14    0.29    0.58
   4  11  14    2.58    0.85
   5  11  14   -0.06    0.35
   8 -12 -14    2.24    0.76
   7 -12 -14    2.23    0.71
   6 -12 -14    0.35    0.52
   5 -12 -14    0.52    0.57
   4 -12 -14    2.11    0.61
   3 -12 -14    5.58    0.83
   2 -12 -14    5.62    0.78
  -2  12  14    7.17    0.94
   1 -12 -14   12.38    1.06
  -1  12  14   13.08    1.23
   0 -12 -14   20.57    1.30
   0  12  14   19.05    1.55
   1  12  14   20.50    1.65
   2  12  14    3.52    0.88
   3  12  14   10.06    1.34
   4  12  14    8.97    1.30
   7 -13 -14    4.05    0.88
   6 -13 -14    3.36    0.82
   5 -13 -14    0.90    0.61
   4 -13 -14    0.44    0.49
   3 -13 -14    0.09    0.51
   2 -13 -14   -0.06    0.36
   1 -13 -14    0.36    0.47
  -1  13  14    1.28    0.51
   0 -13 -14    4.29    0.72
   0  13  14    4.43    0.86
   1  13  14    3.77    0.81
   2  13  14    5.04    0.95
   3  13  14    3.45    0.86
   6 -14 -14    0.02    0.58
   5 -14 -14   -0.06    0.50
   4 -14 -14    1.86    0.65
   3 -14 -14    0.84    0.55
   2 -14 -14    1.58    0.51
   1 -14 -14   15.05    1.28
   0 -14 -14   17.65    1.54
   0  14  14   15.00    1.33
   1  14  14    4.29    0.86
   2  14  14   10.24    1.30
   5 -15 -14    0.72    0.67
   4 -15 -14    0.49    0.66
   3 -15 -14   -0.41    0.53
   2 -15 -14   -0.02    0.29
   1 -15 -14    0.84    0.58
   1  15  14    0.14    0.45
   1  16 -15    1.20    0.55
   4  15 -15    0.00    0.52
   3  15 -15   -0.06    0.53
   2  15 -15   -0.11    0.50
   1  15 -15    0.85    0.53
   0  15 -15    0.22    0.45
  -1  15 -15    1.12    0.54
  -2  15 -15    4.32    0.67
   2 -15  15    4.24    0.83
   5  14 -15   13.97    1.30
   4  14 -15    3.75    0.71
   3  14 -15   10.30    1.06
   2  14 -15    8.46    0.92
   1  14 -15    9.64    0.97
   0  14 -15    5.11    0.69
   1 -14  15    1.64    0.57
  -2  14 -15   -0.28    0.39
   2 -14  15   -0.43    0.43
  -3  14 -15    0.85    0.61
   3 -14  15    2.13    0.62
   6  13 -15    2.53    0.72
   5  13 -15    1.11    0.57
   4  13 -15    0.69    0.54
   3  13 -15    1.22    0.50
   2  13 -15    4.15    0.69
   1  13 -15    0.92    0.43
   0  13 -15    0.40    0.42
  -1  13 -15    0.86    0.44
   1 -13  15    1.59    0.55
  -2  13 -15    1.52    0.47
   2 -13  15    1.96    0.62
  -3  13 -15    9.70    1.23
   3 -13  15    9.25    1.05
   4 -13  15    3.84    0.79
   7  12 -15   14.98    1.39
   6  12 -15   10.46    1.07
   5  12 -15   16.95    1.30
   4  12 -15   25.86    1.54
   3  12 -15   14.61    1.14
   2  12 -15   15.00    1.12
   1  12 -15   12.96    1.00
   0  12 -15    7.49    0.79
  -1  12 -15    9.34    0.82
   1 -12  15    7.36    0.86
  -2  12 -15   -0.31    0.33
   2 -12  15   -0.27    0.39
   3 -12  15    0.18    0.47
   4 -12  15    0.23    0.47
   5 -12  15    0.73    0.55
   7  11 -15    0.07    0.57
   6  11 -15   -0.29    0.43
   5  11 -15    0.77    0.55
   4  11 -15    1.17    0.53
   3  11 -15    7.57    0.80
   2  11 -15    4.09    0.60
   1  11 -15    1.45    0.44
   0  11 -15   -0.03    0.21
   0 -11  15    0.30    0.39
  -1  11 -15    0.40    0.36
   1 -11  15    0.11    0.37
  -2  11 -15    0.62    0.37
   2 -11  15    0.53    0.41
   3 -11  15    0.78    0.46
   4 -11  15    6.24    0.84
   5 -11  15    3.77    0.78
   8  10 -15    7.60    1.04
   7  10 -15   16.84    1.40
   6  10 -15    8.83    0.97
   5  10 -15   10.06    1.01
   4  10 -15   32.86    1.74
   3  10 -15   36.53    1.86
   2  10 -15   22.84    1.34
   1  10 -15   24.16    1.33
   0  10 -15   38.23    1.84
   0 -10  15   40.39    1.95
  -1  10 -15   12.31    0.86
   1 -10  15    9.67    0.95
  -2  10 -15    4.07    0.53
   2 -10  15    4.82    0.69
   3 -10  15    4.36    0.70
   4 -10  15    1.97    0.58
   5 -10  15    3.19    0.68
   6 -10  15    0.88    0.55
   8   9 -15    0.27    0.56
   7   9 -15    0.46    0.60
   7   9 -15    1.01    0.38
   6   9 -15    2.06    0.60
   5   9 -15    1.54    0.56
   4   9 -15    1.53    0.54
   3   9 -15   16.50    1.13
   2   9 -15   14.84    1.02
   1   9 -15    4.03    0.54
   0   9 -15    1.90    0.44
   0  -9  15    1.67    0.44
  -1   9 -15    0.49    0.34
   1  -9  15   -0.40    0.31
   1  -9  15    0.34    0.43
  -2   9 -15    1.16    0.37
   2  -9  15    1.53    0.46
   3  -9  15    0.70    0.46
   4  -9  15    4.76    0.76
   5  -9  15    7.25    0.89
   6  -9  15    4.53    0.79
   9   8 -15   -0.10    0.55
   8   8 -15    3.14    0.75
   7   8 -15    1.27    0.64
   6   8 -15    6.90    0.86
   5   8 -15   18.69    1.25
   4   8 -15   41.72    2.03
   3   8 -15   66.38    2.88
   2   8 -15    4.02    0.55
   1   8 -15   25.78    1.39
  -1  -8  15   29.64    1.45
   0   8 -15   37.65    1.71
   0  -8  15   33.97    1.96
   0  -8  15   35.55    1.74
  -1   8 -15   42.58    1.90
   1  -8  15   42.29    2.00
   1  -8  15   40.31    2.17
  -2   8 -15   14.90    0.91
   2  -8  15   14.67    1.17
   2  -8  15   16.51    1.09
   3  -8  15   11.05    0.90
   4  -8  15    3.13    0.56
   5  -8  15    0.87    0.45
   6  -8  15    5.35    0.80
   9   7 -15    0.16    0.51
   8   7 -15    2.80    0.65
   7   7 -15    0.38    0.49
   6   7 -15    2.74    0.62
   5   7 -15    0.92    0.45
   4   7 -15    8.36    0.86
   3   7 -15    2.99    0.50
   2   7 -15   25.06    1.35
  -1  -7  15   15.64    1.23
  -1  -7  15   14.85    0.94
   0   7 -15   10.65    0.79
   0  -7  15   11.41    0.82
   0  -7  15   11.37    1.04
  -1   7 -15    0.31    0.31
   1  -7  15    0.35    0.42
   1  -7  15    0.16    0.31
  -2   7 -15    8.13    0.64
   2  -7  15    8.03    0.94
   2  -7  15    8.38    0.81
   3  -7  15    1.59    0.56
   3  -7  15    1.57    0.45
   4  -7  15    0.56    0.39
   5  -7  15    3.26    0.63
   6  -7  15    2.95    0.61
   7  -7  15   10.10    1.06
   9   6 -15    0.84    0.54
   8   6 -15    2.98    0.67
   7   6 -15    0.35    0.49
   6   6 -15    7.59    0.87
   5   6 -15   19.67    1.32
   4   6 -15   61.65    2.74
   3   6 -15   69.23    2.97
   2   6 -15    5.22    0.58
  -2  -6  15    4.85    0.76
   1   6 -15    6.93    0.67
  -1  -6  15    6.82    0.60
  -1  -6  15    6.49    0.86
   0   6 -15   80.68    3.23
   0  -6  15   79.99    3.61
   0  -6  15   78.81    3.26
  -1   6 -15   13.18    0.80
   1  -6  15   11.88    1.08
   1  -6  15   11.20    0.84
  -2   6 -15   16.21    0.92
   2  -6  15   17.39    1.06
   2  -6  15   17.01    1.28
   3  -6  15    9.27    0.82
   3  -6  15   10.12    1.01
   4  -6  15   13.43    1.00
   4  -6  15   11.92    1.10
   5  -6  15    3.93    0.65
   6  -6  15    0.19    0.41
   7  -6  15    0.32    0.42
  10   5 -15    6.56    0.94
   9   5 -15    4.33    0.79
   8   5 -15    5.16    0.75
   7   5 -15    4.65    0.70
   6   5 -15    2.76    0.57
   5   5 -15    0.75    0.47
   4   5 -15    1.67    0.50
   3   5 -15    3.62    0.58
   2   5 -15    2.87    0.50
  -2  -5  15    3.29    0.69
   1   5 -15   29.23    1.43
  -1  -5  15   28.77    1.36
   0   5 -15   15.60    0.92
   0  -5  15   16.92    0.93
   0  -5  15   14.76    1.17
  -1   5 -15    6.32    0.57
   1  -5  15    7.06    0.63
   1  -5  15    7.04    0.90
  -2   5 -15    0.00    0.25
   2  -5  15    0.08    0.28
   2  -5  15    0.07    0.42
   3  -5  15    3.61    0.71
   3  -5  15    3.05    0.52
   4  -5  15    6.39    0.71
   4  -5  15    7.77    0.98
   5  -5  15    1.84    0.49
   5  -5  15    0.69    0.56
   6  -5  15    0.04    0.32
   7  -5  15    2.05    0.55
  10   4 -15    0.68    0.55
   9   4 -15    0.63    0.47
   8   4 -15   -0.14    0.42
   7   4 -15    3.94    0.64
   6   4 -15    6.61    0.80
   5   4 -15    5.62    0.71
   4   4 -15   48.56    2.23
   3   4 -15   48.96    2.28
  -3  -4  15   53.09    2.60
   2   4 -15   29.15    1.56
  -2  -4  15   37.14    1.92
   1   4 -15   44.57    1.96
  -1  -4  15   44.01    1.85
  -1  -4  15   41.31    2.24
   0   4 -15   87.95    3.56
   0  -4  15   90.98    3.55
  -1   4 -15   97.41    3.91
   1  -4  15  108.20    4.40
   1  -4  15   97.20    3.96
  -2   4 -15    6.43    0.65
   2  -4  15    6.42    0.89
   2  -4  15    7.52    0.69
   3  -4  15   40.23    2.14
   3  -4  15   37.77    1.83
   4  -4  15    8.11    1.00
   4  -4  15    8.59    0.82
   5  -4  15    3.80    0.61
   5  -4  15    3.54    0.81
   6  -4  15    0.56    0.42
   6  -4  15    0.37    0.60
   7  -4  15    0.26    0.41
  10   3 -15    9.06    1.02
   9   3 -15    3.28    0.69
   8   3 -15    3.21    0.60
   7   3 -15   14.62    1.11
   6   3 -15    0.26    0.43
   5   3 -15    0.40    0.37
   4   3 -15    0.17    0.33
   3   3 -15    0.02    0.32
  -3  -3  15    0.29    0.41
   2   3 -15   -0.07    0.09
  -2  -3  15    0.43    0.42
   1   3 -15    1.63    0.40
  -1  -3  15    1.29    0.26
  -1  -3  15    1.79    0.55
   0   3 -15   28.31    1.38
   0  -3  15   29.20    1.34
   0  -3  15   30.05    1.77
  -1   3 -15    0.14    0.27
   1  -3  15    0.67    0.25
   1  -3  15   -0.09    0.22
   2  -3  15    8.86    0.99
   2  -3  15   10.03    0.71
   3  -3  15    4.22    0.52
   3  -3  15    3.53    0.75
   4  -3  15   -0.01    0.29
   4  -3  15   -0.27    0.47
   5  -3  15    0.94    0.40
   5  -3  15    0.94    0.63
   6  -3  15   -0.39    0.32
   6  -3  15    1.18    0.68
   7  -3  15    0.85    0.69
   7  -3  15    0.40    0.44
  10   2 -15    0.17    0.47
   9   2 -15    0.58    0.48
   8   2 -15    0.71    0.47
   7   2 -15    0.67    0.44
   6   2 -15    3.96    0.60
   5   2 -15    3.76    0.56
   4   2 -15    1.92    0.46
  -4  -2  15    1.73    0.56
   3   2 -15   13.85    0.89
  -3  -2  15   13.23    1.15
   2   2 -15   41.84    1.87
   1   2 -15  116.11    4.53
  -1  -2  15  118.29    4.42
  -1  -2  15  114.72    4.94
   0   2 -15   96.46    3.82
   0  -2  15  100.99    4.28
   0  -2  15   96.80    3.78
  -1   2 -15   29.74    1.34
   1  -2  15   29.64    1.75
   1  -2  15   30.08    1.38
   2  -2  15   65.35    2.68
   2  -2  15   63.81    3.08
   3  -2  15   13.54    0.88
   4  -2  15   39.84    1.87
   4  -2  15   38.67    2.28
   5  -2  15   19.94    1.24
   5  -2  15   22.92    1.69
   6  -2  15    1.34    0.45
   6  -2  15    2.58    0.82
   7  -2  15    0.99    0.49
   7  -2  15    1.90    0.82
  10   1 -15   11.56    1.18
   9   1 -15    9.41    0.96
   8   1 -15   11.43    0.97
   7   1 -15   12.16    1.02
   6   1 -15   29.00    1.58
   5   1 -15    0.17    0.37
   4   1 -15   -0.25    0.29
  -4  -1  15    0.00    0.37
   3   1 -15    0.19    0.28
  -3  -1  15    0.44    0.41
   2   1 -15    0.20    0.30
  -2  -1  15   -0.06    0.38
   1   1 -15   68.50    2.73
  -1  -1  15   66.58    3.12
  -1  -1  15   65.11    2.58
   0   1 -15    6.51    0.53
   0  -1  15    6.15    0.82
   0  -1  15    6.36    0.46
  -1   1 -15    0.82    0.26
   1  -1  15    1.49    0.51
   1  -1  15    0.78    0.25
   2  -1  15    0.61    0.27
   2  -1  15    1.02    0.53
   3  -1  15    6.20    0.61
   3  -1  15    6.44    0.93
   4  -1  15    0.64    0.34
   4  -1  15    0.17    0.57
   5  -1  15    0.39    0.39
   5  -1  15    1.34    0.40
   6  -1  15    2.34    0.54
   6  -1  15    1.42    0.74
   7  -1  15    0.66    0.76
   7  -1  15    1.49    0.52
  10   0 -15    0.62    0.49
   9   0 -15    1.88    0.57
   8   0 -15    1.01    0.43
   7   0 -15    0.00    0.34
   6   0 -15    0.59    0.41
   5   0 -15    0.40    0.34
   4   0 -15    3.04    0.50
  -4   0  15    2.02    0.56
   3   0 -15    6.37    0.66
  -3   0  15    6.66    0.89
   2   0 -15   38.44    1.72
  -2   0  15   36.61    2.04
   1   0 -15   45.20    1.91
  -1   0  15   43.32    2.29
  -1   0  15   43.03    1.73
   0   0 -15   25.77    1.19
   0   0  15   23.97    1.10
   0   0  15   24.59    1.56
  -1   0 -15   36.77    1.57
   1   0  15   36.77    1.59
   1   0  15   37.15    2.07
   2   0  15   32.57    1.96
   2   0  15   32.63    1.49
   3   0  15   44.02    1.99
   3   0  15   46.40    2.47
   4   0  15   33.28    1.64
   4   0  15   33.08    2.06
   5   0  15   15.24    1.43
   5   0  15   13.24    0.98
   6   0  15    8.37    0.86
   6   0  15    9.72    1.31
   7   0  15    5.65    0.82
  10  -1 -15   11.18    1.14
   9  -1 -15    7.25    0.88
   8  -1 -15    8.20    0.89
   7  -1 -15   30.27    1.65
   6  -1 -15    6.46    0.72
   5  -1 -15   19.04    1.17
  -5   1  15   22.09    1.48
   4  -1 -15    6.91    0.69
  -4   1  15    8.30    0.99
   3  -1 -15   22.95    1.24
  -3   1  15   22.25    1.51
   2  -1 -15    1.06    0.33
  -2   1  15    0.49    0.45
   1  -1 -15    0.95    0.30
  -1   1  15    1.64    0.21
  -1   1  15    0.92    0.45
   0  -1 -15    7.78    0.59
   0   1  15    7.90    0.47
   0   1  15    7.01    0.88
  -1  -1 -15    0.77    0.25
   1   1  15    1.13    0.55
   1   1  15    0.89    0.23
   2   1  15    3.24    0.71
   2   1  15    3.33    0.42
   3   1  15    4.81    0.53
   3   1  15    4.98    0.86
   4   1  15   20.23    1.57
   4   1  15   20.82    1.18
   5   1  15    0.19    0.36
   5   1  15    1.25    0.65
   6   1  15   -0.16    0.64
   6   1  15   -0.41    0.37
   7   1  15    0.35    0.45
   7   1  15    0.41    0.68
  10  -2 -15    8.38    0.97
   9  -2 -15    2.95    0.60
   8  -2 -15    4.27    0.71
   7  -2 -15   -0.13    0.37
   6  -2 -15    0.17    0.40
   5  -2 -15    0.28    0.37
  -5   2  15   -0.27    0.44
   4  -2 -15    0.04    0.33
  -4   2  15   -0.11    0.35
   3  -2 -15   30.14    1.48
  -3   2  15   26.98    1.69
   2  -2 -15   34.66    1.59
  -2   2  15   30.74    1.85
   1  -2 -15   27.77    1.35
  -1   2  15   28.32    1.72
   0  -2 -15   19.97    0.97
   0   2  15   16.64    0.81
   0   2  15   16.19    1.29
  -1  -2 -15   38.13    1.63
   1   2  15   36.55    1.59
   1   2  15   38.97    2.12
   2   2  15   35.01    2.09
   2   2  15   35.61    1.59
   3   2  15   48.04    2.10
   3   2  15   47.51    2.63
   4   2  15   43.07    2.47
   4   2  15   43.34    2.00
   5   2  15    4.61    0.91
   5   2  15    5.05    0.65
   6   2  15    4.09    1.03
   6   2  15    4.42    0.69
   7   2  15    4.67    0.74
   7   2  15    4.19    1.04
  10  -3 -15    5.25    0.83
   9  -3 -15    7.37    0.92
   8  -3 -15   16.83    1.19
   7  -3 -15   26.39    1.54
   6  -3 -15    7.71    0.81
   5  -3 -15    1.83    0.48
  -5   3  15    0.66    0.47
   4  -3 -15   95.42    3.93
  -4   3  15   95.48    4.21
   3  -3 -15   -0.06    0.30
  -3   3  15   -0.08    0.42
   2  -3 -15    5.56    0.60
  -2   3  15    5.05    0.79
   1  -3 -15    0.41    0.28
  -1   3  15    0.45    0.39
   0  -3 -15    1.10    0.31
   0   3  15    0.41    0.20
   0   3  15    1.46    0.56
  -1  -3 -15    0.19    0.24
   1   3  15    0.60    0.51
   1   3  15    0.58    0.22
   2   3  15    6.28    0.56
   2   3  15    5.63    0.95
   3   3  15   12.05    1.33
   3   3  15    9.92    0.76
   4   3  15    0.79    0.60
   4   3  15    0.03    0.34
   5   3  15    3.05    0.87
   5   3  15    3.64    0.59
   6   3  15    0.90    0.74
   6   3  15    0.39    0.43
   7   3  15   -0.28    0.73
   7   3  15    1.02    0.52
  10  -4 -15    2.35    0.60
   9  -4 -15    3.55    0.68
   8  -4 -15    6.00    0.81
   7  -4 -15   -0.11    0.37
   6  -4 -15    0.43    0.41
   5  -4 -15   10.07    0.89
  -5   4  15   14.68    1.19
   4  -4 -15   11.19    0.94
  -4   4  15   14.58    1.15
   3  -4 -15    0.85    0.36
  -3   4  15    0.46    0.43
   2  -4 -15    0.49    0.32
  -2   4  15    1.11    0.51
   1  -4 -15    6.41    0.63
  -1   4  15    6.52    0.89
   0  -4 -15   26.34    1.33
   0   4  15   27.72    1.70
  -1  -4 -15   43.73    2.03
   1   4  15   40.85    2.34
   1   4  15   41.18    1.75
   2   4  15   50.87    2.11
   2   4  15   48.56    2.66
   3   4  15   61.63    2.57
   3   4  15   60.25    3.12
   4   4  15   31.57    1.57
   4   4  15   32.13    2.08
   5   4  15   14.58    1.54
   5   4  15   13.05    0.98
   6   4  15    9.49    1.38
   6   4  15   11.90    1.02
   7   4  15    8.09    0.93
   7   4  15    6.83    1.21
  10  -5 -15    5.89    0.89
   9  -5 -15   16.56    1.31
   8  -5 -15   17.52    1.31
   7  -5 -15   16.88    1.24
   6  -5 -15    3.46    0.60
   5  -5 -15   19.01    1.23
  -5   5  15   20.05    1.39
   4  -5 -15    6.61    0.75
  -4   5  15    9.01    1.02
   3  -5 -15   38.52    1.91
  -3   5  15   39.80    2.15
   2  -5 -15    2.91    0.52
  -2   5  15    3.90    0.75
   1  -5 -15    5.10    0.59
  -1   5  15    5.47    0.85
   0  -5 -15    1.87    0.39
   0   5  15    2.07    0.58
   1   5  15    0.43    0.47
   1   5  15   -0.04    0.23
   2   5  15    8.70    0.64
   2   5  15    8.90    1.15
   3   5  15    0.95    0.34
   3   5  15    2.45    0.71
   4   5  15   -0.27    0.58
   4   5  15    0.03    0.32
   5   5  15    0.48    0.37
   5   5  15    1.35    0.71
   6   5  15    2.80    0.96
   6   5  15    2.67    0.58
   7   5  15    1.28    0.56
  10  -6 -15    1.25    0.58
   9  -6 -15    3.51    0.76
   8  -6 -15    4.92    0.77
   7  -6 -15    0.24    0.40
   6  -6 -15   12.10    1.06
   5  -6 -15    7.78    0.85
  -5   6  15    7.68    0.96
   4  -6 -15    0.45    0.42
  -4   6  15    0.63    0.45
   3  -6 -15    5.20    0.66
  -3   6  15    3.98    0.71
   2  -6 -15    9.55    0.83
  -2   6  15    9.68    1.10
   1  -6 -15    7.09    0.72
  -1   6  15    6.11    0.87
   0  -6 -15   12.75    0.88
   0   6  15   12.25    1.13
   1   6  15   15.60    1.33
   2   6  15   49.46    2.04
   2   6  15   45.81    2.61
   3   6  15   24.73    1.81
   3   6  15   22.94    1.21
   4   6  15   12.88    1.43
   4   6  15   11.96    0.88
   5   6  15   22.30    1.32
   5   6  15   24.06    1.85
   6   6  15   11.44    0.98
   6   6  15   11.37    1.51
   9  -7 -15   13.23    1.29
   8  -7 -15   18.68    1.37
   7  -7 -15   11.97    1.07
   6  -7 -15   16.91    1.28
   5  -7 -15    6.80    0.85
  -5   7  15    6.58    0.92
   4  -7 -15   19.02    1.27
  -4   7  15   18.81    1.38
   3  -7 -15   64.26    2.82
  -3   7  15   59.66    3.00
   2  -7 -15   19.95    1.24
  -2   7  15   18.73    1.43
   1  -7 -15    3.05    0.54
  -1   7  15    3.00    0.67
   0  -7 -15    2.02    0.44
   0   7  15    1.74    0.60
   1   7  15   13.74    1.45
   2   7  15    0.55    0.62
   3   7  15    0.80    0.67
   3   7  15    0.74    0.33
   4   7  15    2.93    0.86
   4   7  15    3.27    0.51
   5   7  15    0.36    0.37
   5   7  15    0.80    0.74
   6   7  15    2.20    0.87
   6   7  15    3.25    0.60
   9  -8 -15    3.60    0.75
   8  -8 -15    0.05    0.48
   7  -8 -15    7.26    0.98
   6  -8 -15    6.28    0.90
  -6   8  15    6.60    0.93
   5  -8 -15    9.53    0.99
  -5   8  15    9.19    1.04
   4  -8 -15    8.68    0.96
  -4   8  15    7.11    0.94
   3  -8 -15   -0.17    0.39
  -3   8  15   -0.19    0.39
   2  -8 -15   15.97    1.12
  -2   8  15   14.54    1.25
   1  -8 -15    5.27    0.68
  -1   8  15    5.52    0.88
   0  -8 -15    0.78    0.37
   0   8  15    0.93    0.55
   1   8  15    9.00    1.18
   2   8  15    9.38    1.20
   3   8  15    4.84    0.95
   4   8  15   10.09    1.33
   4   8  15   13.48    0.92
   5   8  15   18.58    1.15
   5   8  15   15.48    1.59
   6   8  15    7.41    0.81
   9  -9 -15    2.39    0.74
   8  -9 -15    4.93    0.85
   7  -9 -15   21.53    1.57
   6  -9 -15   31.18    1.87
  -6   9  15   33.90    2.11
   5  -9 -15   21.85    1.46
  -5   9  15   22.43    1.52
   4  -9 -15    6.92    0.86
  -4   9  15    6.19    0.87
   3  -9 -15   28.29    1.65
  -3   9  15   27.05    1.74
   2  -9 -15   10.44    0.95
  -2   9  15   11.06    1.10
   1  -9 -15   22.13    1.33
  -1   9  15   21.38    1.56
   0  -9 -15   16.86    1.08
   0   9  15   15.16    1.35
   1   9  15    0.60    0.58
   2   9  15    0.48    0.64
   3   9  15    0.74    0.61
   4   9  15    0.33    0.63
   5   9  15    0.43    0.38
   5   9  15    1.54    0.76
   8 -10 -15    5.42    0.90
   7 -10 -15    0.56    0.53
   6 -10 -15    5.10    0.90
   5 -10 -15    8.11    1.02
  -5  10  15    7.10    1.08
   4 -10 -15   12.42    1.10
  -4  10  15   12.89    1.14
   3 -10 -15    1.20    0.53
  -3  10  15    1.78    0.59
   2 -10 -15    0.11    0.42
  -2  10  15   -0.49    0.39
   1 -10 -15    0.74    0.42
  -1  10  15    0.85    0.57
   0 -10 -15   -0.10    0.33
   0  10  15   -0.19    0.53
   1  10  15    8.61    1.21
   2  10  15    2.13    0.81
   3  10  15    4.92    0.98
   4  10  15   20.44    1.78
   5  10  15   14.20    1.70
   8 -11 -15    1.39    0.69
   7 -11 -15    5.44    0.94
   6 -11 -15   18.70    1.43
   5 -11 -15   19.16    1.43
   4 -11 -15   19.33    1.42
  -4  11  15   15.76    1.87
   3 -11 -15    5.08    0.82
  -3  11  15    5.42    0.87
   2 -11 -15    5.24    0.78
  -2  11  15    5.28    0.89
   1 -11 -15    8.91    0.93
  -1  11  15    8.15    1.09
   0 -11 -15    3.51    0.62
   0  11  15    4.51    0.93
   1  11  15   15.57    1.51
   2  11  15    0.73    0.68
   3  11  15    0.36    0.68
   4  11  15    1.44    0.86
   7 -12 -15    2.38    0.79
   6 -12 -15    2.63    0.74
   5 -12 -15    5.64    0.91
   4 -12 -15    1.33    0.57
   3 -12 -15    2.99    0.67
   2 -12 -15    2.42    0.62
  -2  12  15    3.14    0.73
   1 -12 -15    2.82    0.64
  -1  12  15    2.30    0.66
   0  12  15    0.85    0.56
   1  12  15    2.00    0.72
   2  12  15    0.73    0.65
   3  12  15    6.30    1.19
   6 -13 -15   11.95    1.35
   5 -13 -15    8.40    1.10
   4 -13 -15   11.41    1.21
   3 -13 -15   20.80    1.53
   2 -13 -15   11.86    1.15
   1 -13 -15    6.89    0.91
  -1  13  15    6.41    0.96
   0  13  15    1.93    0.62
   1  13  15    1.32    0.57
   2  13  15    5.51    1.05
   5 -14 -15    0.61    0.63
   4 -14 -15    5.72    0.98
   3 -14 -15    2.39    0.68
   2 -14 -15    8.00    1.03
   1 -14 -15    3.36    0.73
   0  14  15   -0.15    0.38
   1  14  15   -0.55    0.38
   4 -15 -15    5.25    0.97
   3 -15 -15    8.60    1.14
   2 -15 -15    9.99    1.15
   1 -15 -15   17.85    1.42
   3  15 -16    0.22    0.50
   2  15 -16    0.59    0.56
   1  15 -16    2.24    0.59
   0  15 -16    0.98    0.51
  -1  15 -16    0.10    0.25
   4  14 -16    4.20    0.81
   3  14 -16    7.40    0.95
   2  14 -16    5.10    0.74
   1  14 -16   10.29    1.01
   0  14 -16    9.54    0.93
  -1  14 -16   12.05    1.00
   1 -14  16   11.84    1.18
  -2  14 -16    8.71    0.85
   2 -14  16    6.10    0.87
   5  13 -16    2.45    0.71
   4  13 -16    1.35    0.56
   3  13 -16   -0.64    0.39
   2  13 -16    0.67    0.49
   1  13 -16    0.38    0.43
   0  13 -16    1.86    0.53
  -1  13 -16    5.01    0.68
   1 -13  16    3.41    0.66
  -2  13 -16    0.96    0.44
   2 -13  16    0.34    0.48
   3 -13  16    2.72    0.69
   6  12 -16    0.56    0.52
   5  12 -16   -0.75    0.42
   4  12 -16    1.80    0.63
   3  12 -16    4.94    0.77
   2  12 -16    8.89    0.88
   1  12 -16   16.65    1.13
   0  12 -16   10.93    0.86
  -1  12 -16   14.33    1.03
   1 -12  16   14.10    1.13
  -2  12 -16   10.40    0.88
   2 -12  16    9.31    1.00
   3 -12  16    8.82    1.02
   4 -12  16   22.70    1.56
   7  11 -16    4.00    0.82
   6  11 -16   14.96    1.36
   5  11 -16    9.35    1.02
   4  11 -16    6.98    0.85
   3  11 -16    3.44    0.61
   2  11 -16    0.25    0.43
   1  11 -16   -0.16    0.36
   0  11 -16    0.66    0.39
   0 -11  16    0.69    0.42
  -1  11 -16    0.16    0.38
   1 -11  16    0.34    0.41
  -2  11 -16    1.62    0.46
   2 -11  16    1.35    0.50
   3 -11  16    4.40    0.73
   4 -11  16    4.44    0.75
   5 -11  16    3.56    0.72
   7  10 -16    1.71    0.71
   6  10 -16    0.03    0.48
   5  10 -16    9.47    0.96
   4  10 -16   -0.11    0.45
   3  10 -16    1.16    0.50
   2  10 -16    2.03    0.49
   1  10 -16   13.41    1.01
   0  10 -16   29.07    1.51
   0 -10  16   26.96    1.54
  -1  10 -16   19.96    1.19
   1 -10  16   21.08    1.31
  -2  10 -16   16.61    1.03
   2 -10  16   16.20    1.18
   3 -10  16   15.29    1.14
   4 -10  16    6.37    0.87
   5 -10  16   12.86    1.16
   8   9 -16   10.11    1.16
   7   9 -16   19.15    1.50
   6   9 -16   14.10    1.29
   5   9 -16   19.23    1.36
   4   9 -16    3.05    0.62
   3   9 -16   11.33    1.02
   2   9 -16   26.72    1.45
   1   9 -16    0.09    0.38
   0   9 -16    0.10    0.36
   0  -9  16    0.10    0.31
   0  -9  16   -0.01    0.43
  -1   9 -16    0.50    0.38
   1  -9  16    0.51    0.48
   1  -9  16    0.25    0.38
  -2   9 -16    4.01    0.55
   2  -9  16    4.50    0.66
   3  -9  16    1.49    0.46
   4  -9  16    3.09    0.62
   5  -9  16    0.92    0.45
   6  -9  16    0.62    0.52
   8   8 -16    1.89    0.68
   7   8 -16    5.49    0.81
   6   8 -16   -0.03    0.48
   5   8 -16    0.60    0.47
   4   8 -16    1.84    0.51
   3   8 -16    5.90    0.69
   2   8 -16    2.74    0.52
   1   8 -16    0.14    0.16
   0   8 -16   13.18    0.93
   0  -8  16   15.12    1.21
   0  -8  16   11.91    0.90
  -1   8 -16   23.48    1.27
   1  -8  16   24.87    1.37
   1  -8  16   23.04    1.55
  -2   8 -16   38.98    1.75
   2  -8  16   34.90    2.05
   2  -8  16   37.92    1.90
   3  -8  16   32.05    1.73
   4  -8  16    5.90    0.75
   5  -8  16    6.41    0.82
   6  -8  16   13.91    1.20
   9   7 -16    6.07    0.90
   8   7 -16   14.41    1.27
   7   7 -16   14.46    1.22
   6   7 -16   25.13    1.61
   5   7 -16   23.25    1.44
   4   7 -16   16.07    1.12
   3   7 -16    6.90    0.77
   2   7 -16    2.25    0.51
   1   7 -16   18.09    1.05
  -1  -7  16   17.90    1.36
  -1  -7  16   16.43    1.01
   0   7 -16    1.71    0.43
   0  -7  16    1.98    0.42
   0  -7  16    2.12    0.60
  -1   7 -16    1.86    0.41
   1  -7  16    1.85    0.41
   1  -7  16    2.26    0.61
  -2   7 -16   -0.23    0.29
   2  -7  16   -0.10    0.41
   2  -7  16    0.25    0.36
   3  -7  16    2.71    0.53
   3  -7  16    2.89    0.67
   4  -7  16    2.98    0.57
   5  -7  16    0.25    0.43
   6  -7  16    0.47    0.46
   9   6 -16   -0.05    0.51
   8   6 -16    4.31    0.79
   7   6 -16    2.12    0.63
   6   6 -16    0.08    0.44
   5   6 -16    1.55    0.56
   4   6 -16    4.82    0.72
   3   6 -16    5.26    0.69
   2   6 -16   -0.09    0.34
  -2  -6  16   -0.21    0.38
   1   6 -16    7.59    0.71
  -1  -6  16    6.78    0.62
  -1  -6  16    7.17    0.97
   0   6 -16    2.19    0.43
   0  -6  16    2.18    0.40
   0  -6  16    2.57    0.64
  -1   6 -16   45.79    2.00
   1  -6  16   43.40    2.37
   1  -6  16   46.35    2.09
   2  -6  16   26.86    1.44
   2  -6  16   27.06    1.71
   3  -6  16    8.68    1.06
   3  -6  16    8.89    0.81
   4  -6  16   15.26    1.28
   4  -6  16   17.39    1.15
   5  -6  16   13.27    1.03
   6  -6  16    9.28    0.95
   9   5 -16   12.47    1.21
   8   5 -16    6.43    0.88
   7   5 -16   12.37    1.04
   6   5 -16   22.30    1.41
   5   5 -16   41.07    2.06
   4   5 -16   86.16    3.65
   3   5 -16   13.82    0.99
   2   5 -16    0.57    0.35
  -2  -5  16    0.87    0.49
   1   5 -16   21.95    1.16
  -1  -5  16   15.15    1.27
  -1  -5  16   21.56    1.06
   0   5 -16    3.86    0.51
   0  -5  16    3.72    0.71
   0  -5  16    4.58    0.51
  -1   5 -16    3.79    0.49
   1  -5  16    4.05    0.52
   1  -5  16    3.72    0.72
   2  -5  16    0.10    0.45
   2  -5  16    0.04    0.28
   3  -5  16   11.16    0.87
   3  -5  16   11.52    1.12
   4  -5  16    0.01    0.45
   4  -5  16    0.98    0.41
   5  -5  16    3.47    0.78
   5  -5  16    4.02    0.65
   6  -5  16    3.79    0.67
   7  -5  16    0.22    0.45
   9   4 -16    1.93    0.57
   8   4 -16    0.04    0.41
   7   4 -16    3.96    0.71
   6   4 -16   -0.17    0.42
   5   4 -16    3.44    0.58
   4   4 -16    0.48    0.39
   3   4 -16    3.35    0.56
  -3  -4  16    2.88    0.69
   2   4 -16    0.01    0.14
  -2  -4  16   -0.12    0.37
   1   4 -16   -0.28    0.33
  -1  -4  16    1.01    0.26
  -1  -4  16    0.49    0.50
   0   4 -16    5.42    0.59
   0  -4  16    7.10    0.57
   0  -4  16    4.90    0.83
  -1   4 -16    2.92    0.45
   1  -4  16    1.89    0.57
   1  -4  16    2.76    0.42
   2  -4  16   11.97    0.83
   2  -4  16   11.35    1.12
   3  -4  16   28.45    1.49
   3  -4  16   28.01    1.75
   4  -4  16   16.15    1.08
   4  -4  16   16.94    1.38
   5  -4  16   23.59    1.39
   5  -4  16   23.43    1.68
   6  -4  16   12.90    1.06
   6  -4  16   13.10    1.44
   7  -4  16   16.76    1.27
  10   3 -16    2.52    0.66
   9   3 -16    7.00    0.93
   8   3 -16   17.34    1.23
   7   3 -16    7.64    0.83
   6   3 -16   14.98    1.11
   5   3 -16   57.79    2.61
   4   3 -16   60.22    2.65
   3   3 -16   30.79    1.53
  -3  -3  16   30.09    1.85
   2   3 -16   17.94    1.04
   1   3 -16   14.04    0.91
  -1  -3  16   14.88    1.25
  -1  -3  16   15.64    0.81
   0   3 -16    9.03    0.70
   0  -3  16    8.58    0.63
   0  -3  16   10.00    1.11
  -1   3 -16   20.47    1.04
   1  -3  16   19.48    1.39
   1  -3  16   19.29    1.05
   2  -3  16    0.80    0.46
   2  -3  16    2.34    0.40
   3  -3  16    0.02    0.26
   3  -3  16   -0.11    0.46
   4  -3  16   -0.61    0.45
   4  -3  16    0.25    0.33
   5  -3  16    8.91    0.87
   5  -3  16    9.02    1.15
   6  -3  16    1.30    0.44
   6  -3  16    2.14    0.82
   7  -3  16   -0.18    0.86
   7  -3  16    1.07    0.51
  10   2 -16    0.38    0.48
   9   2 -16   -0.08    0.44
   8   2 -16    3.14    0.65
   7   2 -16    0.86    0.46
   6   2 -16   15.43    1.12
   5   2 -16   22.33    1.30
   4   2 -16    2.69    0.49
  -4  -2  16    1.92    0.59
   3   2 -16    1.09    0.37
  -3  -2  16    2.07    0.58
   2   2 -16    0.96    0.34
  -2  -2  16    1.67    0.56
   1   2 -16   -0.01    0.28
  -1  -2  16    0.01    0.17
  -1  -2  16    0.16    0.41
   0   2 -16    0.92    0.32
   0  -2  16    1.00    0.49
   0  -2  16    1.14    0.26
  -1   2 -16   -0.19    0.23
   1  -2  16   -0.36    0.20
   1  -2  16    0.03    0.44
   2  -2  16    4.38    0.49
   2  -2  16    4.30    0.80
   3  -2  16   20.31    1.14
   4  -2  16   29.25    1.97
   4  -2  16   31.17    1.56
   5  -2  16   17.74    1.56
   5  -2  16   15.83    1.09
   6  -2  16   12.81    1.03
   6  -2  16   12.47    1.49
   7  -2  16    8.21    1.31
   7  -2  16    9.98    1.02
  10   1 -16    0.70    0.52
   9   1 -16    4.24    0.74
   8   1 -16    4.56    0.72
   7   1 -16   27.18    1.58
   6   1 -16   36.53    1.85
   5   1 -16   42.38    2.01
   4   1 -16   18.59    1.11
  -4  -1  16   18.94    1.40
   3   1 -16   38.99    1.84
  -3  -1  16   40.15    2.19
   2   1 -16   60.42    2.53
  -2  -1  16   58.40    2.91
   1   1 -16   18.77    1.06
  -1  -1  16   19.77    1.41
  -1  -1  16   20.64    0.92
   0   1 -16   37.54    1.68
   0  -1  16   38.80    1.63
   0  -1  16   38.78    2.13
  -1   1 -16    3.74    0.42
   1  -1  16    4.78    0.47
   1  -1  16    4.61    0.78
   2  -1  16    7.05    0.94
   2  -1  16    5.80    0.56
   3  -1  16   23.95    1.63
   3  -1  16   21.53    1.20
   4  -1  16    1.72    0.42
   4  -1  16    1.46    0.67
   5  -1  16    0.13    0.30
   5  -1  16    1.11    0.39
   6  -1  16    1.28    0.47
   6  -1  16    0.13    0.60
   7  -1  16    1.39    0.88
   7  -1  16    1.76    0.53
  10   0 -16    0.19    0.49
   9   0 -16    0.94    0.53
   8   0 -16    0.40    0.44
   7   0 -16    2.99    0.57
   6   0 -16    0.37    0.38
   5   0 -16    0.66    0.42
   4   0 -16    4.04    0.55
  -4   0  16    5.42    0.86
   3   0 -16   18.23    1.06
  -3   0  16   15.24    1.26
   2   0 -16    8.98    0.71
  -2   0  16    8.92    1.04
   1   0 -16    7.77    0.64
  -1   0  16    9.20    1.03
   0   0 -16    3.85    0.45
   0   0  16    4.12    0.37
   0   0  16    4.28    0.76
  -1   0 -16    4.58    0.45
   1   0  16    4.59    0.45
   1   0  16    5.15    0.84
   2   0  16    3.10    0.41
   2   0  16    2.01    0.62
   3   0  16    0.27    0.60
   3   0  16    1.37    0.34
   4   0  16    9.58    1.28
   4   0  16    8.25    0.73
   5   0  16   18.60    1.65
   5   0  16   16.57    1.14
   6   0  16    4.06    1.01
   6   0  16    4.62    0.67
   7   0  16    8.54    0.94
  10  -1 -16    0.12    0.46
   9  -1 -16    3.53    0.69
   8  -1 -16    4.22    0.72
   7  -1 -16   14.98    1.13
   6  -1 -16   79.07    3.39
   5  -1 -16    5.89    0.71
  -5   1  16    5.91    0.88
   4  -1 -16   23.57    1.30
  -4   1  16   22.08    1.53
   3  -1 -16   66.78    2.77
  -3   1  16   62.83    3.11
   2  -1 -16   23.18    1.17
  -2   1  16   18.30    1.39
   1  -1 -16  108.64    4.23
  -1   1  16  107.22    4.68
   0  -1 -16   15.44    0.89
   0   1  16   15.71    0.79
   0   1  16   17.13    1.33
  -1  -1 -16    5.29    0.73
   1   1  16    5.94    0.48
   1   1  16    5.37    0.87
   2   1  16    8.85    0.64
   2   1  16    9.14    1.11
   3   1  16    0.01    0.27
   3   1  16    1.07    0.63
   4   1  16    2.41    0.46
   4   1  16    2.48    0.77
   5   1  16   -0.15    0.60
   5   1  16    0.04    0.34
   6   1  16    0.84    0.71
   6   1  16    1.23    0.48
   7   1  16    0.31    0.47
   7   1  16    0.41    0.75
  10  -2 -16    2.29    0.68
   9  -2 -16    3.24    0.67
   8  -2 -16    0.06    0.43
   7  -2 -16    1.23    0.45
   6  -2 -16    0.27    0.38
   5  -2 -16    2.11    0.49
  -5   2  16    3.03    0.73
   4  -2 -16    0.81    0.41
  -4   2  16    0.33    0.46
   3  -2 -16    1.57    0.43
  -3   2  16    0.96    0.55
   2  -2 -16    9.87    0.76
  -2   2  16    9.02    1.09
   1  -2 -16   14.15    0.89
  -1   2  16   13.74    1.16
   0  -2 -16    1.57    0.34
   0   2  16    1.51    0.55
   1   2  16    0.63    0.51
   1   2  16   -0.16    0.20
   2   2  16    5.74    0.54
   2   2  16    5.31    0.91
   3   2  16    4.54    0.54
   3   2  16    4.31    0.88
   4   2  16    9.13    1.23
   4   2  16    8.38    0.78
   5   2  16   -0.12    0.60
   5   2  16    0.02    0.36
   6   2  16    8.14    1.31
   6   2  16    7.10    0.83
   7   2  16    6.33    0.85
   7   2  16    7.97    1.36
  10  -3 -16    0.21    0.43
   9  -3 -16    0.45    0.49
   8  -3 -16    1.49    0.52
   7  -3 -16    5.33    0.74
   6  -3 -16    5.17    0.74
   5  -3 -16   25.24    1.45
  -5   3  16   26.35    1.69
   4  -3 -16   38.78    1.90
  -4   3  16   39.38    2.21
   3  -3 -16   13.24    0.95
  -3   3  16   18.99    1.37
   2  -3 -16   93.20    3.83
  -2   3  16   96.89    4.27
   1  -3 -16   27.65    1.41
  -1   3  16   28.53    1.75
   0  -3 -16   26.67    1.34
   0   3  16   28.41    1.78
   1   3  16   53.83    2.83
   1   3  16   57.76    2.56
   2   3  16   39.07    2.32
   2   3  16   39.36    1.74
   3   3  16    2.10    0.73
   3   3  16    1.49    0.40
   4   3  16    0.30    0.36
   4   3  16    0.34    0.62
   5   3  16    0.57    0.76
   5   3  16    0.61    0.41
   6   3  16    0.17    0.43
   6   3  16    0.38    0.78
   7   3  16    0.07    0.51
   7   3  16   -0.38    0.82
  10  -4 -16    3.17    0.74
   9  -4 -16    1.26    0.57
   8  -4 -16    0.43    0.42
   7  -4 -16    0.19    0.44
   6  -4 -16    0.88    0.47
   5  -4 -16    4.00    0.62
  -5   4  16    3.96    0.74
   4  -4 -16   33.18    1.67
  -4   4  16   28.18    1.82
   3  -4 -16    0.85    0.32
  -3   4  16    0.48    0.46
   2  -4 -16    2.25    0.46
  -2   4  16    2.48    0.61
   1  -4 -16   -0.03    0.28
  -1   4  16   -0.09    0.38
   0  -4 -16    0.09    0.26
   0   4  16   -0.03    0.41
   1   4  16    3.24    0.79
   2   4  16    0.48    0.55
   2   4  16    1.39    0.33
   3   4  16    2.03    0.42
   3   4  16    1.91    0.71
   4   4  16    0.02    0.59
   4   4  16    0.88    0.39
   5   4  16    7.99    0.82
   5   4  16    8.73    1.33
   6   4  16    0.62    0.47
   6   4  16    1.36    0.87
  10  -5 -16    0.41    0.51
   9  -5 -16    0.08    0.42
   8  -5 -16    0.66    0.48
   7  -5 -16   -0.39    0.34
   6  -5 -16    0.23    0.39
   5  -5 -16   35.99    1.95
  -5   5  16   41.94    2.24
   4  -5 -16   14.90    1.07
  -4   5  16   15.83    1.27
  -3   5  16   56.73    2.83
   2  -5 -16   79.21    3.42
  -2   5  16   84.84    3.78
   1  -5 -16    3.42    0.51
  -1   5  16    4.22    0.76
   0  -5 -16   13.24    0.91
   0   5  16   15.93    1.33
   1   5  16   46.70    2.58
   2   5  16   19.14    1.55
   3   5  16   37.75    1.73
   3   5  16   35.48    2.29
   4   5  16    4.69    1.00
   4   5  16    6.57    0.70
   5   5  16    1.35    0.75
   5   5  16    1.67    0.48
   6   5  16    1.87    0.56
   6   5  16    1.24    0.77
   9  -6 -16    4.13    0.78
   8  -6 -16    2.24    0.64
   7  -6 -16    4.24    0.75
   6  -6 -16    1.22    0.49
  -6   6  16    0.49    0.52
   5  -6 -16    0.78    0.47
  -5   6  16    0.44    0.49
   4  -6 -16   -0.02    0.41
  -4   6  16    0.76    0.52
  -3   6  16   24.62    1.65
   2  -6 -16    5.69    0.68
  -2   6  16    4.40    0.81
   1  -6 -16   18.60    1.18
  -1   6  16   21.09    1.52
   0  -6 -16   13.65    0.93
   0   6  16   12.99    1.26
   1   6  16    4.43    0.86
   2   6  16    1.47    0.64
   3   6  16   -0.84    0.58
   4   6  16   -0.38    0.31
   4   6  16    0.35    0.64
   5   6  16    0.14    0.69
   5   6  16    0.91    0.41
   6   6  16    7.83    1.29
   6   6  16    6.52    0.82
   9  -7 -16    0.77    0.57
   8  -7 -16    0.61    0.53
   7  -7 -16    0.13    0.48
   6  -7 -16    1.72    0.55
  -6   7  16    1.94    0.65
   5  -7 -16   16.51    1.21
  -5   7  16   16.99    1.36
   4  -7 -16   19.64    1.32
  -4   7  16   18.55    1.44
  -3   7  16   32.26    1.96
   2  -7 -16   22.56    1.41
  -2   7  16   27.55    1.73
   1  -7 -16    0.92    0.41
  -1   7  16    0.61    0.56
   0  -7 -16   58.04    2.64
   0   7  16   63.97    3.12
   1   7  16   24.68    1.83
   2   7  16   22.02    1.72
   3   7  16   14.50    1.45
   4   7  16    5.59    1.06
   5   7  16    5.61    1.11
   5   7  16    5.79    0.69
   9  -8 -16    6.82    0.96
   8  -8 -16   12.05    1.30
   7  -8 -16    4.41    0.81
   6  -8 -16    1.37    0.53
  -6   8  16    0.02    0.48
   5  -8 -16    2.42    0.61
  -5   8  16    2.20    0.64
   4  -8 -16    0.40    0.42
  -4   8  16    0.54    0.47
   3  -8 -16    0.27    0.28
  -3   8  16    0.81    0.53
   2  -8 -16    2.00    0.54
  -2   8  16    1.65    0.61
   1  -8 -16    2.23    0.53
  -1   8  16    2.92    0.68
   0  -8 -16   11.64    0.92
   0   8  16   12.07    1.35
   1   8  16    3.28    0.88
   2   8  16    2.88    0.80
   3   8  16    0.36    0.67
   4   8  16   -0.52    0.65
   5   8  16    0.45    0.70
   8  -9 -16    0.33    0.53
   7  -9 -16    0.18    0.48
   6  -9 -16    0.67    0.54
  -6   9  16    1.16    0.58
   5  -9 -16    0.09    0.43
  -5   9  16    0.15    0.48
   4  -9 -16    6.64    0.87
  -4   9  16    5.22    0.87
   3  -9 -16   14.59    1.11
   2  -9 -16    8.19    0.91
  -2   9  16    7.71    1.04
   1  -9 -16   48.61    2.31
  -1   9  16   46.40    2.55
   0  -9 -16   12.46    1.04
   0   9  16   11.96    1.35
   1   9  16   34.63    2.24
   2   9  16   19.47    1.72
   3   9  16    6.53    1.19
   4   9  16   13.81    1.69
   5   9  16    4.04    1.02
   8 -10 -16    4.08    0.85
   7 -10 -16    6.06    0.94
   6 -10 -16    3.29    0.75
   5 -10 -16    0.46    0.50
  -5  10  16    0.10    0.47
   4 -10 -16    0.06    0.49
  -4  10  16    0.60    0.48
   3 -10 -16    0.63    0.42
  -3  10  16    1.04    0.55
   2 -10 -16   -0.42    0.40
  -2  10  16    0.27    0.49
   1 -10 -16    2.68    0.59
  -1  10  16    2.97    0.77
   0  10  16    2.66    0.74
   1  10  16   -0.04    0.62
   2  10  16    1.51    0.79
   3  10  16    1.79    0.89
   4  10  16    1.01    0.80
   7 -11 -16   -0.28    0.56
   6 -11 -16   -0.74    0.42
   5 -11 -16    0.22    0.52
   4 -11 -16    0.30    0.52
  -4  11  16    0.10    0.52
   3 -11 -16    3.20    0.69
  -3  11  16    3.95    0.80
   2 -11 -16   10.70    1.08
  -2  11  16    9.67    1.18
   1 -11 -16    8.11    0.92
  -1  11  16    8.87    1.17
   0  11  16   33.40    2.15
   1  11  16   13.76    1.54
   2  11  16    3.38    0.93
   3  11  16    7.07    1.22
   7 -12 -16    5.49    1.03
   6 -12 -16    4.54    0.88
   5 -12 -16    4.52    0.89
   4 -12 -16    1.11    0.57
   3 -12 -16    1.02    0.57
   2 -12 -16    0.84    0.50
  -2  12  16    1.72    0.60
   1 -12 -16    2.20    0.60
  -1  12  16    2.85    0.73
   0  12  16    3.89    0.82
   1  12  16    2.18    0.74
   2  12  16    5.99    1.19
   3  12  16    1.58    0.90
   6 -13 -16    0.62    0.67
   5 -13 -16   -0.21    0.56
   4 -13 -16   -0.13    0.51
   3 -13 -16    2.74    0.72
   2 -13 -16    5.01    0.83
   1 -13 -16    6.34    0.90
  -1  13  16    9.00    1.14
   0  13  16    5.65    0.95
   1  13  16   14.87    1.45
   2  13  16    7.85    1.26
   4 -14 -16    2.51    0.74
   3 -14 -16    1.89    0.67
   2 -14 -16    0.68    0.55
   1 -14 -16    1.03    0.58
   0  14  16    2.17    0.67
   3  14 -17   -0.13    0.53
   2  14 -17    0.96    0.60
   1  14 -17    1.59    0.56
   0  14 -17    0.22    0.45
  -1  14 -17    0.02    0.44
   1 -14  17    0.17    0.48
   5  13 -17   19.41    1.45
   4  13 -17    9.93    1.08
   3  13 -17   13.94    1.16
   2  13 -17   14.60    1.15
   1  13 -17   13.66    1.14
   0  13 -17    5.17    0.67
  -1  13 -17    6.02    0.74
   1 -13  17    6.01    0.84
  -2  13 -17    0.68    0.44
   2 -13  17    1.84    0.59
   3 -13  17   -0.55    0.46
   6  12 -17    2.53    0.75
   5  12 -17    2.46    0.70
   4  12 -17   -0.03    0.43
   3  12 -17    2.00    0.63
   2  12 -17    1.81    0.59
   1  12 -17    2.10    0.53
   0  12 -17    0.92    0.43
  -1  12 -17    1.15    0.47
   1 -12  17    0.15    0.40
  -2  12 -17    0.59    0.42
   2 -12  17   -0.09    0.40
   3 -12  17    8.89    1.05
   6  11 -17    9.12    1.11
   5  11 -17    7.63    0.93
   4  11 -17   22.22    1.44
   3  11 -17   10.46    1.03
   2  11 -17   15.00    1.16
   1  11 -17   22.91    1.40
   0  11 -17   21.61    1.33
   0 -11  17   22.03    1.38
  -1  11 -17   20.58    1.29
   1 -11  17   23.84    1.44
  -2  11 -17    2.90    0.68
   2 -11  17    3.30    0.63
   3 -11  17    2.13    0.55
   4 -11  17    1.69    0.59
   7  10 -17   -0.88    0.57
   6  10 -17    1.19    0.65
   5  10 -17    0.71    0.58
   4  10 -17   -0.14    0.45
   3  10 -17    5.87    0.80
   2  10 -17    2.42    0.58
   1  10 -17    0.15    0.43
   0  10 -17    2.52    0.53
   0 -10  17    1.53    0.46
  -1  10 -17    0.28    0.38
   1 -10  17    0.93    0.45
   2 -10  17   -0.03    0.39
   3 -10  17    0.95    0.50
   4 -10  17    3.82    0.71
   5 -10  17    2.04    0.62
   8   9 -17   -0.19    0.58
   7   9 -17    3.65    0.81
   6   9 -17    5.26    0.88
   5   9 -17   10.29    1.05
   4   9 -17   23.08    1.44
   3   9 -17   26.97    1.57
   2   9 -17   21.33    1.33
   0   9 -17   40.59    1.97
   0  -9  17   42.29    2.31
   0  -9  17   41.69    2.01
  -1   9 -17   10.68    0.85
   1  -9  17    9.75    0.95
   1  -9  17   11.03    1.20
   2  -9  17   12.16    1.00
   3  -9  17   10.97    1.05
   4  -9  17    5.07    0.74
   5  -9  17   -0.17    0.37
   8   8 -17    2.75    0.72
   7   8 -17    0.57    0.58
   6   8 -17   -0.07    0.55
   5   8 -17   -0.17    0.48
   4   8 -17   -0.33    0.47
   3   8 -17    1.32    0.51
   2   8 -17    4.09    0.64
   1   8 -17    2.14    0.50
  -1  -8  17    1.86    0.65
   0   8 -17    0.34    0.37
   0  -8  17    0.39    0.34
   0  -8  17   -0.09    0.46
  -1   8 -17    0.01    0.31
   1  -8  17    0.28    0.45
   1  -8  17   -0.21    0.30
   2  -8  17    2.18    0.66
   2  -8  17    1.07    0.43
   3  -8  17    5.75    0.75
   4  -8  17    0.60    0.42
   5  -8  17    2.64    0.59
   8   7 -17    0.42    0.59
   7   7 -17    0.35    0.54
   6   7 -17    8.26    0.94
   5   7 -17   10.25    1.02
   4   7 -17    5.15    0.78
   3   7 -17   37.78    1.93
   2   7 -17   15.26    1.04
   1   7 -17   54.62    2.43
  -1  -7  17   55.71    2.82
  -1  -7  17   53.33    2.37
   0   7 -17   28.02    1.47
   0  -7  17   30.85    1.49
   0  -7  17   25.62    1.76
  -1   7 -17    7.01    0.68
   1  -7  17    5.68    0.90
   1  -7  17    7.27    0.74
   2  -7  17   16.70    1.14
   2  -7  17   18.68    1.41
   3  -7  17   22.75    1.37
   3  -7  17   22.77    1.61
   4  -7  17    4.35    0.67
   5  -7  17    6.18    0.79
   6  -7  17    0.30    0.48
   9   6 -17    3.94    0.76
   8   6 -17    5.05    0.78
   7   6 -17    7.04    0.93
   6   6 -17    5.70    0.79
   5   6 -17    1.83    0.60
   4   6 -17    4.42    0.70
   3   6 -17    0.60    0.46
   2   6 -17    8.43    0.83
  -2  -6  17    8.54    1.11
   1   6 -17    7.18    0.70
  -1  -6  17    5.62    0.90
  -1  -6  17    7.30    0.65
   0   6 -17    0.41    0.36
   0  -6  17    0.36    0.45
   0  -6  17    1.11    0.35
  -1   6 -17    3.53    0.51
   1  -6  17    2.72    0.48
   1  -6  17    2.78    0.73
   2  -6  17    7.51    0.76
   2  -6  17    9.18    1.08
   3  -6  17    0.00    0.32
   3  -6  17    0.40    0.46
   4  -6  17    0.13    0.50
   4  -6  17    0.42    0.37
   5  -6  17    0.12    0.40
   6  -6  17    3.52    0.69
   9   5 -17   -0.74    0.47
   8   5 -17    0.85    0.49
   7   5 -17    0.76    0.49
   6   5 -17   11.72    1.01
   5   5 -17   18.68    1.27
   4   5 -17   17.63    1.22
   3   5 -17    2.10    0.52
  -3  -5  17    2.20    0.66
  -2  -5  17   45.19    2.48
   1   5 -17   40.69    1.93
  -1  -5  17   42.15    1.82
  -1  -5  17   38.93    2.26
   0   5 -17   34.05    1.63
   0  -5  17   29.42    1.92
   0  -5  17   34.45    1.58
  -1   5 -17   27.97    1.42
   1  -5  17   29.15    1.46
   1  -5  17   28.62    1.77
   2  -5  17   68.47    2.94
   2  -5  17   69.61    3.31
   3  -5  17   13.29    1.23
   3  -5  17   13.11    0.95
   4  -5  17   15.24    1.34
   4  -5  17   16.90    1.13
   5  -5  17    5.52    0.98
   5  -5  17    4.33    0.65
   9   4 -17   11.29    1.13
   8   4 -17    4.59    0.80
   7   4 -17    0.77    0.50
   6   4 -17   15.03    1.11
   5   4 -17    5.67    0.72
   4   4 -17    4.92    0.69
   3   4 -17    6.57    0.75
  -3  -4  17    6.18    0.94
   2   4 -17    5.57    0.66
  -2  -4  17    7.86    1.00
   1   4 -17    0.12    0.36
  -1  -4  17    0.58    0.53
  -1  -4  17    0.71    0.26
   0   4 -17   -0.30    0.32
   0  -4  17   -0.21    0.23
   0  -4  17   -0.05    0.40
  -1   4 -17    3.05    0.47
   1  -4  17    2.42    0.66
   1  -4  17    3.60    0.48
   2  -4  17    4.21    0.53
   2  -4  17    4.20    0.80
   3  -4  17    0.54    0.36
   3  -4  17    0.34    0.52
   4  -4  17    2.83    0.52
   4  -4  17    1.72    0.67
   5  -4  17   -0.19    0.51
   5  -4  17    0.30    0.39
   6  -4  17   -0.03    0.39
   9   3 -17    0.95    0.55
   8   3 -17    5.65    0.83
   7   3 -17    0.31    0.47
   6   3 -17    2.88    0.62
   5   3 -17   15.00    1.11
   4   3 -17    3.38    0.57
   3   3 -17   13.16    0.94
  -3  -3  17   10.36    1.18
   2   3 -17   36.28    1.73
  -2  -3  17   35.44    2.09
   1   3 -17   36.20    1.68
  -1  -3  17   35.44    1.56
  -1  -3  17   35.77    2.07
   0   3 -17   30.89    1.52
   0  -3  17   34.88    2.00
   0  -3  17   32.37    1.49
  -1   3 -17  106.72    4.22
   1  -3  17  112.59    4.77
   1  -3  17  107.48    4.27
   2  -3  17   10.83    0.80
   3  -3  17   30.91    1.53
   3  -3  17   28.25    1.88
   4  -3  17   12.00    1.33
   4  -3  17   12.50    0.93
   5  -3  17    6.28    1.06
   5  -3  17    4.83    0.66
   6  -3  17    6.88    1.17
   6  -3  17    7.20    0.84
   9   2 -17   19.66    1.38
   8   2 -17   14.81    1.21
   7   2 -17    6.03    0.78
   6   2 -17    0.91    0.48
   5   2 -17   14.43    1.02
   4   2 -17   15.08    1.03
  -4  -2  17   13.20    1.25
   3   2 -17    0.27    0.32
  -3  -2  17    0.09    0.43
   2   2 -17    2.60    0.48
  -2  -2  17    1.64    0.58
   1   2 -17    3.79    0.50
  -1  -2  17    4.10    0.77
   0   2 -17   13.05    0.86
   0  -2  17   15.65    0.83
   0  -2  17   14.41    1.28
  -1   2 -17   13.17    0.91
   1  -2  17   14.85    1.23
   1  -2  17   12.88    0.80
   2  -2  17    0.24    0.46
   2  -2  17    0.19    0.28
   3  -2  17   -0.04    0.29
   3  -2  17    0.06    0.38
   4  -2  17    6.08    0.67
   4  -2  17    3.15    0.76
   5  -2  17    0.75    0.41
   5  -2  17    0.71    0.71
   6  -2  17   -0.42    0.59
   6  -2  17    0.28    0.38
  10   1 -17    1.68    0.61
   9   1 -17    0.57    0.46
   8   1 -17   -0.49    0.42
   7   1 -17    8.69    0.90
   6   1 -17    1.91    0.53
   5   1 -17    1.25    0.42
   4   1 -17    0.61    0.37
  -4  -1  17    0.17    0.45
   3   1 -17   24.32    1.33
  -3  -1  17   24.54    1.66
   2   1 -17   12.79    0.86
  -2  -1  17   10.71    1.21
   1   1 -17    7.94    0.66
  -1  -1  17    6.69    0.94
   0   1 -17   52.41    2.29
   0  -1  17   56.89    2.25
   0  -1  17   55.57    2.79
   1  -1  17   12.91    0.78
   1  -1  17   12.78    1.23
   2  -1  17   57.03    2.94
   2  -1  17   57.75    2.43
   3  -1  17   34.22    2.10
   3  -1  17   34.74    1.66
   4  -1  17   16.79    1.48
   4  -1  17   16.53    1.05
   5  -1  17    6.13    0.70
   5  -1  17    2.97    0.79
   6  -1  17   12.85    1.06
   6  -1  17   11.64    1.51
  10   0 -17    7.04    0.95
   9   0 -17    5.16    0.80
   8   0 -17   24.72    1.55
   7   0 -17    6.38    0.78
   6   0 -17   27.07    1.53
   5   0 -17   31.34    1.63
  -5   0  17   29.77    1.93
   4   0 -17    7.43    0.74
  -4   0  17    7.00    1.00
   3   0 -17    1.48    0.39
  -3   0  17    2.32    0.63
   2   0 -17    7.64    0.70
  -2   0  17    7.80    1.04
   1   0 -17    1.31    0.37
  -1   0  17    1.87    0.58
   0   0 -17    0.08    0.27
   0   0  17   -0.12    0.48
   1   0  17    1.70    0.31
   1   0  17    2.46    0.71
   2   0  17    0.91    0.29
   2   0  17    0.35    0.49
   3   0  17    2.86    0.46
   3   0  17    2.70    0.80
   4   0  17    1.78    0.71
   4   0  17    1.43    0.40
   5   0  17    2.18    0.50
   5   0  17    2.99    0.88
   6   0  17    0.39    0.71
   6   0  17   -0.39    0.34
  10  -1 -17    2.94    0.71
   9  -1 -17    6.89    0.96
   8  -1 -17    0.05    0.39
   7  -1 -17   -0.31    0.35
   6  -1 -17    7.96    0.85
   5  -1 -17    5.60    0.71
  -5   1  17    6.71    1.01
   4  -1 -17    4.56    0.58
  -4   1  17    3.73    0.76
   3  -1 -17    4.43    0.53
  -3   1  17    8.86    1.04
   2  -1 -17    2.71    0.46
  -2   1  17    2.11    0.62
   1  -1 -17   51.02    2.22
  -1   1  17   52.18    2.70
   0  -1 -17   13.98    0.83
   0   1  17   11.53    1.15
   1   1  17   14.03    1.25
   2   1  17   15.78    1.43
   2   1  17   17.02    0.93
   3   1  17   36.81    2.27
   3   1  17   35.64    1.70
   4   1  17   23.13    1.32
   4   1  17   25.28    1.94
   5   1  17   20.85    1.89
   5   1  17   21.95    1.31
   6   1  17    9.41    0.93
   6   1  17    7.74    1.26
  10  -2 -17    2.85    0.71
   9  -2 -17    5.99    0.85
   8  -2 -17    8.18    0.95
   7  -2 -17   22.16    1.45
   6  -2 -17   19.52    1.28
   5  -2 -17   57.52    2.61
  -5   2  17   56.81    2.92
   4  -2 -17    1.09    0.43
  -4   2  17    1.40    0.56
  -3   2  17   27.74    1.81
   2  -2 -17    3.01    0.49
  -2   2  17    2.30    0.66
   1  -2 -17    0.84    0.33
  -1   2  17    0.98    0.53
   0  -2 -17    1.62    0.34
   0   2  17    0.94    0.53
   1   2  17   -0.16    0.47
   2   2  17    7.91    0.60
   2   2  17    6.55    1.03
   3   2  17    0.87    0.75
   3   2  17    1.13    0.36
   4   2  17    2.32    0.89
   4   2  17    2.71    0.50
   5   2  17    2.02    0.92
   5   2  17    2.88    0.55
   6   2  17    2.49    0.58
   6   2  17    2.42    1.00
  10  -3 -17    1.60    0.59
   9  -3 -17    1.95    0.64
   8  -3 -17    3.49    0.67
   7  -3 -17   -0.12    0.37
   6  -3 -17   12.10    1.00
   5  -3 -17    3.58    0.59
  -5   3  17    3.53    0.82
   4  -3 -17   13.40    0.97
  -4   3  17   12.48    1.24
   3  -3 -17    0.12    0.13
  -3   3  17   -0.05    0.43
   2  -3 -17    7.70    0.74
  -2   3  17    8.06    1.03
   1  -3 -17    2.60    0.45
  -1   3  17    3.54    0.76
   0  -3 -17   11.33    0.80
   0   3  17   11.95    1.26
   1   3  17   43.91    2.45
   2   3  17   21.92    1.69
   3   3  17   26.04    1.98
   3   3  17   26.16    1.35
   4   3  17   33.95    1.69
   4   3  17   31.94    2.29
   5   3  17    6.40    0.75
   5   3  17    6.84    1.23
   6   3  17    8.26    1.32
   6   3  17    8.61    0.93
   9  -4 -17    6.05    0.87
   8  -4 -17    6.99    0.88
   7  -4 -17   23.68    1.53
   6  -4 -17   29.72    1.69
   5  -4 -17    0.14    0.43
  -5   4  17    0.20    0.50
   4  -4 -17   52.26    2.46
  -4   4  17   53.65    2.78
   3  -4 -17    1.61    0.35
  -3   4  17    3.36    0.77
   2  -4 -17    0.08    0.34
  -2   4  17   -0.09    0.48
   1  -4 -17    4.43    0.57
  -1   4  17    4.41    0.80
   0  -4 -17    3.47    0.50
   0   4  17    4.87    0.88
   1   4  17   -0.20    0.44
   2   4  17   -0.30    0.50
   3   4  17   -0.39    0.57
   4   4  17    2.26    0.91
   4   4  17    1.83    0.47
   5   4  17    4.71    0.67
   5   4  17    3.36    1.08
   6   4  17   -0.20    0.81
   6   4  17   -0.26    0.43
   9  -5 -17    1.49    0.62
   8  -5 -17    1.18    0.52
   7  -5 -17    3.07    0.66
   6  -5 -17    6.00    0.80
  -6   5  17    7.87    1.09
   5  -5 -17    4.49    0.68
  -5   5  17    5.43    0.91
   4  -5 -17    2.61    0.58
  -4   5  17    2.88    0.72
  -3   5  17   17.42    1.42
   2  -5 -17    1.14    0.41
  -2   5  17    2.08    0.67
   1  -5 -17    2.02    0.46
  -1   5  17    3.58    0.78
   0  -5 -17   10.19    0.81
   0   5  17   10.70    1.19
   1   5  17   20.40    1.64
   2   5  17   22.04    1.73
   3   5  17   34.83    2.31
   4   5  17   13.33    1.55
   5   5  17    9.04    1.37
   5   5  17   10.09    0.94
   6   5  17   12.33    1.05
   6   5  17   10.44    1.48
   9  -6 -17   11.85    1.26
   8  -6 -17    7.19    0.94
   7  -6 -17   18.21    1.38
   6  -6 -17    7.29    0.89
  -6   6  17    8.19    1.09
   5  -6 -17   17.92    1.30
  -5   6  17   18.57    1.42
   4  -6 -17   11.71    1.04
  -4   6  17   12.09    1.28
   3  -6 -17   19.66    1.23
   2  -6 -17   15.78    1.11
  -2   6  17   17.24    1.36
   1  -6 -17   12.11    0.95
  -1   6  17   12.00    1.17
   0  -6 -17    0.60    0.39
   0   6  17   -0.36    0.50
   1   6  17    0.21    0.54
   2   6  17    0.07    0.61
   3   6  17   -0.23    0.57
   4   6  17    0.10    0.76
   5   6  17    1.76    0.93
   9  -7 -17    0.64    0.52
   8  -7 -17    5.41    0.88
   7  -7 -17    4.49    0.76
   6  -7 -17    2.59    0.66
  -6   7  17    2.92    0.78
   5  -7 -17   -0.52    0.41
  -5   7  17   -0.13    0.50
   4  -7 -17    3.87    0.65
  -4   7  17    2.81    0.73
   3  -7 -17    1.14    0.41
  -3   7  17    3.49    0.78
   2  -7 -17   13.02    1.05
  -2   7  17   14.89    1.28
   1  -7 -17    0.14    0.37
  -1   7  17    0.12    0.51
   0   7  17    3.08    0.74
   1   7  17    3.39    0.85
   2   7  17   10.66    1.38
   3   7  17    4.27    1.01
   4   7  17    6.66    1.19
   5   7  17    8.74    1.35
   8  -8 -17    6.46    0.96
   7  -8 -17    1.23    0.57
   6  -8 -17   17.01    1.40
  -6   8  17   19.01    1.49
   5  -8 -17   26.38    1.67
  -5   8  17   27.63    1.81
   4  -8 -17   23.51    1.55
  -4   8  17   23.75    1.64
   3  -8 -17    9.06    0.92
   2  -8 -17   26.07    1.59
  -2   8  17   30.71    1.92
   1  -8 -17    9.96    0.90
  -1   8  17   10.36    1.20
   0   8  17    2.94    0.81
   1   8  17   -0.11    0.53
   2   8  17    0.24    0.68
   3   8  17   -0.29    0.61
   4   8  17    0.19    0.70
   5   8  17    1.06    0.86
   8  -9 -17    0.55    0.62
   7  -9 -17    4.38    0.88
   6  -9 -17    4.09    0.81
  -6   9  17    6.68    1.00
   5  -9 -17    3.35    0.73
  -5   9  17    1.84    0.66
   4  -9 -17    0.44    0.53
  -4   9  17    0.85    0.53
   3  -9 -17    0.40    0.37
  -3   9  17    0.05    0.51
   2  -9 -17    0.14    0.40
  -2   9  17    0.11    0.52
   1  -9 -17    5.92    0.77
  -1   9  17    4.90    0.87
   0   9  17    0.02    0.49
   1   9  17    0.88    0.72
   2   9  17    3.84    0.94
   3   9  17    4.37    1.06
   4   9  17    7.79    1.29
   8 -10 -17    3.05    0.84
   7 -10 -17    2.21    0.75
   6 -10 -17    4.14    0.84
   5 -10 -17   11.12    1.22
  -5  10  17    9.19    1.14
   4 -10 -17   22.76    1.62
  -4  10  17   24.62    1.70
  -3  10  17   23.82    1.72
   2 -10 -17    4.17    0.73
  -2  10  17    4.36    0.85
   1 -10 -17    8.00    0.91
  -1  10  17    8.26    1.15
   0  10  17   12.13    1.41
   1  10  17    4.10    0.99
   2  10  17    7.69    1.23
   3  10  17    0.33    0.78
   7 -11 -17    0.74    0.60
   6 -11 -17    5.32    0.96
   5 -11 -17    8.38    1.14
   4 -11 -17    7.87    1.02
  -4  11  17    6.88    1.00
   3 -11 -17    0.62    0.34
  -3  11  17    1.46    0.63
   2 -11 -17    1.46    0.57
  -2  11  17    1.54    0.66
   1 -11 -17    0.57    0.46
  -1  11  17    0.57    0.57
   0  11  17    0.89    0.65
   1  11  17   -0.07    0.60
   2  11  17    1.77    0.80
   3  11  17    8.08    1.34
   6 -12 -17    6.13    1.03
   5 -12 -17    6.22    1.04
   4 -12 -17   17.59    1.48
  -3  12  17   14.62    2.05
   2 -12 -17    6.81    0.93
  -2  12  17    6.21    0.96
   1 -12 -17    6.93    0.89
  -1  12  17    9.02    1.16
   0  12  17    5.52    0.96
   1  12  17    8.57    1.22
   2  12  17    0.32    0.78
   5 -13 -17    2.19    0.81
   4 -13 -17    1.78    0.72
   3 -13 -17    0.54    0.31
   2 -13 -17   17.31    1.40
  -1  13  17    3.32    0.76
   0  13  17    0.27    0.48
   1  13  17    1.95    0.74
   3 -14 -17    0.66    0.39
   2 -14 -17    9.00    1.14
   2  14 -18    1.43    0.58
   1  14 -18    0.32    0.54
   0  14 -18    0.15    0.40
   4  13 -18   -0.32    0.59
   3  13 -18    5.60    0.83
   2  13 -18    9.11    1.03
   1  13 -18    3.34    0.70
   0  13 -18    2.74    0.56
  -1  13 -18   15.42    1.18
   1 -13  18   16.54    1.30
   2 -13  18    9.44    1.04
   5  12 -18    7.01    1.04
   4  12 -18    5.06    0.87
   3  12 -18    5.20    0.84
   2  12 -18    0.38    0.49
   1  12 -18    0.36    0.48
   0  12 -18    0.73    0.52
  -1  12 -18    0.47    0.46
   1 -12  18    0.59    0.45
   2 -12  18   -0.10    0.43
   3 -12  18    5.57    0.85
   6  11 -18   -0.31    0.61
   5  11 -18    2.20    0.72
   4  11 -18   -0.37    0.53
   3  11 -18    7.23    0.92
   2  11 -18    4.60    0.73
   1  11 -18    1.71    0.56
   0  11 -18    7.69    0.84
   0 -11  18    4.70    0.70
  -1  11 -18   13.01    1.01
   1 -11  18   12.15    1.06
   2 -11  18    9.83    1.03
   3 -11  18   11.94    1.18
   7  10 -18    9.68    1.18
   6  10 -18   19.38    1.58
   5  10 -18   15.12    1.37
   4  10 -18    2.36    0.61
   3  10 -18    6.24    0.83
   2  10 -18    9.52    0.96
   1  10 -18    0.16    0.21
   0  10 -18    0.41    0.43
   0 -10  18   -0.39    0.31
  -1  10 -18    0.23    0.40
   1 -10  18    0.61    0.41
   2 -10  18    0.05    0.37
   3 -10  18    0.48    0.42
   4 -10  18    2.47    0.66
   7   9 -18    0.88    0.66
   6   9 -18    5.10    0.90
   5   9 -18   -0.17    0.54
   4   9 -18    1.29    0.60
   3   9 -18    0.36    0.48
   2   9 -18    2.68    0.60
   1   9 -18    0.57    0.44
   0   9 -18   10.90    0.93
   0  -9  18   11.93    1.31
   0  -9  18   11.59    0.94
  -1   9 -18    2.38    0.51
   1  -9  18    2.32    0.53
   2  -9  18   10.23    0.98
   3  -9  18   15.49    1.19
   4  -9  18    3.98    0.69
   5  -9  18   21.05    1.47
   8   8 -18    6.04    0.95
   7   8 -18   18.18    1.43
   6   8 -18   15.84    1.38
   5   8 -18   16.42    1.37
   4   8 -18    4.84    0.75
   3   8 -18   10.62    1.03
   2   8 -18   33.71    1.79
   1   8 -18    1.95    0.53
  -1  -8  18    2.46    0.74
   0   8 -18    0.08    0.37
   0  -8  18   -0.16    0.47
   0  -8  18    0.21    0.32
  -1   8 -18    0.34    0.39
   1  -8  18    0.77    0.38
   1  -8  18   -0.14    0.45
   2  -8  18   -0.05    0.35
   3  -8  18    1.46    0.50
   4  -8  18    0.14    0.40
   5  -8  18    0.51    0.46
   8   7 -18    0.85    0.60
   7   7 -18    4.19    0.76
   6   7 -18    0.66    0.54
   5   7 -18   -0.08    0.52
   4   7 -18   -0.13    0.42
   3   7 -18    6.79    0.85
   2   7 -18    1.14    0.50
   1   7 -18    2.18    0.54
  -1  -7  18    2.09    0.71
  -1  -7  18    2.63    0.47
   0   7 -18    7.71    0.77
   0  -7  18    7.83    1.03
   0  -7  18    7.58    0.73
  -1   7 -18   32.24    1.56
   1  -7  18   29.89    1.58
   1  -7  18   28.60    1.91
   2  -7  18   14.07    1.32
   2  -7  18   13.54    1.01
   3  -7  18    3.73    0.63
   4  -7  18    3.30    0.60
   5  -7  18   11.94    1.07
   8   6 -18   13.94    1.20
   7   6 -18   25.32    1.63
   6   6 -18   17.11    1.25
   5   6 -18   10.77    1.05
   4   6 -18   10.08    1.02
   3   6 -18   41.71    2.11
  -2  -6  18   33.55    2.11
   1   6 -18   11.15    0.93
  -1  -6  18   12.74    0.84
   0   6 -18    5.03    0.64
   0  -6  18    4.97    0.59
   0  -6  18    4.20    0.84
  -1   6 -18    4.64    0.59
   1  -6  18    5.07    0.89
   1  -6  18    4.58    0.58
   2  -6  18    1.73    0.45
   2  -6  18    2.16    0.65
   3  -6  18    4.37    0.82
   3  -6  18    2.87    0.56
   4  -6  18    0.47    0.40
   5  -6  18    3.70    0.66
   9   5 -18    0.69    0.57
   8   5 -18    0.09    0.50
   7   5 -18    0.08    0.43
   6   5 -18   -0.77    0.43
   5   5 -18    0.64    0.49
   4   5 -18    8.84    0.90
   3   5 -18    4.67    0.65
  -3  -5  18    5.49    0.95
   2   5 -18    0.17    0.37
  -2  -5  18   -0.16    0.44
   1   5 -18    0.10    0.39
  -1  -5  18    0.72    0.56
  -1  -5  18   -0.51    0.21
   0   5 -18    0.95    0.43
   0  -5  18    0.68    0.46
   0  -5  18    0.66    0.31
  -1   5 -18    7.62    0.90
   1  -5  18    9.97    1.16
   1  -5  18    8.70    0.75
   2  -5  18    6.53    0.69
   2  -5  18    8.58    1.11
   3  -5  18    2.21    0.70
   3  -5  18    2.59    0.50
   4  -5  18   29.35    1.91
   4  -5  18   27.20    1.56
   5  -5  18   12.12    1.03
   6  -5  18    6.00    0.85
   9   4 -18    2.79    0.71
   8   4 -18   11.19    1.10
   7   4 -18   13.21    1.15
   6   4 -18   29.37    1.65
   5   4 -18   18.96    1.28
   4   4 -18   42.15    2.08
   3   4 -18   52.32    2.43
  -3  -4  18   56.75    2.92
   2   4 -18    9.29    0.84
  -2  -4  18   10.01    1.22
   1   4 -18   11.53    0.90
  -1  -4  18   14.07    1.07
  -1  -4  18   11.26    1.28
   0   4 -18   14.34    0.95
   0  -4  18   13.16    1.24
   0  -4  18   14.65    0.88
   1  -4  18    8.26    0.70
   2  -4  18    3.15    0.77
   2  -4  18    2.96    0.48
   3  -4  18    2.26    0.47
   3  -4  18    2.10    0.69
   4  -4  18    1.46    0.66
   4  -4  18    1.45    0.44
   5  -4  18    0.26    0.60
   5  -4  18    0.18    0.37
   6  -4  18    0.51    0.45
   9   3 -18    1.53    0.62
   8   3 -18    3.73    0.74
   7   3 -18    1.85    0.59
   6   3 -18    1.17    0.53
   5   3 -18   -0.39    0.39
   4   3 -18   25.33    1.45
  -4  -3  18   26.00    1.86
   3   3 -18   13.71    1.00
  -3  -3  18   14.61    1.32
   2   3 -18    2.21    0.44
  -2  -3  18    1.37    0.68
   1   3 -18    0.62    0.37
  -1  -3  18    1.15    0.59
   0   3 -18    2.46    0.43
   0  -3  18    2.33    0.66
   0  -3  18    2.39    0.39
   1  -3  18    0.27    0.47
   1  -3  18    0.26    0.25
   2  -3  18    2.08    0.42
   2  -3  18    0.17    0.30
   3  -3  18    9.57    1.17
   3  -3  18   11.42    0.85
   4  -3  18   15.07    1.04
   4  -3  18   13.96    1.34
   5  -3  18   11.50    0.96
   5  -3  18   12.91    1.47
   6  -3  18   11.96    1.05
   6  -3  18   11.89    1.46
   9   2 -18    2.02    0.60
   8   2 -18    1.24    0.55
   7   2 -18    6.39    0.86
   6   2 -18   15.69    1.17
   5   2 -18   45.66    2.20
   4   2 -18   45.45    2.15
  -4  -2  18   45.27    2.57
   3   2 -18   30.56    1.60
  -3  -2  18   33.03    2.02
   2   2 -18   35.60    1.68
  -2  -2  18   33.05    2.07
   1   2 -18   18.94    1.10
  -1  -2  18   21.64    1.60
   0   2 -18   11.80    0.79
   0  -2  18   12.77    1.20
   1  -2  18   33.22    2.06
   1  -2  18   33.43    1.54
   2  -2  18   17.72    1.41
   2  -2  18   15.75    0.98
   3  -2  18    0.03    0.29
   3  -2  18   -0.96    0.47
   4  -2  18   -0.44    0.29
   4  -2  18    0.52    0.43
   5  -2  18   -0.29    0.64
   5  -2  18    1.38    0.45
   6  -2  18    1.20    0.85
   6  -2  18    0.44    0.43
   9   1 -18    2.68    0.66
   8   1 -18    2.83    0.66
   7   1 -18    0.38    0.43
   6   1 -18    0.96    0.50
   5   1 -18    1.08    0.44
   4   1 -18    7.99    0.81
  -4  -1  18    7.52    1.04
   3   1 -18    1.72    0.41
  -3  -1  18    3.63    0.79
   2   1 -18    3.89    0.53
  -2  -1  18    4.46    0.84
   1   1 -18    2.72    0.44
  -1  -1  18    3.11    0.76
   0   1 -18    0.32    0.28
   0  -1  18    0.00    0.46
   1  -1  18    5.42    0.89
   2  -1  18    3.68    0.47
   2  -1  18    4.06    0.81
   3  -1  18    4.52    0.55
   3  -1  18    4.53    0.90
   4  -1  18    4.98    0.63
   4  -1  18    5.79    1.09
   5  -1  18    2.42    0.84
   5  -1  18    1.96    0.47
   6  -1  18    2.15    0.89
   6  -1  18    6.11    0.75
   9   0 -18    5.22    0.85
   8   0 -18    1.91    0.56
   7   0 -18    5.31    0.73
   6   0 -18   15.09    1.15
   5   0 -18   26.53    1.49
  -5   0  18   27.21    1.87
   4   0 -18   22.53    1.31
  -4   0  18   23.64    1.72
  -3   0  18   13.26    1.25
   2   0 -18   61.32    2.63
  -2   0  18   61.08    3.10
   1   0 -18   20.38    1.15
  -1   0  18   24.23    1.69
   0   0 -18   29.04    1.43
   0   0  18   33.16    1.97
   1   0  18   37.65    2.25
   2   0  18    7.69    0.63
   2   0  18    8.12    1.12
   3   0  18    0.60    0.31
   3   0  18    1.16    0.67
   4   0  18    0.40    0.33
   4   0  18   -0.48    0.62
   5   0  18    1.22    0.44
   5   0  18    0.50    0.82
   6   0  18    0.51    0.86
   6   0  18    1.41    0.49
   9  -1 -18    7.79    0.97
   8  -1 -18   -0.19    0.46
   7  -1 -18    0.07    0.39
   6  -1 -18    1.54    0.49
   5  -1 -18    2.26    0.51
  -5   1  18    2.46    0.69
   4  -1 -18    5.04    0.63
  -4   1  18    5.75    0.96
   3  -1 -18    0.38    0.19
  -3   1  18    0.37    0.49
   2  -1 -18    0.97    0.38
  -2   1  18    0.87    0.61
   1  -1 -18    0.46    0.32
  -1   1  18    0.11    0.49
   0  -1 -18   58.40    2.50
   0   1  18   61.88    3.09
   1   1  18    0.15    0.50
   2   1  18   13.75    1.39
   3   1  18    3.13    0.84
   3   1  18    3.41    0.49
   4   1  18    0.07    0.72
   4   1  18    0.30    0.33
   5   1  18    6.61    0.74
   5   1  18    5.70    1.17
   6   1  18    1.61    1.01
   6   1  18    2.49    0.59
   9  -2 -18   -0.06    0.49
   8  -2 -18    1.43    0.55
   7  -2 -18    2.11    0.59
   6  -2 -18   32.07    1.76
   5  -2 -18   17.42    1.22
  -5   2  18   18.49    1.54
   4  -2 -18    2.69    0.52
  -4   2  18    2.35    0.73
   3  -2 -18   20.24    1.19
   2  -2 -18   32.92    1.62
  -2   2  18   30.88    1.99
   1  -2 -18   49.65    2.20
  -1   2  18   48.91    2.63
   0  -2 -18   60.19    2.49
   0   2  18   55.65    2.99
   1   2  18   31.15    2.04
   2   2  18    8.68    1.17
   3   2  18    1.32    0.75
   4   2  18    3.77    1.03
   4   2  18    5.02    0.62
   5   2  18    0.50    0.40
   5   2  18    0.06    0.71
   6   2  18    0.38    0.79
   6   2  18    1.19    0.50
   9  -3 -18    1.29    0.58
   8  -3 -18    1.12    0.53
   7  -3 -18    0.36    0.45
   6  -3 -18    2.21    0.57
   5  -3 -18    2.00    0.54
  -5   3  18    1.21    0.67
   4  -3 -18    7.75    0.80
  -4   3  18    7.14    1.05
   3  -3 -18    3.38    0.57
  -3   3  18    4.05    0.86
   2  -3 -18    4.86    0.59
  -2   3  18    4.16    0.82
   1  -3 -18    6.19    0.65
  -1   3  18    5.12    0.95
   0  -3 -18   17.23    1.15
   0   3  18   16.02    1.39
   1   3  18    0.88    0.67
   2   3  18    1.50    0.70
   3   3  18    0.26    0.67
   4   3  18    0.53    0.68
   5   3  18   -0.31    0.72
   5   3  18    0.51    0.39
   6   3  18    4.80    0.72
   6   3  18    2.44    1.10
   9  -4 -18    0.60    0.50
   8  -4 -18    0.59    0.46
   7  -4 -18   -0.21    0.38
   6  -4 -18    6.49    0.88
   5  -4 -18   15.33    1.12
  -5   4  18   14.11    1.31
   4  -4 -18   17.13    1.15
  -4   4  18   16.45    1.45
   3  -4 -18   24.91    1.43
  -3   4  18   25.16    1.78
   2  -4 -18   52.53    2.42
  -2   4  18   54.14    2.82
   1  -4 -18   36.84    1.78
  -1   4  18   35.27    2.19
   0   4  18   45.07    2.55
   1   4  18   18.46    1.58
   2   4  18   14.00    1.53
   3   4  18   18.98    1.77
   4   4  18    3.28    0.94
   5   4  18    1.91    0.91
   9  -5 -18    5.45    0.91
   8  -5 -18    1.92    0.57
   7  -5 -18    1.79    0.61
   6  -5 -18    2.74    0.65
  -6   5  18    3.35    0.80
   5  -5 -18   -0.28    0.40
  -5   5  18   -0.78    0.45
   4  -5 -18    3.88    0.63
  -4   5  18    3.02    0.77
   3  -5 -18   -0.53    0.33
  -3   5  18   -0.09    0.49
   2  -5 -18   10.02    0.93
  -2   5  18    8.90    1.10
   1  -5 -18   18.00    1.16
  -1   5  18   19.82    1.51
   0   5  18    4.27    0.85
   1   5  18    0.46    0.54
   2   5  18    1.29    0.71
   3   5  18    0.29    0.72
   4   5  18    2.60    1.02
   5   5  18   -0.08    0.83
   9  -6 -18    0.59    0.52
   8  -6 -18    1.17    0.56
   7  -6 -18    0.81    0.56
   6  -6 -18   -0.05    0.39
  -6   6  18   -0.80    0.46
   5  -6 -18   10.52    1.07
  -5   6  18    7.25    1.09
   4  -6 -18    7.21    0.88
  -4   6  18    7.32    1.05
   3  -6 -18   11.39    1.01
  -3   6  18   11.64    1.28
   2  -6 -18   13.00    1.03
  -2   6  18   14.08    1.28
   1  -6 -18   19.01    1.23
  -1   6  18   23.10    1.68
   0   6  18   14.21    1.34
   1   6  18   18.77    1.64
   2   6  18   34.54    2.36
   3   6  18   36.52    2.45
   4   6  18    5.31    1.13
   5   6  18    3.48    1.02
   8  -7 -18    6.10    0.99
   7  -7 -18   11.49    1.21
   6  -7 -18    3.56    0.77
  -6   7  18    4.02    0.81
   5  -7 -18   -0.42    0.44
  -5   7  18   -0.26    0.50
   4  -7 -18    0.71    0.47
  -4   7  18    0.60    0.57
   3  -7 -18    3.98    0.69
  -3   7  18    4.85    0.90
   2  -7 -18   -0.45    0.37
  -2   7  18   -0.50    0.40
   1  -7 -18    4.90    0.69
  -1   7  18    5.78    0.95
   0   7  18    4.11    0.87
   1   7  18    0.93    0.62
   2   7  18    0.36    0.72
   3   7  18    5.54    1.12
   4   7  18    0.33    0.75
   8  -8 -18    2.27    0.79
   7  -8 -18    2.45    0.69
   6  -8 -18    1.78    0.65
  -6   8  18    1.76    0.69
   5  -8 -18    1.71    0.62
  -5   8  18    2.47    0.74
   4  -8 -18    1.16    0.57
  -4   8  18    1.04    0.61
   3  -8 -18    7.41    0.89
  -3   8  18    7.58    1.05
   2  -8 -18   18.33    1.32
  -2   8  18   19.05    1.56
   1  -8 -18    6.83    0.82
  -1   8  18    6.63    1.04
   0   8  18   16.23    1.46
   1   8  18   14.52    1.45
   2   8  18   25.54    2.08
   3   8  18   13.13    1.68
   4   8  18    9.35    1.50
   8  -9 -18    3.03    0.83
   7  -9 -18    2.86    0.73
   6  -9 -18    3.51    0.85
  -6   9  18    4.87    0.91
   5  -9 -18    3.40    0.80
  -5   9  18    4.16    0.89
   4  -9 -18    0.03    0.51
  -4   9  18    0.44    0.54
   3  -9 -18    1.38    0.57
  -3   9  18    1.57    0.65
   2  -9 -18    0.44    0.47
  -2   9  18   -0.07    0.54
   1  -9 -18    0.87    0.47
  -1   9  18    0.93    0.65
   0   9  18    1.85    0.76
   1   9  18    0.25    0.70
   2   9  18    2.42    0.91
   3   9  18    1.03    0.79
   7 -10 -18    4.59    0.96
   6 -10 -18   -0.33    0.55
   5 -10 -18    0.43    0.54
  -5  10  18    1.75    0.64
   4 -10 -18    0.13    0.55
  -4  10  18    0.12    0.53
   3 -10 -18    4.72    0.82
  -3  10  18    5.45    0.98
   2 -10 -18    2.29    0.61
  -2  10  18    4.46    0.86
   1 -10 -18   12.76    1.28
  -1  10  18   13.56    1.46
   0  10  18    8.10    1.17
   1  10  18   29.45    2.12
   2  10  18   11.42    1.53
   3  10  18    5.08    1.16
   6 -11 -18    2.32    0.79
   5 -11 -18    6.55    1.01
   4 -11 -18   -0.19    0.54
  -4  11  18    0.37    0.50
   3 -11 -18    0.89    0.55
  -3  11  18    0.91    0.58
   2 -11 -18    0.79    0.57
  -2  11  18    1.02    0.62
  -1  11  18    3.02    0.76
   0  11  18    0.94    0.58
   1  11  18    1.43    0.85
   2  11  18    2.83    0.93
   5 -12 -18    1.21    0.68
   4 -12 -18    0.14    0.52
   3 -12 -18    0.38    0.56
  -3  12  18    0.56    0.61
   2 -12 -18    9.64    1.10
  -2  12  18   11.05    1.26
  -1  12  18    3.29    0.81
   0  12  18    7.67    1.17
   1  12  18    7.79    1.28
   4 -13 -18    3.60    0.80
   3 -13 -18    1.61    0.66
   2 -13 -18    1.69    0.64
  -1  13  18    0.03    0.45
   3  13 -19   -0.31    0.50
   2  13 -19    3.77    0.75
   1  13 -19    3.97    0.74
   0  13 -19    0.03    0.53
   4  12 -19   17.03    1.44
   3  12 -19    7.43    1.01
   2  12 -19   13.53    1.22
   1  12 -19   19.43    1.38
   0  12 -19   25.46    1.56
  -1  12 -19   13.68    1.12
   1 -12  19   16.61    1.26
   2 -12  19    0.32    0.49
   5  11 -19    2.81    0.81
   4  11 -19    1.22    0.66
   3  11 -19    0.13    0.56
   2  11 -19    1.95    0.65
   1  11 -19    0.67    0.32
   0  11 -19    1.54    0.54
   0 -11  19    1.69    0.51
  -1  11 -19   -0.07    0.45
   1 -11  19    0.25    0.40
   2 -11  19    1.68    0.57
   3 -11  19    2.09    0.61
   6  10 -19    1.61    0.79
   5  10 -19    6.09    0.92
   4  10 -19   19.96    1.49
   3  10 -19   11.95    1.08
   2  10 -19    8.73    0.95
   1  10 -19   16.44    1.21
   0  10 -19   28.38    1.64
   0 -10  19   32.34    1.69
  -1  10 -19   21.09    1.29
   1 -10  19   17.93    1.28
   2 -10  19    9.21    0.97
   3 -10  19    4.28    0.72
   7   9 -19    2.19    0.70
   6   9 -19   -0.63    0.53
   5   9 -19    0.48    0.67
   4   9 -19    0.72    0.59
   3   9 -19    0.03    0.47
   2   9 -19    3.48    0.64
   1   9 -19   -0.08    0.45
   0   9 -19    0.53    0.47
   0  -9  19    0.22    0.37
   0  -9  19    0.32    0.54
  -1   9 -19    1.85    0.79
   1  -9  19    2.36    0.55
   2  -9  19    2.00    0.55
   3  -9  19    2.20    0.57
   4  -9  19    1.36    0.54
   7   8 -19    1.24    0.61
   6   8 -19    2.01    0.63
   5   8 -19    4.00    0.83
   4   8 -19   14.61    1.27
   3   8 -19   12.53    1.17
   2   8 -19   18.86    1.31
   1   8 -19   30.38    1.65
  -1  -8  19   28.31    1.98
   0   8 -19   21.20    1.30
   0  -8  19   21.22    1.65
   0  -8  19   20.69    1.26
   1  -8  19    6.41    1.04
   1  -8  19    8.94    0.88
   2  -8  19    5.35    0.70
   3  -8  19    6.78    0.83
   4  -8  19   11.98    1.08
   8   7 -19    8.65    1.09
   7   7 -19    2.90    0.73
   6   7 -19    0.80    0.61
   5   7 -19    1.07    0.60
   4   7 -19    0.41    0.56
   3   7 -19   -0.03    0.49
   2   7 -19    0.19    0.25
  -2  -7  19    0.61    0.39
   1   7 -19    2.26    0.56
  -1  -7  19    2.33    0.45
  -1  -7  19    1.70    0.66
   0   7 -19    1.93    0.50
   0  -7  19    1.79    0.44
   0  -7  19    2.50    0.69
   1  -7  19    2.90    0.53
   1  -7  19    2.59    0.78
   2  -7  19    4.23    0.88
   2  -7  19    2.91    0.57
   3  -7  19    2.39    0.55
   4  -7  19    4.06    0.70
   5  -7  19    2.21    0.57
   8   6 -19   -0.45    0.49
   7   6 -19   -0.13    0.46
   6   6 -19    1.21    0.63
   5   6 -19   13.50    1.16
   4   6 -19    2.53    0.58
   3   6 -19   13.70    1.14
   2   6 -19    8.71    0.92
  -2  -6  19   13.32    1.42
   1   6 -19   32.78    1.73
   0   6 -19   30.57    1.58
   0  -6  19   27.70    1.45
   0  -6  19   27.05    1.90
   1  -6  19   27.70    1.48
   1  -6  19   27.92    1.88
   2  -6  19   28.94    1.52
   2  -6  19   23.89    1.77
   3  -6  19   19.55    1.56
   3  -6  19   17.76    1.21
   4  -6  19   12.90    1.04
   5  -6  19    2.39    0.57
   8   5 -19   14.06    1.33
   7   5 -19    6.58    0.86
   6   5 -19    1.78    0.56
   5   5 -19    2.41    0.59
   4   5 -19    2.23    0.54
   3   5 -19    0.28    0.45
  -3  -5  19    0.10    0.58
   2   5 -19    1.34    0.48
  -2  -5  19    2.35    0.78
   1   5 -19    1.18    0.48
  -1  -5  19    0.69    0.62
   0   5 -19    0.79    0.42
   0  -5  19   -0.13    0.24
   0  -5  19    0.23    0.29
   1  -5  19   -0.11    0.52
   1  -5  19    0.32    0.33
   2  -5  19    2.16    0.73
   2  -5  19    2.88    0.52
   3  -5  19   13.97    1.35
   3  -5  19   13.74    1.03
   4  -5  19   -0.63    0.51
   4  -5  19    0.12    0.37
   5  -5  19   -0.05    0.40
   8   4 -19   -0.20    0.51
   7   4 -19    0.28    0.53
   6   4 -19    0.67    0.54
   5   4 -19   -0.36    0.41
   4   4 -19    5.79    0.77
   3   4 -19    4.03    0.63
  -3  -4  19    3.13    0.79
   2   4 -19   20.18    1.23
  -2  -4  19   19.45    1.61
   1   4 -19   27.83    1.44
  -1  -4  19   25.52    1.81
   0   4 -19   28.71    1.46
   0  -4  19   28.29    1.94
   1  -4  19   23.00    1.25
   2  -4  19   34.44    2.17
   2  -4  19   36.80    1.75
   3  -4  19   26.80    1.49
   3  -4  19   29.01    1.95
   4  -4  19   14.63    1.42
   4  -4  19   13.28    1.02
   5  -4  19    9.23    1.28
   5  -4  19    8.30    0.91
   9   3 -19   10.10    1.14
   8   3 -19   20.60    1.43
   7   3 -19   17.13    1.24
   6   3 -19    5.92    0.81
   5   3 -19    5.20    0.71
   4   3 -19    7.92    0.85
  -4  -3  19    8.23    1.21
   3   3 -19    1.31    0.47
  -3  -3  19    1.24    0.68
   2   3 -19    0.88    0.40
  -2  -3  19   -0.19    0.53
   1   3 -19    0.07    0.34
  -1  -3  19    0.63    0.54
   0   3 -19    0.77    0.36
   0  -3  19    0.73    0.59
   1  -3  19    1.94    0.72
   2  -3  19   10.57    1.29
   2  -3  19   16.41    0.98
   3  -3  19    0.88    0.39
   3  -3  19    0.93    0.65
   4  -3  19    0.97    0.42
   4  -3  19    0.73    0.64
   5  -3  19   -0.56    0.62
   5  -3  19    0.03    0.36
   9   2 -19    6.28    0.89
   8   2 -19    2.64    0.64
   7   2 -19   -0.46    0.43
   6   2 -19    0.44    0.46
   5   2 -19   -0.19    0.39
   4   2 -19   -0.46    0.33
  -4  -2  19   -0.28    0.55
   3   2 -19    2.36    0.45
  -3  -2  19    5.11    0.96
   2   2 -19    2.13    0.47
  -2  -2  19    1.97    0.72
   1   2 -19   23.27    1.27
  -1  -2  19   26.67    1.79
   0   2 -19   11.50    0.81
   0  -2  19   11.72    1.30
   1  -2  19   25.75    1.78
   2  -2  19   22.68    1.34
   2  -2  19   22.33    1.66
   3  -2  19   18.60    1.53
   3  -2  19   17.60    1.10
   4  -2  19    8.99    0.81
   5  -2  19   15.96    1.15
   5  -2  19   15.84    1.71
   9   1 -19    4.70    0.83
   8   1 -19   12.98    1.11
   7   1 -19    8.94    0.99
   6   1 -19   14.28    1.09
   5   1 -19   24.11    1.41
   4   1 -19   11.69    0.91
  -4  -1  19   11.00    1.31
  -3  -1  19    2.39    0.77
   2   1 -19   -0.05    0.31
  -2  -1  19    0.06    0.55
   1   1 -19    2.27    0.43
  -1  -1  19    2.13    0.72
   0   1 -19    4.75    0.54
   0  -1  19    4.03    0.84
   1  -1  19    5.15    0.94
   2  -1  19    4.48    0.88
   3  -1  19    2.62    0.46
   3  -1  19    2.97    0.88
   4  -1  19    3.78    1.00
   4  -1  19    2.13    0.49
   5  -1  19    0.39    0.76
   5  -1  19    0.18    0.39
   9   0 -19    6.87    1.00
   8   0 -19    0.66    0.48
   7   0 -19    3.40    0.68
   6   0 -19    1.29    0.48
   5   0 -19    1.64    0.51
  -5   0  19    1.32    0.68
   4   0 -19    0.66    0.41
  -4   0  19   -0.05    0.50
   3   0 -19    1.11    0.38
  -3   0  19    1.59    0.66
   2   0 -19   10.97    0.82
  -2   0  19    8.08    1.11
   1   0 -19    1.61    0.39
  -1   0  19    1.01    0.59
   0   0  19   25.12    1.76
   1   0  19   27.34    1.90
   2   0  19   16.49    1.51
   3   0  19   14.89    1.59
   4   0  19   14.32    1.03
   4   0  19   18.32    1.71
   5   0  19   15.62    1.79
   5   0  19   13.90    1.07
   9  -1 -19    2.78    0.74
   8  -1 -19   10.23    1.12
   7  -1 -19   12.89    1.09
   6  -1 -19   23.30    1.48
   5  -1 -19   28.85    1.62
  -5   1  19   28.30    1.95
   4  -1 -19    9.48    0.86
  -4   1  19    8.24    1.14
   3  -1 -19    7.48    0.75
  -3   1  19    8.23    1.11
   2  -1 -19    2.58    0.48
  -2   1  19    3.48    0.81
   1  -1 -19    1.42    0.40
  -1   1  19    1.16    0.62
   0   1  19    1.94    0.67
   1   1  19    0.33    0.54
   2   1  19    1.99    0.73
   3   1  19    0.99    0.66
   4   1  19    0.45    0.71
   5   1  19    2.70    1.06
   5   1  19    1.15    0.49
   9  -2 -19    1.80    0.64
   8  -2 -19    0.73    0.48
   7  -2 -19    0.62    0.46
   6  -2 -19   13.04    1.07
   5  -2 -19    3.62    0.64
  -5   2  19    1.98    0.69
   4  -2 -19    0.85    0.46
  -4   2  19    0.97    0.66
   3  -2 -19    5.90    0.72
  -3   2  19    4.72    0.92
   2  -2 -19    0.26    0.33
  -2   2  19    0.97    0.56
   1  -2 -19    1.13    0.36
  -1   2  19    0.97    0.57
   0   2  19    4.41    0.86
   1   2  19   16.89    1.48
   2   2  19   18.61    1.67
   3   2  19   25.70    2.02
   4   2  19   13.60    1.62
   5   2  19   14.89    1.78
   9  -3 -19    3.85    0.78
   8  -3 -19    8.38    1.05
   7  -3 -19   25.73    1.63
   6  -3 -19   31.49    1.79
   5  -3 -19   27.28    1.57
  -5   3  19   24.56    1.82
   4  -3 -19   12.80    0.99
  -4   3  19    9.18    1.23
   3  -3 -19    5.64    0.68
  -3   3  19    4.74    0.89
   2  -3 -19    1.11    0.43
  -2   3  19    1.91    0.72
   1  -3 -19    8.30    0.76
  -1   3  19    7.42    1.06
   0   3  19    1.46    0.65
   1   3  19    0.52    0.63
   2   3  19    0.15    0.66
   3   3  19   -0.52    0.56
   4   3  19    1.45    0.95
   5   3  19    3.99    1.21
   9  -4 -19    0.40    0.55
   8  -4 -19    1.47    0.65
   7  -4 -19    1.62    0.61
   6  -4 -19    7.19    0.89
  -6   4  19    5.66    1.00
   5  -4 -19   15.80    1.15
  -5   4  19   12.60    1.41
   4  -4 -19    1.35    0.47
  -4   4  19    1.20    0.69
   3  -4 -19    5.78    0.73
  -3   4  19    3.95    0.86
   2  -4 -19    1.81    0.48
  -2   4  19    0.98    0.66
   1  -4 -19    1.31    0.42
  -1   4  19    0.32    0.52
   0   4  19    3.64    0.82
   1   4  19    7.54    1.11
   2   4  19    7.23    1.15
   3   4  19   11.51    1.55
   4   4  19   13.35    1.72
   5   4  19    9.28    1.55
   8  -5 -19    9.68    1.13
   7  -5 -19   14.23    1.28
   6  -5 -19   21.38    1.48
  -6   5  19   20.39    1.64
   5  -5 -19    4.87    0.73
  -5   5  19    4.38    0.89
   4  -5 -19   35.90    1.95
  -4   5  19   37.33    2.25
   3  -5 -19   16.13    1.16
  -3   5  19   15.13    1.44
   2  -5 -19   20.79    1.29
  -2   5  19   20.06    1.59
   1  -5 -19   17.93    1.17
  -1   5  19   18.49    1.58
   0   5  19    2.66    0.76
   1   5  19    1.37    0.67
   2   5  19    0.41    0.63
   3   5  19    0.18    0.70
   4   5  19    1.52    0.96
   8  -6 -19    1.39    0.61
   7  -6 -19    6.82    0.96
   6  -6 -19    2.56    0.69
  -6   6  19    2.81    0.83
   5  -6 -19    0.58    0.45
  -5   6  19    0.52    0.55
   4  -6 -19    5.38    0.77
  -4   6  19    4.46    0.90
   3  -6 -19    5.81    0.80
  -3   6  19    5.35    0.98
   2  -6 -19    2.05    0.52
  -2   6  19    1.61    0.66
   1  -6 -19    2.67    0.56
  -1   6  19    3.43    0.81
   0   6  19    2.68    0.77
   1   6  19    9.52    1.26
   2   6  19    4.22    1.04
   3   6  19    3.30    1.03
   4   6  19    6.82    1.40
   8  -7 -19    6.42    1.02
   7  -7 -19   12.29    1.31
   6  -7 -19    8.47    1.04
  -6   7  19    8.11    1.18
   5  -7 -19   12.26    1.13
  -5   7  19   12.70    1.42
   4  -7 -19   15.95    1.25
  -4   7  19   13.17    1.32
   3  -7 -19   24.03    1.55
  -3   7  19   26.56    1.85
   2  -7 -19   27.24    1.62
  -2   7  19   28.69    1.92
   1  -7 -19   11.24    0.98
  -1   7  19   13.62    1.49
   0   7  19    1.17    0.73
   1   7  19    1.46    0.77
   2   7  19    1.59    0.82
   3   7  19   -0.07    0.70
   4   7  19    0.63    0.90
   8  -8 -19   -0.17    0.60
   7  -8 -19    0.25    0.56
   6  -8 -19    3.13    0.79
  -6   8  19    3.49    0.85
   5  -8 -19    1.30    0.58
  -5   8  19    1.34    0.67
   4  -8 -19    2.85    0.71
  -4   8  19    3.94    0.89
   3  -8 -19    0.51    0.47
  -3   8  19    0.18    0.54
   2  -8 -19    6.34    0.85
  -2   8  19    7.80    1.17
  -1   8  19    2.61    0.83
   0   8  19    0.29    0.64
   1   8  19    0.72    0.71
   2   8  19    2.60    0.96
   3   8  19    3.20    1.07
   7  -9 -19    4.18    0.91
   6  -9 -19    5.98    1.00
  -6   9  19    6.15    1.06
   5  -9 -19   12.98    1.34
  -5   9  19   12.26    1.41
   4  -9 -19   15.08    1.31
  -4   9  19   13.84    1.39
   3  -9 -19   11.64    1.18
  -3   9  19   13.48    1.44
   2  -9 -19   22.54    1.53
  -2   9  19   26.37    1.88
  -1   9  19    7.13    1.16
   0   9  19    3.90    0.99
   1   9  19    4.96    1.01
   2   9  19    8.48    1.36
   3   9  19    0.67    0.78
   6 -10 -19    0.74    0.66
   5 -10 -19    7.75    1.09
  -5  10  19    8.19    1.16
   4 -10 -19    1.68    0.70
  -4  10  19    2.73    0.80
   3 -10 -19    2.43    0.67
  -3  10  19    2.25    0.76
   2 -10 -19    0.87    0.50
  -2  10  19    1.14    0.67
  -1  10  19    2.15    0.73
   0  10  19   -0.91    0.50
   1  10  19    0.91    0.75
   2  10  19    1.84    0.93
   6 -11 -19    3.32    0.92
   5 -11 -19    4.67    0.88
   4 -11 -19   23.86    1.71
  -4  11  19   21.61    1.74
   3 -11 -19   20.20    1.54
  -3  11  19   20.98    1.69
   2 -11 -19    4.78    0.81
  -2  11  19    3.71    0.83
  -1  11  19    5.86    1.04
   0  11  19    9.73    1.32
   1  11  19    7.01    1.26
   4 -12 -19    0.48    0.63
   3 -12 -19    3.45    0.79
  -3  12  19    4.93    1.10
   2 -12 -19    9.51    1.11
  -2  12  19   10.96    1.31
  -1  12  19    3.95    0.87
   0  12  19    2.52    0.84
   3  12 -20    0.44    0.65
   2  12 -20    3.28    0.76
   1  12 -20    0.53    0.34
   0  12 -20    5.00    0.79
   4  11 -20    6.40    0.95
   3  11 -20    6.67    0.96
   2  11 -20    2.85    0.71
   1  11 -20    8.19    0.97
   0  11 -20    0.40    0.52
   1 -11  20   -0.03    0.41
   2 -11  20    0.13    0.45
   5  10 -20    0.59    0.68
   4  10 -20    0.03    0.61
   3  10 -20   -0.45    0.46
   2  10 -20    0.45    0.56
   1  10 -20    4.29    0.75
   0  10 -20    1.56    0.58
   0 -10  20    1.07    0.47
   1 -10  20    2.15    0.55
   2 -10  20    9.12    1.00
   6   9 -20    6.18    0.94
   5   9 -20   19.46    1.51
   4   9 -20   12.53    1.23
   3   9 -20    6.02    0.85
   2   9 -20   11.15    1.12
   1   9 -20   -0.58    0.45
   0   9 -20    0.27    0.47
   0  -9  20    0.08    0.37
   0  -9  20    0.07    0.57
   1  -9  20    1.67    0.51
   2  -9  20    0.41    0.44
   3  -9  20    0.06    0.43
   7   8 -20    0.74    0.67
   6   8 -20    3.47    0.75
   5   8 -20   -0.04    0.52
   4   8 -20    0.55    0.61
   3   8 -20    2.67    0.72
   2   8 -20   -0.19    0.26
   1   8 -20   -0.31    0.42
  -1  -8  20   -0.31    0.52
   0   8 -20    5.30    0.73
   0  -8  20    4.86    0.96
   0  -8  20    4.42    0.62
   1  -8  20    3.11    0.81
   1  -8  20    3.28    0.59
   2  -8  20    2.61    0.57
   3  -8  20    1.48    0.51
   4  -8  20    8.60    0.95
   7   7 -20   11.02    1.20
   6   7 -20   13.34    1.28
   5   7 -20   13.87    1.27
   4   7 -20   13.22    1.23
   3   7 -20   31.44    1.84
   2   7 -20   17.68    1.25
  -2  -7  20   15.14    1.44
   1   7 -20   12.42    1.09
  -1  -7  20    9.86    1.29
   0   7 -20    4.28    0.69
   0  -7  20    3.98    0.90
   1  -7  20    0.03    0.55
   1  -7  20    0.37    0.38
   2  -7  20    0.83    0.42
   2  -7  20    0.60    0.60
   3  -7  20   -0.22    0.38
   4  -7  20    2.27    0.57
   7   6 -20    1.62    0.66
   6   6 -20    1.19    0.58
   5   6 -20    0.45    0.55
   4   6 -20    0.62    0.54
   3   6 -20    0.71    0.53
   2   6 -20   -0.19    0.45
  -2  -6  20   -0.10    0.58
   1   6 -20    0.00    0.43
  -1  -6  20   -0.10    0.26
   0   6 -20   -0.24    0.41
   0  -6  20    0.89    0.65
   1  -6  20    1.70    0.46
   1  -6  20    2.39    0.72
   2  -6  20    0.35    0.37
   2  -6  20    0.63    0.62
   3  -6  20    6.21    1.04
   3  -6  20    4.43    0.66
   4  -6  20    4.44    0.71
   8   5 -20    6.99    1.00
   7   5 -20    8.04    0.97
   6   5 -20   13.96    1.21
   5   5 -20   18.67    1.29
   4   5 -20   26.84    1.60
   3   5 -20   22.38    1.38
  -3  -5  20   20.98    1.72
   2   5 -20   23.11    1.37
  -2  -5  20   22.47    1.74
   1   5 -20   20.31    1.24
  -1  -5  20   20.09    1.66
   0  -5  20    8.55    1.10
   1  -5  20    9.74    1.26
   2  -5  20    1.02    0.67
   2  -5  20    1.45    0.45
   3  -5  20    0.10    0.35
   3  -5  20    0.28    0.58
   4  -5  20   -0.25    0.58
   4  -5  20    0.66    0.40
   8   4 -20    0.29    0.55
   7   4 -20    3.61    0.78
   6   4 -20    0.11    0.44
   5   4 -20    1.49    0.51
   4   4 -20   13.23    1.08
   3   4 -20    3.70    0.63
  -3  -4  20    3.64    0.90
   2   4 -20    2.70    0.54
  -2  -4  20    1.88    0.76
   1   4 -20    0.17    0.38
  -1  -4  20   -0.94    0.49
   0   4 -20    2.83    0.53
   0  -4  20    3.17    0.83
   1  -4  20    0.28    0.43
   2  -4  20    0.45    0.62
   3  -4  20    4.00    0.85
   3  -4  20    3.84    0.59
   4  -4  20    7.44    1.17
   4  -4  20    6.04    0.76
   5  -4  20   10.24    1.39
   5  -4  20    8.16    0.93
   8   3 -20    5.29    0.86
   7   3 -20    4.87    0.79
   6   3 -20    7.27    0.86
   5   3 -20   23.77    1.47
   4   3 -20   32.08    1.72
  -4  -3  20   31.55    2.20
  -3  -3  20   24.02    1.81
   2   3 -20   20.27    1.23
  -2  -3  20   21.75    1.67
   1   3 -20   16.72    1.07
  -1  -3  20   17.14    1.49
   0  -3  20    9.04    1.18
   1  -3  20   18.90    1.61
   2  -3  20    5.80    1.00
   3  -3  20    4.12    0.89
   4  -3  20    2.04    0.83
   4  -3  20    2.05    0.51
   5  -3  20    0.20    0.39
   5  -3  20    0.65    0.73
   8   2 -20    1.22    0.62
   7   2 -20    1.05    0.53
   6   2 -20    0.68    0.49
   5   2 -20    0.16    0.43
   4   2 -20    5.39    0.68
  -4  -2  20    4.02    0.92
  -3  -2  20   12.28    1.40
   2   2 -20    6.08    0.69
  -2  -2  20    5.67    1.00
   1   2 -20    1.63    0.42
  -1  -2  20    0.57    0.58
   0  -2  20    2.11    0.78
   1  -2  20    0.03    0.51
   2  -2  20    0.46    0.58
   3  -2  20    0.55    0.68
   4  -2  20    4.86    1.00
   5  -2  20    0.59    0.79
   5  -2  20    1.27    0.48
   8   1 -20    1.58    0.59
   7   1 -20    4.79    0.79
   6   1 -20    4.62    0.70
   5   1 -20   29.36    1.66
   4   1 -20   19.44    1.26
  -4  -1  20   19.34    1.68
   3   1 -20    7.72    0.78
  -3  -1  20    8.63    1.19
   2   1 -20   63.36    2.68
  -2  -1  20   58.41    3.17
   1   1 -20   21.45    1.18
  -1  -1  20   20.24    1.62
   0  -1  20   19.23    1.56
   1  -1  20   11.63    1.38
   2  -1  20    7.59    1.13
   3  -1  20    2.88    0.84
   4  -1  20    1.95    0.83
   5  -1  20    0.96    0.84
   9   0 -20    1.82    0.66
   8   0 -20    0.55    0.54
   7   0 -20   -0.03    0.47
   6   0 -20    1.31    0.47
   5   0 -20   -0.42    0.39
  -5   0  20   -0.08    0.53
   4   0 -20    0.57    0.43
  -4   0  20    0.20    0.59
   3   0 -20   15.06    1.04
  -3   0  20   14.51    1.47
   2   0 -20    0.15    0.34
  -2   0  20    0.66    0.57
   1   0 -20    0.71    0.35
  -1   0  20   -0.20    0.49
   0   0  20    4.46    0.94
   1   0  20    2.74    0.78
   2   0  20    0.07    0.58
   3   0  20    0.13    0.64
   4   0  20    1.39    0.85
   5   0  20    0.58    0.80
   9  -1 -20    0.56    0.57
   8  -1 -20    0.03    0.52
   7  -1 -20    0.87    0.53
   6  -1 -20   11.70    1.03
   5  -1 -20   23.32    1.44
  -5   1  20   21.29    1.80
   4  -1 -20    4.76    0.67
  -4   1  20    2.54    0.75
   3  -1 -20   13.79    1.01
  -3   1  20   12.93    1.49
   2  -1 -20   24.33    1.36
  -2   1  20   24.69    1.80
   1  -1 -20   45.58    2.07
  -1   1  20   45.45    2.62
   0   1  20   41.18    2.49
   1   1  20   33.47    2.23
   2   1  20   11.93    1.47
   3   1  20    2.47    0.89
   4   1  20    3.49    0.99
   5   1  20    4.26    1.18
   9  -2 -20    7.62    1.02
   8  -2 -20    1.48    0.57
   7  -2 -20   -0.12    0.41
   6  -2 -20    0.71    0.49
   5  -2 -20    0.31    0.41
  -5   2  20    0.01    0.54
   4  -2 -20    2.29    0.53
  -4   2  20    1.62    0.77
   3  -2 -20    1.14    0.45
  -3   2  20    0.12    0.52
   2  -2 -20    1.38    0.43
  -2   2  20    0.62    0.58
   1  -2 -20    0.99    0.36
  -1   2  20    1.00    0.62
   0   2  20   11.67    1.35
   1   2  20   -0.01    0.58
   2   2  20    0.12    0.61
   3   2  20   -0.34    0.68
   4   2  20    0.97    0.79
   5   2  20    1.91    0.99
   8  -3 -20    0.55    0.56
   7  -3 -20    0.65    0.46
   6  -3 -20    5.87    0.82
   5  -3 -20    2.32    0.56
  -5   3  20    3.27    0.89
   4  -3 -20   10.75    0.96
  -4   3  20   11.23    1.38
   3  -3 -20   43.04    2.07
  -3   3  20   40.46    2.45
   2  -3 -20   11.75    0.93
  -2   3  20   11.87    1.35
   1  -3 -20   36.18    1.73
  -1   3  20   31.54    2.12
   0   3  20   49.69    2.79
   1   3  20   20.87    1.70
   2   3  20    9.88    1.34
   3   3  20    6.20    1.16
   4   3  20   13.01    1.74
   8  -4 -20    8.34    1.05
   7  -4 -20    0.15    0.45
   6  -4 -20    3.49    0.68
  -6   4  20    2.58    0.80
   5  -4 -20    0.10    0.41
  -5   4  20   -0.13    0.53
   4  -4 -20    1.35    0.50
  -4   4  20    1.09    0.69
   3  -4 -20    0.21    0.40
  -3   4  20    0.59    0.57
   2  -4 -20    3.79    0.61
  -2   4  20    2.84    0.79
   1  -4 -20   11.93    0.91
  -1   4  20    9.21    1.24
   0   4  20    6.26    1.04
   1   4  20    5.95    1.13
   2   4  20    0.32    0.66
   3   4  20    2.96    1.07
   4   4  20    0.01    0.88
   8  -5 -20    0.03    0.56
   7  -5 -20    0.17    0.48
   6  -5 -20    0.81    0.57
  -6   5  20    0.44    0.58
   5  -5 -20   -0.06    0.40
  -5   5  20   -0.17    0.59
   4  -5 -20    6.66    0.88
  -4   5  20    8.09    1.20
   3  -5 -20    5.62    0.77
  -3   5  20    5.74    1.03
   2  -5 -20   10.11    0.92
  -2   5  20    9.13    1.24
  -1   5  20   30.95    2.07
   0   5  20   21.55    1.72
   1   5  20   14.91    1.49
   2   5  20   18.29    1.69
   3   5  20    7.31    1.33
   4   5  20    3.40    1.08
   8  -6 -20    3.10    0.77
   7  -6 -20   10.03    1.15
   6  -6 -20    2.80    0.69
  -6   6  20    2.09    0.82
   5  -6 -20    0.43    0.52
  -5   6  20    1.53    0.72
   4  -6 -20    0.43    0.46
  -4   6  20   -0.29    0.58
   3  -6 -20   -0.29    0.40
  -3   6  20   -0.60    0.51
   2  -6 -20    0.24    0.43
  -2   6  20    1.20    0.70
  -1   6  20    0.68    0.60
   0   6  20    2.11    0.76
   1   6  20    0.75    0.73
   2   6  20    1.41    0.86
   3   6  20    1.74    0.93
   7  -7 -20    1.35    0.64
   6  -7 -20    1.30    0.62
  -6   7  20    0.32    0.64
   5  -7 -20    1.22    0.60
  -5   7  20    0.77    0.69
   4  -7 -20    0.90    0.48
  -4   7  20    0.63    0.64
   3  -7 -20    1.49    0.52
  -3   7  20    1.02    0.62
   2  -7 -20    8.79    0.95
  -2   7  20    8.84    1.21
  -1   7  20   10.54    1.33
   0   7  20   12.93    1.52
   1   7  20   17.04    1.62
   2   7  20   20.39    1.84
   3   7  20   21.69    2.00
   7  -8 -20    5.36    0.92
   6  -8 -20    5.31    0.95
  -6   8  20    4.85    0.97
   5  -8 -20    2.77    0.73
  -5   8  20    3.99    0.91
   4  -8 -20    0.58    0.50
  -4   8  20    1.36    0.71
   3  -8 -20    0.30    0.50
  -3   8  20   -0.25    0.55
   2  -8 -20    0.86    0.50
  -2   8  20    1.42    0.69
  -1   8  20    0.52    0.58
   0   8  20    0.91    0.72
   1   8  20   -0.13    0.63
   2   8  20   -0.03    0.67
   6  -9 -20    1.02    0.67
  -6   9  20    0.55    0.66
   5  -9 -20    0.37    0.57
  -5   9  20    0.05    0.64
   4  -9 -20    0.31    0.53
  -4   9  20    1.16    0.69
   3  -9 -20    2.31    0.66
  -3   9  20    1.50    0.72
   2  -9 -20    2.13    0.62
  -2   9  20    3.56    0.89
  -1   9  20    2.35    0.81
   0   9  20   17.14    1.68
   1   9  20    8.69    1.40
   2   9  20   10.64    1.53
   6 -10 -20    3.51    0.89
   5 -10 -20    5.70    0.96
  -5  10  20    4.80    1.01
   4 -10 -20    0.07    0.53
  -4  10  20    0.77    0.62
   3 -10 -20    0.85    0.61
  -3  10  20    1.05    0.65
   2 -10 -20    1.07    0.58
  -2  10  20    0.61    0.67
  -1  10  20    0.28    0.67
   0  10  20    1.25    0.80
   1  10  20    3.23    1.03
   4 -11 -20    2.20    0.75
  -4  11  20    2.10    0.75
   3 -11 -20    0.02    0.53
  -3  11  20    0.56    0.60
  -2  11  20    1.49    0.68
  -1  11  20    5.91    1.12
   0  11  20    2.76    0.95
   3  11 -21   10.00    1.18
   2  11 -21   15.79    1.40
   1  11 -21   17.94    1.40
   0  11 -21   14.87    1.24
   4  10 -21   -0.67    0.52
   3  10 -21   -0.05    0.59
   2  10 -21   -0.11    0.56
   1  10 -21    2.10    0.67
   0  10 -21    1.94    0.62
   1 -10  21    0.55    0.47
   5   9 -21    2.42    0.79
   4   9 -21    5.10    0.88
   3   9 -21    6.18    0.91
   2   9 -21    0.81    0.37
   1   9 -21   14.36    1.21
   0   9 -21   13.75    1.17
   0  -9  21   15.31    1.51
   1  -9  21    5.32    0.80
   2  -9  21   13.89    1.13
   6   8 -21    2.88    0.75
   5   8 -21    2.83    0.78
   4   8 -21    1.67    0.67
   3   8 -21    0.41    0.61
   2   8 -21   -0.12    0.49
   1   8 -21    1.65    0.60
  -1  -8  21    1.37    0.76
   0   8 -21    9.48    1.13
   0  -8  21    8.47    1.23
   1  -8  21    3.15    0.87
   2  -8  21    2.15    0.54
   3  -8  21    1.16    0.52
   7   7 -21    0.33    0.62
   6   7 -21    0.12    0.60
   5   7 -21    2.72    0.73
   4   7 -21    4.41    0.76
   3   7 -21    7.90    0.97
   2   7 -21   14.08    1.19
  -2  -7  21   10.69    1.44
   1   7 -21   19.39    1.34
  -1  -7  21   18.16    1.68
   0  -7  21    7.11    1.17
   1  -7  21   17.41    1.59
   2  -7  21   14.35    1.45
   3  -7  21   15.39    1.17
   7   6 -21    8.88    1.10
   6   6 -21    2.23    0.65
   5   6 -21   10.87    1.12
   4   6 -21    0.85    0.50
   3   6 -21    2.21    0.61
   2   6 -21    1.89    0.57
  -2  -6  21    2.30    0.78
   1   6 -21    2.83    0.60
  -1  -6  21    1.55    0.72
   0  -6  21   -0.49    0.50
   1  -6  21    0.22    0.63
   2  -6  21    5.55    1.02
   3  -6  21    3.03    0.87
   3  -6  21    3.18    0.93
   7   5 -21    0.13    0.54
   6   5 -21    0.07    0.48
   5   5 -21   -0.39    0.44
   4   5 -21    1.33    0.56
   3   5 -21    4.37    0.71
  -3  -5  21    5.44    1.09
   2   5 -21   11.86    0.99
  -2  -5  21    9.24    1.28
   1   5 -21   19.84    1.29
  -1  -5  21   20.90    1.75
   0  -5  21   15.42    1.46
   1  -5  21   21.03    1.69
   2  -5  21   27.04    1.91
   3  -5  21    4.98    1.01
   4  -5  21   14.44    1.59
   4  -5  21   13.61    1.59
   8   4 -21   11.18    1.23
   7   4 -21    9.35    1.07
   6   4 -21   11.30    1.13
   5   4 -21    0.86    0.49
   4   4 -21    4.03    0.66
  -3  -4  21    3.96    0.93
   2   4 -21    0.38    0.43
  -2  -4  21    1.59    0.78
   1   4 -21    1.27    0.45
  -1  -4  21    0.97    0.74
   0  -4  21   -0.10    0.52
   1  -4  21    1.81    0.70
   2  -4  21    0.54    0.59
   3  -4  21    6.00    1.03
   4  -4  21   -0.33    0.58
   8   3 -21    4.45    0.86
   7   3 -21    0.78    0.53
   6   3 -21    2.32    0.66
   5   3 -21    0.92    0.52
   4   3 -21    0.96    0.50
  -4  -3  21    1.25    0.73
   3   3 -21    0.35    0.35
  -3  -3  21   -0.37    0.50
   2   3 -21    3.06    0.56
  -2  -3  21    1.82    0.79
   1   3 -21    5.42    0.67
  -1  -3  21    6.90    1.09
   0  -3  21    5.65    1.05
   1  -3  21   30.44    2.13
   2  -3  21   20.21    1.73
   3  -3  21    2.22    0.65
   4  -3  21    7.78    1.26
   8   2 -21   11.60    1.18
   7   2 -21   13.56    1.16
   6   2 -21    9.94    1.07
   5   2 -21    8.86    0.94
   4   2 -21    9.59    0.93
  -4  -2  21    9.28    1.35
   3   2 -21    5.91    0.72
  -3  -2  21    7.05    1.18
   2   2 -21   -0.20    0.32
  -2  -2  21   -0.55    0.56
   1   2 -21    2.35    0.48
  -1  -2  21    2.85    0.79
   0  -2  21    0.45    0.62
   1  -2  21    1.71    0.75
   2  -2  21    1.18    0.76
   3  -2  21    1.30    0.74
   4  -2  21    0.66    0.66
   8   1 -21    0.43    0.57
   7   1 -21    2.35    0.62
   6   1 -21    0.51    0.45
   5   1 -21    0.57    0.47
  -5  -1  21    0.92    0.68
   4   1 -21    0.29    0.43
  -4  -1  21    0.03    0.66
   3   1 -21    0.90    0.42
  -3  -1  21   -0.41    0.53
   2   1 -21    1.08    0.42
  -2  -1  21    0.73    0.63
   1   1 -21    6.17    0.66
  -1  -1  21    7.02    1.15
   0  -1  21   14.59    1.44
   1  -1  21    6.96    1.11
   2  -1  21    9.94    1.34
   3  -1  21   10.74    1.48
   4  -1  21   13.63    1.61
   8   0 -21   16.82    1.42
   7   0 -21   13.22    1.20
   6   0 -21   12.62    1.11
   5   0 -21    9.54    0.94
  -5   0  21    8.91    1.29
   4   0 -21   13.84    1.02
  -4   0  21   14.06    1.59
   3   0 -21   10.49    0.89
  -3   0  21   11.27    1.36
   2   0 -21   12.42    0.91
  -2   0  21   11.73    1.38
   1   0 -21   12.60    0.92
  -1   0  21   13.90    1.52
   0   0  21   -0.23    0.58
   1   0  21    3.85    0.91
   2   0  21    2.14    0.82
   3   0  21    0.91    0.75
   4   0  21    1.37    0.89
   8  -1 -21    2.42    0.73
   7  -1 -21    2.77    0.71
   6  -1 -21    3.24    0.71
   5  -1 -21   -0.20    0.43
  -5   1  21   -0.16    0.54
   4  -1 -21    0.65    0.42
  -4   1  21    0.61    0.63
   3  -1 -21   -0.09    0.36
  -3   1  21    1.05    0.70
   2  -1 -21    0.64    0.38
  -2   1  21    0.20    0.59
   1  -1 -21    1.13    0.43
  -1   1  21    0.98    0.75
   0   1  21   10.41    1.32
   1   1  21    4.96    1.00
   2   1  21   11.65    1.50
   3   1  21   16.92    1.81
   4   1  21   12.37    1.60
   8  -2 -21    6.51    0.91
   7  -2 -21   19.47    1.46
   6  -2 -21   24.33    1.59
   5  -2 -21   40.87    2.07
  -5   2  21   35.31    2.39
   4  -2 -21    5.05    0.70
  -4   2  21    3.44    0.89
   3  -2 -21    3.48    0.62
  -3   2  21    2.77    0.80
   2  -2 -21    6.05    0.72
  -2   2  21    5.57    1.03
  -1   2  21    5.91    1.03
   0   2  21    9.79    1.34
   1   2  21    1.34    0.74
   2   2  21   -0.59    0.66
   3   2  21    0.57    0.79
   4   2  21    0.98    0.81
   8  -3 -21   -0.34    0.51
   7  -3 -21    3.22    0.69
   6  -3 -21    3.67    0.72
  -6   3  21    4.23    1.03
   5  -3 -21    7.00    0.88
  -5   3  21    4.61    0.98
   4  -3 -21   10.03    0.91
  -4   3  21   11.03    1.38
   3  -3 -21    1.96    0.53
  -3   3  21    2.10    0.76
   2  -3 -21    0.37    0.38
  -2   3  21    0.56    0.64
  -1   3  21    3.63    0.88
   0   3  21    0.33    0.69
   1   3  21    0.82    0.68
   2   3  21    3.15    0.96
   3   3  21   13.81    1.69
   4   3  21   19.19    2.10
   8  -4 -21    5.61    0.94
   7  -4 -21    5.79    0.87
   6  -4 -21   22.06    1.50
  -6   4  21   23.77    1.95
   5  -4 -21   15.20    1.23
  -5   4  21   14.22    1.64
   4  -4 -21    7.87    0.86
   3  -4 -21   20.67    1.31
  -3   4  21   17.82    1.61
   2  -4 -21   11.64    0.98
  -2   4  21   13.34    1.48
  -1   4  21    7.52    1.18
   0   4  21    4.51    0.97
   1   4  21    6.00    1.14
   2   4  21   -0.49    0.70
   3   4  21    1.52    0.93
   7  -5 -21    2.37    0.73
   6  -5 -21    5.18    0.87
  -6   5  21    3.53    0.97
   5  -5 -21    2.72    0.65
  -5   5  21    2.65    0.88
  -4   5  21    4.37    0.96
   3  -5 -21    4.71    0.72
  -3   5  21    4.95    0.98
   2  -5 -21    0.24    0.41
  -2   5  21    0.85    0.69
  -1   5  21    0.93    0.63
   0   5  21   -0.06    0.57
   1   5  21    0.51    0.72
   2   5  21    0.16    0.74
   3   5  21    3.22    1.10
   7  -6 -21    9.09    1.16
   6  -6 -21   11.23    1.24
  -6   6  21    8.96    1.31
   5  -6 -21   10.56    1.15
  -5   6  21    5.70    1.12
  -4   6  21   21.60    1.75
   3  -6 -21   11.28    1.10
  -3   6  21    9.45    1.29
   2  -6 -21   26.23    1.61
  -2   6  21   27.67    2.06
  -1   6  21   18.60    1.69
   0   6  21   10.67    1.40
   1   6  21    2.06    0.86
   2   6  21   -0.09    0.64
   3   6  21    0.24    0.84
   7  -7 -21    2.15    0.81
   6  -7 -21    1.58    0.65
  -6   7  21    2.22    0.83
   5  -7 -21    1.74    0.65
  -5   7  21    0.96    0.72
  -4   7  21    2.16    0.83
   3  -7 -21    2.06    0.60
  -3   7  21    1.31    0.74
   2  -7 -21    1.45    0.56
  -2   7  21    1.56    0.72
  -1   7  21    1.21    0.71
   0   7  21    0.15    0.72
   1   7  21    2.41    0.94
   2   7  21    1.07    0.80
   6  -8 -21    4.01    0.83
  -6   8  21    3.03    0.90
   5  -8 -21   12.71    1.30
  -5   8  21    9.46    1.34
  -4   8  21    9.97    1.36
   3  -8 -21    6.60    0.91
  -3   8  21    8.01    1.18
   2  -8 -21   18.51    1.50
  -2   8  21   18.72    1.65
  -1   8  21   13.29    1.59
   0   8  21    3.69    1.03
   1   8  21   10.52    1.50
   2   8  21    5.60    1.18
   5  -9 -21    3.00    0.73
  -5   9  21    2.33    0.85
   4  -9 -21    0.07    0.33
  -4   9  21    1.62    0.76
   3  -9 -21    2.47    0.68
  -3   9  21    2.88    0.88
  -2   9  21    3.76    0.93
  -1   9  21    4.34    0.99
   0   9  21    0.91    0.76
   1   9  21    0.50    0.71
  -4  10  21   12.53    1.48
   3 -10 -21   14.22    1.39
  -3  10  21   15.71    1.53
  -2  10  21   13.11    1.54
  -1  10  21    6.67    1.22
   3  10 -22   14.56    1.42
   2  10 -22    0.14    0.33
   1  10 -22    2.82    0.74
   4   9 -22    1.45    0.75
   3   9 -22    0.99    0.70
   2   9 -22   -0.46    0.56
   1   9 -22   -0.64    0.52
   5   8 -22    9.27    1.14
   4   8 -22   17.83    1.45
   3   8 -22   10.90    1.15
   2   8 -22   15.67    1.35
   1   8 -22    6.02    0.86
  -1  -8  22    4.70    1.05
   0  -8  22    3.81    0.98
   1  -8  22    1.27    1.19
   6   7 -22   -0.25    0.51
   5   7 -22    0.00    0.53
   4   7 -22    1.66    0.68
   3   7 -22   -0.66    0.51
   2   7 -22    0.68    0.57
  -2  -7  22    1.22    0.74
   1   7 -22    0.51    0.54
  -1  -7  22    0.13    0.60
   0  -7  22   -0.58    0.63
   1  -7  22    1.43    0.79
   2  -7  22    1.19    1.19
   6   6 -22    9.88    1.11
   5   6 -22   22.76    1.52
   4   6 -22   22.22    1.52
   3   6 -22   15.19    1.18
   2   6 -22   17.27    1.24
  -2  -6  22   13.68    1.60
   1   6 -22   16.66    1.21
  -1  -6  22   14.72    1.49
   0  -6  22   13.79    1.54
   1  -6  22    0.58    0.68
   2  -6  22    2.56    0.86
   3  -6  22    1.88    1.25
   7   5 -22    0.29    0.54
   6   5 -22   -0.04    0.55
   5   5 -22    3.58    0.73
   4   5 -22    1.13    0.58
   3   5 -22   -0.24    0.20
  -3  -5  22    0.36    0.63
   2   5 -22    0.18    0.46
  -2  -5  22    0.05    0.69
   1   5 -22    0.24    0.44
  -1  -5  22    0.55    0.62
   0  -5  22    0.11    0.57
   1  -5  22    0.46    0.64
   2  -5  22    0.07    0.62
   3  -5  22    3.11    0.96
   7   4 -22    1.03    0.55
   6   4 -22    6.44    0.88
   5   4 -22   13.90    1.19
   4   4 -22   15.33    1.20
   3   4 -22   13.54    1.08
  -3  -4  22   15.61    1.56
   2   4 -22   19.70    1.27
  -2  -4  22   18.75    1.70
   1   4 -22   20.48    1.26
  -1  -4  22   22.77    1.86
   0  -4  22   25.21    1.96
   1  -4  22    7.90    1.16
   2  -4  22    1.61    0.72
   3  -4  22    7.31    1.20
   7   3 -22    0.81    0.62
   6   3 -22    1.24    0.58
   5   3 -22    0.29    0.46
   4   3 -22    2.25    0.59
  -4  -3  22    3.64    1.01
   3   3 -22    1.41    0.52
  -3  -3  22    1.03    0.79
   2   3 -22    2.74    0.58
  -2  -3  22    3.37    0.90
   1   3 -22    0.54    0.40
  -1  -3  22    0.97    0.77
   0  -3  22    0.31    0.70
   1  -3  22    0.54    0.64
   2  -3  22   -0.35    0.65
   3  -3  22    0.09    0.38
   7   2 -22    1.33    0.58
   6   2 -22    3.93    0.75
   5   2 -22   15.92    1.24
   4   2 -22   11.19    1.01
  -4  -2  22   12.32    1.57
   3   2 -22   14.05    1.04
  -3  -2  22   12.37    1.51
   2   2 -22   17.25    1.12
  -2  -2  22   16.53    1.65
   1   2 -22   19.26    1.58
  -1  -2  22   21.01    1.79
   0  -2  22    9.23    1.28
   1  -2  22   12.15    1.45
   2  -2  22    5.76    1.12
   3  -2  22    5.19    1.06
   7   1 -22    3.58    0.73
   6   1 -22    0.64    0.49
   5   1 -22    0.17    0.43
  -5  -1  22   -0.75    0.64
   4   1 -22    0.23    0.43
  -4  -1  22    0.27    0.71
   3   1 -22    7.31    0.81
  -3  -1  22    8.38    1.30
   2   1 -22    1.74    0.48
  -2  -1  22    1.81    0.77
  -1  -1  22    3.01    0.85
   0  -1  22    2.41    0.82
   1  -1  22    0.32    0.67
   2  -1  22    2.61    0.90
   3  -1  22   -0.64    0.56
   7   0 -22    2.90    0.70
   6   0 -22    3.95    0.76
   5   0 -22    9.07    0.92
  -5   0  22    6.78    1.18
   4   0 -22    4.83    0.73
  -4   0  22    5.26    1.06
   3   0 -22   16.31    1.11
  -3   0  22   15.42    1.55
   2   0 -22   35.21    1.81
  -2   0  22   39.68    2.44
  -1   0  22   19.28    1.67
   0   0  22   26.76    1.99
   1   0  22   13.47    1.56
   2   0  22    8.24    1.30
   3   0  22    8.76    1.32
   7  -1 -22    2.43    0.71
   6  -1 -22    0.38    0.52
   5  -1 -22   -0.30    0.43
  -5   1  22    0.37    0.66
   4  -1 -22    1.13    0.41
  -4   1  22    0.76    0.72
   3  -1 -22    0.57    0.43
  -3   1  22   -0.64    0.51
   2  -1 -22   -0.18    0.34
  -2   1  22    0.04    0.67
  -1   1  22    2.35    0.85
   0   1  22    0.49    0.71
   1   1  22    1.55    0.76
   2   1  22    0.52    0.68
   3   1  22    0.83    0.76
   7  -2 -22    0.23    0.54
   6  -2 -22    3.58    0.71
   5  -2 -22    0.73    0.51
  -5   2  22    1.19    0.71
  -4   2  22    4.32    0.96
   3  -2 -22   22.49    1.37
  -3   2  22   21.03    1.77
   2  -2 -22   13.96    1.04
  -2   2  22   15.24    1.50
  -1   2  22   27.37    2.03
   0   2  22   24.72    1.91
   1   2  22   18.46    1.70
   2   2  22   17.84    1.73
   3   2  22   13.62    1.67
   7  -3 -22    5.63    0.94
   6  -3 -22    4.93    0.81
  -6   3  22    4.67    1.05
   5  -3 -22    1.40    0.51
  -5   3  22    0.66    0.68
   4  -3 -22    0.44    0.20
  -4   3  22    0.81    0.74
   3  -3 -22    2.29    0.55
  -3   3  22    1.91    0.75
   2  -3 -22    0.60    0.40
  -2   3  22    0.02    0.63
  -1   3  22    0.65    0.69
   0   3  22    8.85    1.31
   1   3  22    1.73    0.89
   2   3  22    0.72    0.82
   3   3  22   -0.28    0.80
   7  -4 -22   -0.27    0.46
   6  -4 -22    0.66    0.56
  -6   4  22    0.60    0.67
   5  -4 -22    0.25    0.49
  -5   4  22   -0.52    0.53
   4  -4 -22    1.47    0.42
  -4   4  22    1.98    0.79
   3  -4 -22    4.00    0.68
  -3   4  22    3.70    0.98
   2  -4 -22    4.49    0.67
  -2   4  22    4.29    0.94
  -1   4  22   19.97    1.72
   0   4  22    9.47    1.36
   1   4  22    7.08    1.22
   2   4  22   13.00    1.63
   3   4  22   16.47    1.90
   7  -5 -22    6.82    1.03
   6  -5 -22    7.77    1.03
  -6   5  22    6.22    1.15
   5  -5 -22    5.28    0.79
  -5   5  22    3.75    1.00
   4  -5 -22    0.23    0.41
  -4   5  22    1.48    0.76
   3  -5 -22    0.84    0.47
  -3   5  22   -1.03    0.58
   2  -5 -22    0.21    0.44
  -2   5  22    0.91    0.75
  -1   5  22    1.16    0.76
   0   5  22    1.48    0.78
   1   5  22    6.48    1.19
   2   5  22    3.83    1.07
   6  -6 -22    0.97    0.62
  -6   6  22    0.05    0.71
   5  -6 -22    0.24    0.54
  -5   6  22    0.78    0.67
   4  -6 -22    2.11    0.63
  -4   6  22    3.65    0.95
   3  -6 -22   -0.18    0.43
  -3   6  22   -0.35    0.62
  -2   6  22    6.18    1.19
  -1   6  22   20.41    1.77
   0   6  22   11.00    1.47
   1   6  22    5.91    1.20
   2   6  22    6.61    1.31
   6  -7 -22    5.74    0.97
  -6   7  22    4.62    1.10
   5  -7 -22    2.72    0.69
  -5   7  22    1.47    0.80
   4  -7 -22    3.43    0.76
  -4   7  22    3.34    0.99
   3  -7 -22    2.89    0.68
  -3   7  22    2.17    0.82
  -2   7  22    0.92    0.68
  -1   7  22    0.54    0.77
   0   7  22    0.06    0.72
   1   7  22    1.16    0.77
   5  -8 -22    1.22    0.65
  -5   8  22    0.34    0.72
   4  -8 -22    0.54    0.59
  -4   8  22    0.61    0.70
   3  -8 -22    0.47    0.54
  -3   8  22    0.86    0.74
  -2   8  22    1.22    0.73
  -1   8  22    7.20    1.25
   0   8  22   19.18    1.87
   4  -9 -22    1.33    0.64
  -4   9  22    2.05    0.87
   3  -9 -22    0.55    0.55
  -3   9  22    1.45    0.72
  -2   9  22    0.07    0.69
  -1   9  22    0.29    0.75
   2   9 -23    0.17    0.64
   1   9 -23    2.85    0.76
   4   8 -23    4.75    0.91
   3   8 -23    3.94    0.82
   2   8 -23    4.08    0.79
   1   8 -23    0.85    0.58
  -1  -8  23    1.56    0.84
   0  -8  23    9.70    1.38
   5   7 -23    9.23    1.11
   4   7 -23    1.77    0.65
   3   7 -23    0.48    0.49
   2   7 -23   -0.13    0.49
  -2  -7  23    0.75    0.73
   1   7 -23    0.27    0.60
  -1  -7  23    0.46    0.74
   0  -7  23    3.45    0.98
   1  -7  23    0.23    0.69
   5   6 -23   -0.01    0.50
   4   6 -23    1.35    0.61
   3   6 -23    0.44    0.34
   2   6 -23    5.07    0.77
  -2  -6  23    6.14    1.20
  -1  -6  23    2.52    0.93
   0  -6  23    2.47    0.87
   1  -6  23   24.46    1.99
   2  -6  23   15.17    1.68
   6   5 -23    8.14    1.05
   5   5 -23    8.88    1.03
   4   5 -23    5.30    0.81
   3   5 -23    5.43    0.77
  -3  -5  23    5.98    1.16
   2   5 -23    5.15    0.74
  -2  -5  23    5.53    1.09
  -1  -5  23   -0.46    0.56
   0  -5  23   -0.05    0.74
   1  -5  23    1.67    0.75
   2  -5  23    0.83    0.72
   6   4 -23    1.71    0.67
   5   4 -23    0.90    0.56
   4   4 -23    0.62    0.53
   3   4 -23    0.39    0.50
  -3  -4  23    0.40    0.74
   2   4 -23    2.53    0.58
  -2  -4  23    3.07    0.95
  -1  -4  23    4.46    1.05
   0  -4  23    6.96    1.16
   1  -4  23    9.53    1.32
   2  -4  23    2.15    0.64
   6   3 -23    8.34    1.01
   5   3 -23    5.32    0.81
   4   3 -23    8.98    0.92
  -4  -3  23    9.83    1.47
   3   3 -23    7.43    0.82
  -3  -3  23    7.53    1.29
   2   3 -23    0.48    0.43
  -2  -3  23    2.23    0.84
  -1  -3  23    5.10    1.08
   0  -3  23   -0.26    0.59
   1  -3  23    1.72    0.72
   2  -3  23    0.43    0.65
   7   2 -23    0.05    0.48
   6   2 -23    3.16    0.70
   5   2 -23    1.06    0.51
   4   2 -23    0.17    0.48
  -4  -2  23    0.50    0.84
   3   2 -23    0.70    0.47
  -3  -2  23    0.86    0.79
   2   2 -23    0.29    0.39
  -2  -2  23    0.05    0.71
  -1  -2  23    3.30    0.91
   0  -2  23    9.63    1.40
   1  -2  23    5.83    1.19
   2  -2  23    4.47    1.08
   7   1 -23   12.03    1.21
   6   1 -23    4.67    0.78
   5   1 -23    7.87    0.93
  -5  -1  23    8.84    1.36
   4   1 -23   13.97    1.10
  -4  -1  23   21.49    1.90
   3   1 -23    7.81    0.83
  -3  -1  23    7.65    1.28
   2   1 -23    8.67    0.86
  -2  -1  23   11.91    1.50
  -1  -1  23    3.69    1.00
   0  -1  23   -0.69    0.52
   1  -1  23    0.27    0.76
   2  -1  23   -0.27    0.73
   3  -1  23    0.09    0.79
   7   0 -23    5.79    0.92
   6   0 -23    0.95    0.58
   5   0 -23    0.16    0.47
  -5   0  23   -0.20    0.66
   4   0 -23    0.39    0.20
  -4   0  23   -0.78    0.55
   3   0 -23    0.44    0.43
  -3   0  23    0.91    0.77
   2   0 -23    1.53    0.47
  -2   0  23    0.99    0.79
  -1   0  23    1.26    0.76
   0   0  23    1.66    0.86
   1   0  23    2.41    0.94
   2   0  23    5.30    1.22
   7  -1 -23    9.48    1.11
   6  -1 -23   16.57    1.29
   5  -1 -23   22.81    1.47
  -5   1  23   17.20    1.91
  -4   1  23   13.14    1.58
   3  -1 -23    7.26    0.82
  -3   1  23    7.85    1.26
   2  -1 -23   16.84    1.14
  -2   1  23   16.76    1.64
  -1   1  23   10.66    1.43
   0   1  23    2.31    0.83
   1   1  23    1.44    0.79
   2   1  23    1.40    0.93
   7  -2 -23    0.59    0.54
   6  -2 -23    5.44    0.85
   5  -2 -23    3.10    0.69
  -5   2  23    2.73    0.91
   4  -2 -23    4.74    0.71
  -4   2  23    6.94    1.20
   3  -2 -23    2.42    0.54
  -3   2  23    1.70    0.77
   2  -2 -23    0.35    0.44
  -2   2  23   -0.11    0.62
  -1   2  23   -0.64    0.63
   0   2  23    1.57    0.79
   1   2  23    2.01    0.86
   2   2  23    4.21    1.14
   7  -3 -23    4.12    0.86
   6  -3 -23   11.85    1.22
  -6   3  23   12.53    1.63
   5  -3 -23   13.36    1.19
  -5   3  23   12.14    1.60
   4  -3 -23    6.03    0.81
  -4   3  23    5.38    1.09
   3  -3 -23   20.44    1.34
  -3   3  23   19.39    1.82
  -2   3  23   15.54    1.57
  -1   3  23    6.89    1.26
   0   3  23    6.81    1.19
   1   3  23    4.66    1.15
   2   3  23    4.00    1.07
   6  -4 -23    0.21    0.56
  -6   4  23    1.35    0.86
   5  -4 -23    3.80    0.72
  -5   4  23    3.92    1.00
   4  -4 -23    7.79    0.96
  -4   4  23    5.25    1.17
   3  -4 -23    0.65    0.47
  -3   4  23    0.01    0.63
  -2   4  23    4.77    1.11
  -1   4  23   -0.50    0.57
   0   4  23    1.87    0.91
   1   4  23   -0.01    0.72
   2   4  23    3.15    1.06
   6  -5 -23   12.15    1.30
  -6   5  23    9.67    1.43
   5  -5 -23    6.22    0.94
  -5   5  23    5.52    1.11
   4  -5 -23   11.92    1.19
  -4   5  23   10.14    1.46
   3  -5 -23   18.56    1.36
  -3   5  23   17.05    1.83
  -2   5  23   17.62    1.72
  -1   5  23    8.01    1.28
   0   5  23    4.02    1.07
   1   5  23    3.47    0.97
   5  -6 -23    0.45    0.56
  -5   6  23    1.31    0.83
   4  -6 -23    1.45    0.60
  -4   6  23    0.65    0.70
   3  -6 -23    3.09    0.69
  -3   6  23    3.40    0.94
  -2   6  23    0.20    0.73
  -1   6  23    3.69    0.98
   0   6  23    4.26    1.05
   1   6  23    0.79    0.87
   5  -7 -23    4.51    0.83
  -5   7  23    4.06    1.05
   4  -7 -23    7.66    1.00
  -4   7  23    7.02    1.27
   3  -7 -23   11.76    1.17
  -3   7  23   11.31    1.53
  -2   7  23   22.26    1.98
  -1   7  23   19.25    1.77
   0   7  23    5.37    1.20
   3  -8 -23    0.60    0.65
  -3   8  23    0.87    0.81
  -2   8  23    1.54    0.87
   3   7 -24    4.92    0.75
   2   7 -24    6.19    0.91
  -2  -7  24    6.76    1.31
  -1  -7  24    3.31    0.92
   4   6 -24    0.29    0.58
   3   6 -24    0.04    0.51
   2   6 -24    2.80    0.68
  -2  -6  24    3.09    1.04
  -1  -6  24    3.07    1.02
   0  -6  24    0.39    0.65
   5   5 -24    8.11    1.02
   4   5 -24   10.25    1.07
   3   5 -24   18.75    1.35
  -3  -5  24   18.03    2.00
   2   5 -24   12.67    1.13
  -2  -5  24   12.51    1.65
  -1  -5  24    6.11    1.18
   0  -5  24   16.90    1.67
   1  -5  24    2.55    0.74
   5   4 -24    0.16    0.53
   4   4 -24    0.64    0.48
   3   4 -24    0.02    0.44
  -3  -4  24   -0.35    0.73
   2   4 -24   -0.57    0.38
  -2  -4  24    0.49    0.80
  -1  -4  24    4.81    1.07
   0  -4  24    2.24    0.92
   1  -4  24    0.39    0.77
   6   3 -24    2.38    0.69
   5   3 -24    5.13    0.83
   4   3 -24    4.73    0.74
  -4  -3  24    7.43    1.32
   3   3 -24   18.04    1.29
  -3  -3  24   21.05    1.89
   2   3 -24    7.57    0.83
  -2  -3  24    7.07    1.27
  -1  -3  24   12.67    1.57
   0  -3  24    9.29    1.35
   1  -3  24   13.45    1.63
   6   2 -24    0.21    0.55
   5   2 -24    0.31    0.52
   4   2 -24    0.76    0.33
  -4  -2  24    1.91    0.90
   3   2 -24    0.46    0.45
  -3  -2  24   -0.41    0.63
   2   2 -24    1.11    0.48
  -2  -2  24    0.98    0.83
  -1  -2  24    5.10    1.14
   0  -2  24    0.46    0.82
   1  -2  24    0.11    0.69
   6   1 -24    2.39    0.67
   5   1 -24    1.63    0.53
  -5  -1  24    1.02    0.83
  -4  -1  24    9.61    1.44
   3   1 -24    4.34    0.67
  -3  -1  24    7.05    1.25
  -2  -1  24   17.23    1.88
  -1  -1  24   13.52    1.64
   0  -1  24   17.88    1.80
   1  -1  24   12.87    1.61
   6   0 -24    1.67    0.64
   5   0 -24    1.01    0.57
  -5   0  24   -0.21    0.69
   4   0 -24    1.71    0.56
  -4   0  24    1.44    0.90
   3   0 -24    0.19    0.43
  -3   0  24    0.15    0.79
  -2   0  24    0.62    0.76
  -1   0  24    1.32    0.81
   0   0  24    0.53    0.80
   1   0  24    0.74    0.80
   6  -1 -24    0.80    0.54
   5  -1 -24    8.24    0.98
  -5   1  24    7.29    1.29
   4  -1 -24    4.51    0.74
  -4   1  24    6.87    1.26
   3  -1 -24    9.60    0.97
  -3   1  24    9.10    1.40
  -2   1  24   14.30    1.73
  -1   1  24   18.44    1.83
   0   1  24   18.84    1.98
   1   1  24    7.87    1.31
   6  -2 -24    1.40    0.62
   5  -2 -24    6.16    0.86
  -5   2  24    4.70    1.11
   4  -2 -24    0.93    0.52
  -4   2  24    0.71    0.81
   3  -2 -24    0.28    0.41
  -3   2  24    0.51    0.76
  -2   2  24    0.44    0.73
  -1   2  24    1.16    0.84
   0   2  24    0.53    0.79
   1   2  24    1.69    0.89
   6  -3 -24    0.42    0.56
  -6   3  24   -0.46    0.60
   5  -3 -24    1.05    0.55
  -5   3  24   -0.26    0.73
   4  -3 -24    2.78    0.65
  -4   3  24    2.13    0.86
   3  -3 -24    1.22    0.52
  -3   3  24    1.33    0.83
  -2   3  24    6.11    1.17
  -1   3  24    9.34    1.39
   0   3  24    8.65    1.38
   1   3  24   17.88    1.97
   5  -4 -24    5.04    0.84
  -5   4  24    3.52    1.08
   4  -4 -24    3.09    0.69
  -4   4  24    2.38    0.95
   3  -4 -24   -0.52    0.40
  -3   4  24    0.33    0.74
  -2   4  24    1.92    0.89
  -1   4  24    0.45    0.78
   0   4  24    0.70    0.80
   5  -5 -24   -0.22    0.49
  -5   5  24    0.04    0.75
   4  -5 -24    0.46    0.52
  -4   5  24   -0.19    0.76
   3  -5 -24    2.52    0.65
  -3   5  24    1.78    0.88
  -2   5  24    0.84    0.80
  -1   5  24    3.52    1.07
   0   5  24   13.14    1.72
   4  -6 -24    6.34    0.94
  -4   6  24    6.52    1.22
  -3   6  24    5.13    1.16
  -2   6  24    0.10    0.62
  -1   6  24   -0.30    0.61
   3   5 -25    0.16    0.53
  -3  -5  25   -0.17    0.74
  -2  -5  25   -0.97    0.72
   4   4 -25   11.84    1.06
   3   4 -25    4.85    0.78
  -3  -4  25    5.25    1.19
  -2  -4  25    1.10    0.92
  -1  -4  25    0.39    0.82
   4   3 -25    0.26    0.24
  -4  -3  25   -0.48    0.72
   3   3 -25    0.69    0.51
  -3  -3  25    0.09    0.75
  -2  -3  25   -0.56    0.65
  -1  -3  25    2.19    0.93
   0  -3  25    3.93    1.04
   4   2 -25   10.52    1.05
  -4  -2  25   15.73    1.83
   3   2 -25   16.17    1.24
  -3  -2  25   16.62    1.87
  -2  -2  25    7.75    1.35
  -1  -2  25    1.30    0.92
   0  -2  25    1.14    0.90
   5   1 -25    0.72    0.56
  -5  -1  25    0.05    0.84
   4   1 -25    0.17    0.48
  -4  -1  25   -0.17    0.83
   3   1 -25    1.95    0.53
  -3  -1  25    1.19    0.83
  -2  -1  25    0.37    0.74
  -1  -1  25   -1.01    0.68
   0  -1  25    0.74    0.85
   5   0 -25   10.34    1.07
  -5   0  25   11.93    1.63
   4   0 -25   20.08    1.39
  -4   0  25   17.90    2.01
   3   0 -25    5.33    0.74
  -3   0  25    5.85    1.27
  -2   0  25   10.48    1.56
  -1   0  25    8.34    1.37
   0   0  25    1.11    0.81
   5  -1 -25    4.02    0.78
  -5   1  25    3.60    1.14
   4  -1 -25    4.51    0.76
  -4   1  25    2.46    0.97
   3  -1 -25    1.14    0.50
  -3   1  25    0.96    0.84
  -2   1  25    0.17    0.86
  -1   1  25    0.27    0.80
   0   1  25   -0.97    0.62
   4  -2 -25   12.68    1.11
  -4   2  25   10.83    1.61
   3  -2 -25   14.03    1.22
  -3   2  25   14.37    1.77
  -2   2  25   15.12    1.77
  -1   2  25    6.63    1.25
   4  -3 -25    3.23    0.69
  -4   3  25    2.45    0.94
  -3   3  25    1.23    0.82
  -2   3  25   -0.26    0.65
  -1   3  25    0.80    0.75
  -3   4  25   17.35    1.75
  -2   4  25    9.76    1.51
   0   0   0    0.00    0.00
;
_shelx_hkl_checksum              22439
loop_
_space_group_symop_operation_xyz
'x, y, z'
'-x, -y, -z'
loop_
_atom_site_label
_atom_site_type_symbol
_atom_site_fract_x
_atom_site_fract_y
_atom_site_fract_z
_atom_site_U_iso_or_equiv
_atom_site_adp_type
_atom_site_occupancy
_atom_site_site_symmetry_order
_atom_site_calc_flag
_atom_site_refinement_flags_posn
_atom_site_refinement_flags_adp
_atom_site_refinement_flags_occupancy
_atom_site_disorder_assembly
_atom_site_disorder_group
Cd1 Cd 0.95981(3) 1.02052(2) 1.27183(2) 0.02406(9) Uani 1 1 d . . . . .
Cd2 Cd 0.0000 0.5000 1.0000 0.03086(11) Uani 1 2 d S . P . .
N1 N 0.7845(3) 0.9680(2) 1.17891(15) 0.0334(7) Uani 1 1 d . . . . .
N2 N 0.6580(3) 0.8994(2) 1.08237(14) 0.0328(7) Uani 1 1 d . . . . .
N3 N 0.2111(4) 0.5470(2) 0.96044(15) 0.0370(7) Uani 1 1 d . . . . .
N4 N 0.4042(3) 0.6378(2) 0.94616(15) 0.0350(7) Uani 1 1 d . . . . .
N5 N 0.8509(3) 0.91339(19) 0.77785(15) 0.0297(6) Uani 1 1 d . . . . .
N6 N 0.6971(3) 0.8621(2) 0.84331(14) 0.0306(7) Uani 1 1 d . . . . .
N7 N 0.7949(8) 0.9176(5) 1.4461(3) 0.0533(19) Uani 0.6 1 d D . P A 1
O1 O -0.1602(3) 0.52699(18) 0.89670(12) 0.0429(7) Uani 1 1 d . . . . .
O2 O -0.0851(3) 0.67361(18) 0.89670(13) 0.0448(7) Uani 1 1 d . . . . .
O3 O -0.0189(3) 0.13819(17) 0.35219(14) 0.0421(6) Uani 1 1 d . . . . .
O4 O -0.2078(3) 0.15518(18) 0.26364(14) 0.046 Uani 1 1 d . . . . .
O5 O -0.8510(4) 0.87443(19) 0.23842(15) 0.0589(9) Uani 1 1 d . . . . .
O6 O -0.8664(3) 0.94224(19) 0.33649(14) 0.0452(7) Uani 1 1 d . . . . .
O7 O 0.7834(3) 0.9460(2) 1.33410(15) 0.0563(8) Uani 1 1 d . . . . .
O1W O 0.0457(3) 0.34899(18) 0.96595(14) 0.0488(7) Uani 1 1 d . . . . .
H1WA H -0.0412 0.3241 0.9322 0.073 Uiso 1 1 d R U . . .
H1WB H 0.0602 0.3123 1.0055 0.073 Uiso 1 1 d R U . . .
O2W O 0.3562(4) 0.6404(2) 0.13258(16) 0.0625(9) Uani 1 1 d . . . . .
H2WA H 0.2834 0.5886 0.1202 0.075 Uiso 1 1 d R U . . .
H2WB H 0.4613 0.6351 0.1680 0.075 Uiso 1 1 d R U . . .
O3W O 0.1710(4) 0.7818(2) 0.11764(16) 0.0720(10) Uani 1 1 d D . . . .
H3WA H 0.2534 0.7357 0.1291 0.086 Uiso 1 1 d R U . . .
H3WB H 0.1639 0.8069 0.1554 0.086 Uiso 1 1 d DR U . . .
O4W O 0.1691(4) 0.7955(2) 0.87753(18) 0.0755(10) Uani 1 1 d . . . . .
H4WB H 0.0973 0.7439 0.8737 0.091 Uiso 1 1 d DR U . . .
H4WA H 0.1878 0.8083 0.8382 0.091 Uiso 1 1 d DR U . . .
O5W O 0.1704(6) 0.9020(3) 1.0016(3) 0.1169(17) Uani 1 1 d D . . . .
H5WA H 0.1797 0.8655 0.9692 0.140 Uiso 1 1 d DR U . . .
H5WB H 0.1348 0.8604 1.0236 0.140 Uiso 1 1 d DR U . . .
C1 C 0.6831(4) 0.8806(2) 0.96325(18) 0.0328(8) Uani 1 1 d . . . . .
H1 H 0.7428 0.9349 0.9670 0.039 Uiso 1 1 calc R U . . .
C2 C 0.6265(4) 0.8482(2) 1.01876(18) 0.0336(8) Uani 1 1 d . . . . .
C3 C 0.5366(4) 0.7678(2) 1.01364(18) 0.0346(8) Uani 1 1 d . . . . .
H3 H 0.5002 0.7469 1.0514 0.042 Uiso 1 1 calc R U . . .
C4 C 0.5019(4) 0.7189(2) 0.95103(18) 0.0327(8) Uani 1 1 d . . . . .
C5 C 0.5565(4) 0.7486(2) 0.89493(18) 0.0333(8) Uani 1 1 d . . . . .
H5 H 0.5330 0.7154 0.8532 0.040 Uiso 1 1 calc R U . . .
C6 C 0.6472(4) 0.8290(2) 0.90227(18) 0.0308(8) Uani 1 1 d . . . . .
C7 C 0.7967(4) 0.9294(2) 1.12041(18) 0.0349(8) Uani 1 1 d . . . . .
H7 H 0.8890 0.9232 1.1068 0.042 Uiso 1 1 calc R U . . .
C8 C 0.6301(5) 0.9632(3) 1.1787(2) 0.0450(10) Uani 1 1 d . . . . .
H8 H 0.5872 0.9854 1.2141 0.054 Uiso 1 1 calc R U . . .
C9 C 0.5503(4) 0.9217(3) 1.1198(2) 0.0472(11) Uani 1 1 d . . . . .
H9 H 0.4445 0.9103 1.1069 0.057 Uiso 1 1 calc R U . . .
C10 C 0.2768(4) 0.6286(2) 0.97112(18) 0.0338(8) Uani 1 1 d . . . . .
H10 H 0.2392 0.6752 0.9936 0.041 Uiso 1 1 calc R U . . .
C11 C 0.3025(6) 0.5008(3) 0.9265(3) 0.0691(15) Uani 1 1 d . . . . .
H11 H 0.2852 0.4402 0.9122 0.083 Uiso 1 1 calc R U . . .
C12 C 0.4211(6) 0.5559(3) 0.9169(3) 0.0753(17) Uani 1 1 d . . . . .
H12 H 0.4988 0.5412 0.8947 0.090 Uiso 1 1 calc R U . . .
C13 C 0.8419(4) 0.8925(2) 0.84038(18) 0.0301(8) Uani 1 1 d . . . . .
H13 H 0.9241 0.8978 0.8780 0.036 Uiso 1 1 calc R U . . .
C14 C 0.7055(4) 0.8960(2) 0.73832(18) 0.0358(8) Uani 1 1 d . . . . .
H14 H 0.6775 0.9051 0.6914 0.043 Uiso 1 1 calc R U . . .
C15 C 0.6098(4) 0.8641(2) 0.77742(18) 0.0359(8) Uani 1 1 d . . . . .
H15 H 0.5060 0.8468 0.7630 0.043 Uiso 1 1 calc R U . . .
C16 C -0.1422(4) 0.6004(3) 0.86687(18) 0.0337(8) Uani 1 1 d . . . . .
C17 C -0.1891(4) 0.5961(2) 0.78944(17) 0.0285(7) Uani 1 1 d . . . . .
C18 C -0.2451(4) 0.5151(2) 0.75288(18) 0.0360(8) Uani 1 1 d . . . . .
H18 H -0.2611 0.4634 0.7766 0.043 Uiso 1 1 calc R U . . .
C19 C -0.2768(4) 0.5111(2) 0.68189(18) 0.0327(8) Uani 1 1 d . . . . .
H19 H -0.3125 0.4564 0.6583 0.039 Uiso 1 1 calc R U . . .
C20 C -0.2563(4) 0.5875(2) 0.64482(16) 0.0256(7) Uani 1 1 d . . . . .
C21 C -0.2046(4) 0.6688(2) 0.68124(17) 0.0318(8) Uani 1 1 d . . . . .
H21 H -0.1926 0.7209 0.6575 0.038 Uiso 1 1 calc R U . . .
C22 C -0.1709(4) 0.6729(2) 0.75232(17) 0.0327(8) Uani 1 1 d . . . . .
H22 H -0.1355 0.7277 0.7758 0.039 Uiso 1 1 calc R U . . .
C23 C -0.2913(4) 0.5808(2) 0.56813(16) 0.0245(7) Uani 1 1 d . . . . .
C24 C -0.2535(4) 0.5057(2) 0.53353(17) 0.0281(7) Uani 1 1 d . . . . .
H24 H -0.2036 0.4606 0.5588 0.034 Uiso 1 1 calc R U . . .
C25 C -0.2886(4) 0.4966(2) 0.46210(16) 0.0249(7) Uani 1 1 d . . . . .
C26 C -0.3637(4) 0.5647(2) 0.42521(17) 0.0274(7) Uani 1 1 d . . . . .
H26 H -0.3852 0.5601 0.3773 0.033 Uiso 1 1 calc R U . . .
C27 C -0.4076(4) 0.6395(2) 0.45837(16) 0.0258(7) Uani 1 1 d . . . . .
C28 C -0.3675(4) 0.6476(2) 0.53003(16) 0.0264(7) Uani 1 1 d . . . . .
H28 H -0.3920 0.6984 0.5528 0.032 Uiso 1 1 calc R U . . .
C29 C -0.2483(4) 0.4152(2) 0.42684(17) 0.0259(7) Uani 1 1 d . . . . .
C30 C -0.3429(4) 0.3778(2) 0.36625(19) 0.0353(9) Uani 1 1 d . . . . .
H30 H -0.4339 0.4036 0.3483 0.042 Uiso 1 1 calc R U . . .
C31 C -0.3035(4) 0.3034(2) 0.33269(19) 0.0371(9) Uani 1 1 d . . . . .
H31 H -0.3671 0.2809 0.2917 0.045 Uiso 1 1 calc R U . . .
C32 C -0.1715(4) 0.2614(2) 0.35869(18) 0.0299(8) Uani 1 1 d . . . . .
C33 C -0.0774(4) 0.2973(2) 0.41961(18) 0.0344(8) Uani 1 1 d . . . . .
H33 H 0.0117 0.2700 0.4383 0.041 Uiso 1 1 calc R U . . .
C34 C -0.1152(4) 0.3732(2) 0.45260(18) 0.0315(8) Uani 1 1 d . . . . .
H34 H -0.0501 0.3966 0.4929 0.038 Uiso 1 1 calc R U . . .
C35 C -0.1298(4) 0.1792(2) 0.3221(2) 0.0357(9) Uani 1 1 d . . . . .
C36 C -0.5037(4) 0.7065(2) 0.41882(17) 0.0265(7) Uani 1 1 d . . . . .
C37 C -0.5021(4) 0.7210(3) 0.35010(19) 0.0395(9) Uani 1 1 d . . . . .
H37 H -0.4345 0.6913 0.3290 0.047 Uiso 1 1 calc R U . . .
C38 C -0.5994(5) 0.7791(3) 0.31226(19) 0.0393(9) Uani 1 1 d . . . . .
H38 H -0.5971 0.7869 0.2662 0.047 Uiso 1 1 calc R U . . .
C39 C -0.6997(4) 0.8256(2) 0.34222(18) 0.0322(8) Uani 1 1 d . . . . .
C40 C -0.7001(5) 0.8119(3) 0.4108(2) 0.0411(9) Uani 1 1 d . . . . .
H40 H -0.7654 0.8430 0.4322 0.049 Uiso 1 1 calc R U . . .
C41 C -0.6053(4) 0.7529(3) 0.44803(19) 0.0379(9) Uani 1 1 d . . . . .
H41 H -0.6099 0.7441 0.4938 0.045 Uiso 1 1 calc R U . . .
C42 C -0.8137(4) 0.8850(2) 0.3019(2) 0.0366(9) Uani 1 1 d . . . . .
C43 C 0.7396(8) 0.9651(5) 1.3877(4) 0.0420(18) Uani 0.6 1 d D . P A 1
C44 C 0.6278(8) 1.0319(4) 1.3980(3) 0.097(2) Uani 1 1 d D . . . .
H44A H 0.5434 1.0016 1.4132 0.146 Uiso 1 1 calc R U . A 1
H44B H 0.5907 1.0597 1.3553 0.146 Uiso 1 1 calc R U . A 1
H44C H 0.6774 1.0773 1.4321 0.146 Uiso 1 1 calc R U . A 1
C45 C 0.7394(8) 0.9312(5) 1.5094(2) 0.096(2) Uani 1 1 d D . . . .
H45A H 0.7191 0.9934 1.5148 0.145 Uiso 1 1 calc R U . A 1
H45B H 0.8156 0.9155 1.5480 0.145 Uiso 1 1 calc R U . A 1
H45C H 0.6468 0.8936 1.5072 0.145 Uiso 1 1 calc R U . A 1
C46 C 0.8966(7) 0.8473(4) 1.4344(3) 0.104 Uani 1 1 d D . . . .
H46A H 0.8505 0.7891 1.4414 0.156 Uiso 1 1 calc R U . A 1
H46B H 0.9934 0.8577 1.4662 0.156 Uiso 1 1 calc R U . A 1
H46C H 0.9123 0.8492 1.3881 0.156 Uiso 1 1 calc R U . A 1
C47 C 0.7281(10) 0.6455(5) 0.2285(4) 0.0483(19) Uani 0.6 1 d D . P B 1
C48 C 0.7477(8) 0.7410(4) 0.2128(4) 0.096(2) Uani 0.6 1 d D . P B 1
H48A H 0.6507 0.7619 0.1911 0.144 Uiso 0.6 1 d R U P B 1
H48B H 0.7879 0.7757 0.2549 0.144 Uiso 0.6 1 d R U P B 1
H48C H 0.8180 0.7479 0.1824 0.144 Uiso 0.6 1 d R U P B 1
C49 C 0.8437(9) 0.5075(4) 0.2653(5) 0.132(3) Uani 0.6 1 d D . P B 1
H49A H 0.7376 0.4881 0.2615 0.198 Uiso 0.6 1 d R U P B 1
H49B H 0.8817 0.4783 0.2292 0.198 Uiso 0.6 1 d R U P B 1
H49C H 0.9014 0.4918 0.3092 0.198 Uiso 0.6 1 d R U P B 1
C50 C 1.0066(8) 0.6600(5) 0.2640(8) 0.217(7) Uani 0.6 1 d D . P B 1
H50A H 0.9897 0.7228 0.2588 0.326 Uiso 0.6 1 d R U P B 1
H50B H 1.0730 0.6523 0.3077 0.326 Uiso 0.6 1 d R U P B 1
H50C H 1.0533 0.6387 0.2277 0.326 Uiso 0.6 1 d R U P B 1
N8 N 0.8614(8) 0.6094(5) 0.2605(5) 0.068(2) Uani 0.6 1 d D . P B 1
O8 O 0.6100(4) 0.5937(3) 0.2223(2) 0.0869(12) Uani 0.6 1 d . . P B 1
C48' C 0.7477(8) 0.7410(4) 0.2128(4) 0.096(2) Uani 0.4 1 d . . P C 2
H48D H 0.6393 0.7301 0.1973 0.144 Uiso 0.4 1 d R U P C 2
H48E H 0.7675 0.7850 0.2516 0.144 Uiso 0.4 1 d R U P C 2
H48F H 0.7905 0.7673 0.1763 0.144 Uiso 0.4 1 d R U P C 2
C49' C 0.8437(9) 0.5075(4) 0.2653(5) 0.132(3) Uani 0.4 1 d . . P C 2
H49D H 0.7829 0.4530 0.2671 0.198 Uiso 0.4 1 d R U P C 2
H49E H 0.9181 0.4973 0.2374 0.198 Uiso 0.4 1 d R U P C 2
H49F H 0.9004 0.5252 0.3119 0.198 Uiso 0.4 1 d R U P C 2
C50' C 1.0066(8) 0.6600(5) 0.2640(8) 0.217(7) Uani 0.4 1 d . . P C 2
H50D H 1.0428 0.6021 0.2753 0.326 Uiso 0.4 1 d R U P C 2
H50E H 1.0576 0.6834 0.2279 0.326 Uiso 0.4 1 d R U P C 2
H50F H 1.0346 0.7011 0.3031 0.326 Uiso 0.4 1 d R U P C 2
C47' C 0.7466(16) 0.5819(10) 0.2379(6) 0.055(3) Uani 0.4 1 d . . P C 2
N8' N 0.8249(17) 0.6528(8) 0.2359(7) 0.062(3) Uani 0.4 1 d . . P C 2
O8' O 0.6100(4) 0.5937(3) 0.2223(2) 0.0869(12) Uani 0.4 1 d . . P C 2
C43' C 0.7960(15) 0.9213(10) 1.3948(8) 0.055(3) Uani 0.4 1 d . U P A 2
N7' N 0.7334(16) 0.9578(10) 1.4352(8) 0.072(3) Uani 0.4 1 d . U P A 2
loop_
_atom_site_aniso_label
_atom_site_aniso_U_11
_atom_site_aniso_U_22
_atom_site_aniso_U_33
_atom_site_aniso_U_23
_atom_site_aniso_U_13
_atom_site_aniso_U_12
Cd1 0.02926(14) 0.02133(14) 0.02138(14) 0.00032(9) 0.00440(10) 0.00354(9)
Cd2 0.0334(2) 0.0342(2) 0.02161(19) 0.00510(15) 0.00182(15) -0.01145(15)
N1 0.0371(17) 0.0322(17) 0.0292(16) -0.0068(13) 0.0038(13) 0.0038(13)
N2 0.0379(17) 0.0339(17) 0.0239(15) -0.0064(12) 0.0042(13) -0.0062(13)
N3 0.0417(18) 0.0385(18) 0.0306(17) 0.0008(14) 0.0121(14) -0.0132(14)
N4 0.0413(17) 0.0320(17) 0.0325(17) -0.0051(13) 0.0151(14) -0.0121(13)
N5 0.0293(15) 0.0300(16) 0.0305(16) 0.0029(12) 0.0088(13) 0.0003(12)
N6 0.0324(16) 0.0342(17) 0.0248(15) -0.0014(12) 0.0091(13) -0.0097(12)
N7 0.055(4) 0.072(5) 0.036(4) 0.027(4) 0.011(3) 0.010(4)
O1 0.0508(16) 0.0452(16) 0.0267(13) 0.0112(12) -0.0027(12) -0.0118(13)
O2 0.0641(18) 0.0385(16) 0.0271(14) -0.0024(11) 0.0016(13) -0.0042(13)
O3 0.0457(15) 0.0317(14) 0.0510(16) -0.0072(12) 0.0120(13) 0.0164(12)
O4 0.052 0.039 0.045 -0.017 0.010 0.003
O5 0.082(2) 0.0427(17) 0.0425(18) 0.0009(13) -0.0148(16) 0.0239(15)
O6 0.0520(17) 0.0462(17) 0.0453(16) 0.0195(13) 0.0189(14) 0.0274(13)
O7 0.0531(18) 0.078(2) 0.0395(17) 0.0168(16) 0.0139(15) -0.0054(16)
O1W 0.0655(19) 0.0420(16) 0.0338(15) 0.0004(12) 0.0025(14) -0.0079(14)
O2W 0.072(2) 0.055(2) 0.0528(19) 0.0084(15) -0.0007(16) -0.0111(16)
O3W 0.085(2) 0.075(2) 0.0476(19) -0.0142(17) -0.0027(18) 0.0048(19)
O4W 0.065(2) 0.082(3) 0.072(2) 0.0301(19) -0.0031(18) -0.0085(18)
O5W 0.158(5) 0.060(3) 0.124(4) 0.004(3) 0.015(3) -0.010(3)
C1 0.0321(19) 0.0314(19) 0.033(2) -0.0036(15) 0.0064(16) -0.0116(15)
C2 0.038(2) 0.036(2) 0.0259(18) -0.0068(15) 0.0072(16) -0.0055(16)
C3 0.038(2) 0.037(2) 0.0292(19) 0.0008(16) 0.0126(16) -0.0100(16)
C4 0.0351(19) 0.0300(19) 0.033(2) -0.0045(15) 0.0102(16) -0.0065(15)
C5 0.0365(19) 0.036(2) 0.0269(19) -0.0047(15) 0.0098(16) -0.0084(15)
C6 0.0260(17) 0.034(2) 0.0322(19) -0.0007(15) 0.0094(15) -0.0059(14)
C7 0.040(2) 0.032(2) 0.031(2) -0.0048(15) 0.0070(16) -0.0088(16)
C8 0.044(2) 0.054(3) 0.036(2) -0.0141(19) 0.0071(19) 0.0104(19)
C9 0.0264(19) 0.064(3) 0.049(3) -0.017(2) 0.0034(18) 0.0042(18)
C10 0.0329(19) 0.035(2) 0.035(2) -0.0020(16) 0.0137(16) -0.0086(15)
C11 0.083(4) 0.043(3) 0.090(4) -0.027(3) 0.052(3) -0.032(2)
C12 0.089(4) 0.051(3) 0.100(4) -0.034(3) 0.067(3) -0.025(3)
C13 0.0340(19) 0.0286(19) 0.0261(18) 0.0004(14) 0.0043(15) -0.0036(14)
C14 0.043(2) 0.037(2) 0.0262(19) 0.0021(16) 0.0039(17) 0.0000(16)
C15 0.037(2) 0.036(2) 0.031(2) -0.0032(16) 0.0016(16) -0.0055(16)
C16 0.0314(19) 0.042(2) 0.0258(18) 0.0053(16) 0.0025(15) 0.0022(16)
C17 0.0327(18) 0.0295(18) 0.0223(17) 0.0026(14) 0.0030(14) 0.0043(14)
C18 0.047(2) 0.030(2) 0.0283(19) 0.0074(15) 0.0024(17) -0.0007(16)
C19 0.039(2) 0.0282(19) 0.0276(19) -0.0007(15) 0.0002(16) -0.0006(15)
C20 0.0268(17) 0.0266(18) 0.0222(17) -0.0005(13) 0.0008(14) 0.0086(13)
C21 0.044(2) 0.0252(18) 0.0257(18) 0.0050(14) 0.0066(16) 0.0034(15)
C22 0.042(2) 0.0280(19) 0.0255(18) -0.0058(14) 0.0021(16) 0.0019(15)
C23 0.0277(17) 0.0236(17) 0.0211(17) 0.0007(13) 0.0015(14) 0.0050(13)
C24 0.0296(18) 0.0257(18) 0.0285(18) 0.0052(14) 0.0026(15) 0.0093(14)
C25 0.0253(17) 0.0218(17) 0.0257(17) -0.0025(13) 0.0011(14) 0.0038(13)
C26 0.0327(18) 0.0270(18) 0.0220(17) -0.0025(14) 0.0040(14) 0.0047(14)
C27 0.0270(17) 0.0246(17) 0.0243(17) 0.0017(13) 0.0011(14) 0.0042(13)
C28 0.0344(18) 0.0210(17) 0.0251(17) -0.0005(13) 0.0086(15) 0.0055(14)
C29 0.0308(18) 0.0226(17) 0.0251(17) 0.0006(13) 0.0071(14) 0.0045(13)
C30 0.0337(19) 0.031(2) 0.039(2) -0.0102(16) 0.0027(17) 0.0119(15)
C31 0.041(2) 0.035(2) 0.031(2) -0.0069(16) -0.0021(17) 0.0050(16)
C32 0.0347(19) 0.0221(17) 0.035(2) -0.0034(14) 0.0125(16) 0.0061(14)
C33 0.037(2) 0.032(2) 0.034(2) 0.0008(16) 0.0060(16) 0.0135(16)
C34 0.0307(18) 0.0319(19) 0.0296(19) -0.0046(15) 0.0000(15) 0.0089(15)
C35 0.040(2) 0.0258(19) 0.045(2) -0.0088(16) 0.0193(18) -0.0015(16)
C36 0.0289(18) 0.0247(17) 0.0246(17) 0.0016(14) 0.0013(14) 0.0048(14)
C37 0.048(2) 0.043(2) 0.032(2) 0.0073(17) 0.0130(18) 0.0234(18)
C38 0.056(2) 0.040(2) 0.0245(19) 0.0083(16) 0.0091(18) 0.0199(18)
C39 0.040(2) 0.0238(18) 0.0319(19) 0.0033(14) 0.0025(16) 0.0065(15)
C40 0.048(2) 0.040(2) 0.039(2) 0.0065(17) 0.0120(18) 0.0221(18)
C41 0.050(2) 0.041(2) 0.0255(19) 0.0077(16) 0.0106(17) 0.0181(18)
C42 0.034(2) 0.030(2) 0.043(2) 0.0120(17) 0.0018(18) 0.0023(16)
C43 0.046(5) 0.046(5) 0.033(5) 0.015(4) 0.004(4) 0.000(3)
C44 0.107(5) 0.085(5) 0.109(5) 0.023(4) 0.038(4) 0.029(4)
C45 0.135(6) 0.113(5) 0.040(3) 0.006(3) 0.024(3) -0.023(4)
C46 0.079 0.121 0.132 0.090 0.043 0.049
C47 0.039(5) 0.050(6) 0.058(5) 0.007(4) 0.013(4) 0.009(4)
C48 0.107(5) 0.053(4) 0.136(6) 0.035(4) 0.033(4) 0.023(3)
C49 0.125(6) 0.081(5) 0.223(9) 0.091(6) 0.091(6) 0.044(4)
C50 0.067(5) 0.082(6) 0.49(2) 0.076(9) 0.018(8) -0.006(4)
N8 0.046(5) 0.044(4) 0.111(7) 0.027(4) 0.008(4) 0.008(4)
O8 0.053(2) 0.102(3) 0.098(3) -0.029(2) 0.003(2) 0.012(2)
C48' 0.107(5) 0.053(4) 0.136(6) 0.035(4) 0.033(4) 0.023(3)
C49' 0.125(6) 0.081(5) 0.223(9) 0.091(6) 0.091(6) 0.044(4)
C50' 0.067(5) 0.082(6) 0.49(2) 0.076(9) 0.018(8) -0.006(4)
C47' 0.056(9) 0.070(10) 0.049(7) 0.016(7) 0.022(6) 0.024(7)
N8' 0.050(8) 0.046(7) 0.094(9) 0.022(6) 0.019(7) 0.004(6)
O8' 0.053(2) 0.102(3) 0.098(3) -0.029(2) 0.003(2) 0.012(2)
C43' 0.043(6) 0.062(7) 0.056(7) 0.011(6) 0.004(5) -0.014(5)
N7' 0.078(7) 0.078(7) 0.056(7) 0.014(6) 0.014(6) -0.023(6)
loop_
_atom_type_symbol
_atom_type_description
_atom_type_scat_dispersion_real
_atom_type_scat_dispersion_imag
_atom_type_scat_source
C C 0.0033 0.0016 'International Tables Vol C Tables 4.2.6.8 and 6.1.1.4'
H H 0.0000 0.0000 'International Tables Vol C Tables 4.2.6.8 and 6.1.1.4'
N N 0.0061 0.0033 'International Tables Vol C Tables 4.2.6.8 and 6.1.1.4'
O O 0.0106 0.0060 'International Tables Vol C Tables 4.2.6.8 and 6.1.1.4'
Cd Cd -0.8075 1.2024 'International Tables Vol C Tables 4.2.6.8 and 6.1.1.4'
loop_
_geom_angle_atom_site_label_1
_geom_angle_atom_site_label_2
_geom_angle_atom_site_label_3
_geom_angle
_geom_angle_site_symmetry_1
_geom_angle_site_symmetry_3
O6 Cd1 N1 126.56(11) 1_756 .
O6 Cd1 O3 94.80(10) 1_756 1_666
N1 Cd1 O3 135.68(10) . 1_666
O6 Cd1 N5 89.43(11) 1_756 2_777
N1 Cd1 N5 101.76(11) . 2_777
O3 Cd1 N5 92.80(10) 1_666 2_777
O6 Cd1 O7 84.47(11) 1_756 .
N1 Cd1 O7 83.39(11) . .
O3 Cd1 O7 85.95(11) 1_666 .
N5 Cd1 O7 173.64(10) 2_777 .
O6 Cd1 O4 147.75(10) 1_756 1_666
N1 Cd1 O4 83.06(10) . 1_666
O3 Cd1 O4 53.49(9) 1_666 1_666
N5 Cd1 O4 97.06(10) 2_777 1_666
O7 Cd1 O4 87.21(11) . 1_666
N3 Cd2 N3 180.0 . 2_567
N3 Cd2 O1 91.96(11) . .
N3 Cd2 O1 88.04(11) 2_567 .
N3 Cd2 O1 88.04(11) . 2_567
N3 Cd2 O1 91.96(11) 2_567 2_567
O1 Cd2 O1 180.0 . 2_567
N3 Cd2 O1W 93.06(11) . 2_567
N3 Cd2 O1W 86.94(11) 2_567 2_567
O1 Cd2 O1W 85.14(10) . 2_567
O1 Cd2 O1W 94.86(10) 2_567 2_567
N3 Cd2 O1W 86.94(11) . .
N3 Cd2 O1W 93.06(11) 2_567 .
O1 Cd2 O1W 94.86(10) . .
O1 Cd2 O1W 85.14(10) 2_567 .
O1W Cd2 O1W 180.0 2_567 .
C7 N1 C8 105.8(3) . .
C7 N1 Cd1 132.3(3) . .
C8 N1 Cd1 121.6(2) . .
C7 N2 C9 106.9(3) . .
C7 N2 C2 127.5(3) . .
C9 N2 C2 125.5(3) . .
C10 N3 C11 104.9(3) . .
C10 N3 Cd2 123.9(3) . .
C11 N3 Cd2 131.1(3) . .
C10 N4 C12 106.7(3) . .
C10 N4 C4 125.1(3) . .
C12 N4 C4 128.2(3) . .
C13 N5 C14 106.0(3) . .
C13 N5 Cd1 134.7(2) . 2_777
C14 N5 Cd1 119.1(2) . 2_777
C13 N6 C15 106.8(3) . .
C13 N6 C6 126.4(3) . .
C15 N6 C6 126.6(3) . .
C43 N7 C45 121.1(7) . .
C43 N7 C46 113.8(6) . .
C45 N7 C46 124.7(5) . .
C16 O1 Cd2 120.3(2) . .
C35 O3 Cd1 97.6(2) . 1_444
C35 O4 Cd1 85.4(2) . 1_444
C42 O6 Cd1 112.6(2) . 1_354
C43 O7 Cd1 134.0(4) . .
C43' O7 Cd1 133.7(6) . .
C6 C1 C2 117.5(3) . .
C3 C2 C1 121.8(3) . .
C3 C2 N2 118.5(3) . .
C1 C2 N2 119.7(3) . .
C2 C3 C4 118.6(3) . .
C5 C4 C3 121.3(3) . .
C5 C4 N4 121.0(3) . .
C3 C4 N4 117.7(3) . .
C4 C5 C6 118.4(3) . .
C1 C6 C5 122.4(3) . .
C1 C6 N6 119.1(3) . .
C5 C6 N6 118.4(3) . .
N1 C7 N2 111.4(3) . .
C9 C8 N1 110.1(3) . .
C8 C9 N2 105.8(3) . .
N3 C10 N4 112.3(3) . .
C12 C11 N3 110.1(4) . .
C11 C12 N4 106.0(4) . .
N5 C13 N6 111.1(3) . .
C15 C14 N5 110.1(3) . .
C14 C15 N6 106.0(3) . .
O2 C16 O1 125.0(3) . .
O2 C16 C17 118.6(3) . .
O1 C16 C17 116.3(3) . .
C22 C17 C18 118.3(3) . .
C22 C17 C16 120.4(3) . .
C18 C17 C16 121.3(3) . .
C19 C18 C17 120.4(3) . .
C18 C19 C20 121.3(3) . .
C21 C20 C19 118.3(3) . .
C21 C20 C23 121.8(3) . .
C19 C20 C23 119.9(3) . .
C22 C21 C20 120.6(3) . .
C21 C22 C17 121.0(3) . .
C24 C23 C28 119.0(3) . .
C24 C23 C20 120.2(3) . .
C28 C23 C20 120.7(3) . .
C25 C24 C23 121.4(3) . .
C24 C25 C26 118.5(3) . .
C24 C25 C29 120.0(3) . .
C26 C25 C29 121.5(3) . .
C25 C26 C27 121.6(3) . .
C28 C27 C26 118.5(3) . .
C28 C27 C36 120.3(3) . .
C26 C27 C36 121.1(3) . .
C23 C28 C27 121.0(3) . .
C34 C29 C30 117.4(3) . .
C34 C29 C25 121.5(3) . .
C30 C29 C25 121.1(3) . .
C31 C30 C29 121.0(3) . .
C30 C31 C32 121.4(3) . .
C31 C32 C33 118.1(3) . .
C31 C32 C35 121.1(3) . .
C33 C32 C35 120.8(3) . .
C34 C33 C32 120.6(3) . .
C33 C34 C29 121.5(3) . .
O3 C35 O4 123.3(3) . .
O3 C35 C32 118.0(3) . .
O4 C35 C32 118.7(3) . .
C41 C36 C37 117.2(3) . .
C41 C36 C27 121.0(3) . .
C37 C36 C27 121.7(3) . .
C38 C37 C36 121.3(3) . .
C39 C38 C37 120.9(3) . .
C40 C39 C38 117.8(3) . .
C40 C39 C42 119.6(3) . .
C38 C39 C42 122.5(3) . .
C41 C40 C39 121.3(3) . .
C40 C41 C36 121.5(3) . .
O5 C42 O6 124.1(3) . .
O5 C42 C39 119.7(3) . .
O6 C42 C39 116.2(3) . .
O7 C43 N7 118.0(7) . .
O7 C43 C44 128.0(6) . .
N7 C43 C44 114.0(7) . .
O8 C47 N8 114.7(7) . .
O8 C47 C48 130.8(7) . .
N8 C47 C48 114.2(8) . .
C47 N8 C50 119.3(8) . .
C47 N8 C49 113.1(7) . .
C50 N8 C49 123.8(6) . .
O8' C47' N8' 110.9(15) . .
O8' C47' C49' 137.2(12) . .
N8' C47' C49' 111.5(14) . .
C47' N8' C48' 120.6(15) . .
C47' N8' C50' 121.4(14) . .
C48' N8' C50' 117.7(8) . .
N7' C43' O7 121.8(18) . .
N7' C43' C46 107.9(15) . .
O7 C43' C46 130.1(12) . .
C43' N7' C45 125.5(17) . .
C43' N7' C44 110.3(15) . .
C45 N7' C44 123.9(11) . .
loop_
_geom_bond_atom_site_label_1
_geom_bond_atom_site_label_2
_geom_bond_distance
_geom_bond_site_symmetry_2
Cd1 O6 2.216(2) 1_756
Cd1 N1 2.242(3) .
Cd1 O3 2.304(3) 1_666
Cd1 N5 2.310(3) 2_777
Cd1 O7 2.430(3) .
Cd1 O4 2.567(3) 1_666
Cd2 N3 2.268(3) .
Cd2 N3 2.268(3) 2_567
Cd2 O1 2.308(2) .
Cd2 O1 2.308(2) 2_567
Cd2 O1W 2.409(3) 2_567
Cd2 O1W 2.409(3) .
N1 C7 1.309(4) .
N1 C8 1.377(5) .
N2 C7 1.352(4) .
N2 C9 1.384(5) .
N2 C2 1.423(4) .
N3 C10 1.305(5) .
N3 C11 1.366(6) .
N4 C10 1.334(5) .
N4 C12 1.364(5) .
N4 C4 1.431(4) .
N5 C13 1.306(4) .
N5 C14 1.377(5) .
N5 Cd1 2.310(3) 2_777
N6 C13 1.357(4) .
N6 C15 1.380(4) .
N6 C6 1.426(4) .
N7 C43 1.394(7) .
N7 C45 1.458(7) .
N7 C46 1.474(7) .
O1 C16 1.273(4) .
O2 C16 1.248(4) .
O3 C35 1.251(5) .
O3 Cd1 2.304(3) 1_444
O4 C35 1.253(5) .
O4 Cd1 2.567(3) 1_444
O5 C42 1.238(5) .
O6 C42 1.253(5) .
O6 Cd1 2.216(2) 1_354
O7 C43 1.240(8) .
O7 C43' 1.256(16) .
C1 C6 1.382(5) .
C1 C2 1.390(5) .
C2 C3 1.385(5) .
C3 C4 1.388(5) .
C4 C5 1.378(5) .
C5 C6 1.387(5) .
C8 C9 1.346(5) .
C11 C12 1.347(6) .
C14 C15 1.343(5) .
C16 C17 1.506(5) .
C17 C22 1.394(5) .
C17 C18 1.396(5) .
C18 C19 1.378(5) .
C19 C20 1.392(5) .
C20 C21 1.390(5) .
C20 C23 1.489(4) .
C21 C22 1.380(5) .
C23 C24 1.391(4) .
C23 C28 1.392(4) .
C24 C25 1.389(5) .
C25 C26 1.392(5) .
C25 C29 1.482(4) .
C26 C27 1.395(5) .
C27 C28 1.393(4) .
C27 C36 1.491(4) .
C29 C34 1.390(5) .
C29 C30 1.397(5) .
C30 C31 1.378(5) .
C31 C32 1.383(5) .
C32 C33 1.392(5) .
C32 C35 1.509(5) .
C33 C34 1.384(5) .
C36 C41 1.384(5) .
C36 C37 1.391(5) .
C37 C38 1.390(5) .
C38 C39 1.383(5) .
C39 C40 1.383(5) .
C39 C42 1.510(5) .
C40 C41 1.382(5) .
C43 C44 1.493(8) .
C44 N7' 1.594(17) .
C45 N7' 1.530(15) .
C46 C43' 1.589(17) .
C47 O8 1.248(10) .
C47 N8 1.380(8) .
C47 C48 1.468(8) .
C49 N8 1.520(7) .
C50 N8 1.445(7) .
C48' N8' 1.557(15) .
C49' C47' 1.496(15) .
C50' N8' 1.601(17) .
C47' O8' 1.222(14) .
C47' N8' 1.233(18) .
C43' N7' 1.20(2) .
loop_
_geom_hbond_atom_site_label_D
_geom_hbond_atom_site_label_H
_geom_hbond_atom_site_label_A
_geom_hbond_distance_DH
_geom_hbond_distance_HA
_geom_hbond_distance_DA
_geom_hbond_angle_DHA
_geom_hbond_site_symmetry_A
C46 H46C O7 0.96 2.08 2.583(6) 110.7 .
C45 H45B O3 0.96 2.58 3.538(7) 175.9 2_667
C15 H15 O4 0.93 2.61 3.509(5) 163.5 2_566
C1 H1 O5W 0.93 2.52 3.402(6) 159.3 2_677
O5W H5WB O3W 0.85 2.21 2.956(6) 146.6 1_556
O5W H5WA O4W 0.85 2.05 2.887(6) 167.1 .
O4W H4WA O4 0.86 2.15 3.001(5) 173.4 2_566
O4W H4WB O2 0.96 2.02 2.908(5) 153.5 .
O3W H3WB O5 0.84 1.94 2.780(4) 175.1 1_655
O3W H3WA O2W 1.03 1.73 2.745(5) 164.7 .
O2W H2WB O8 1.06 1.69 2.722(5) 162.8 .
O2W H2WA O1 0.97 1.96 2.918(4) 171.2 2_566
O1W H1WB O2 0.96 1.91 2.711(4) 138.9 2_567
O1W H1WA O3W 0.96 2.00 2.876(4) 150.9 2_566
C46 H46C O7 0.96 2.08 2.583(6) 110.7 .
C15 H15 O4 0.93 2.61 3.509(5) 163.5 2_566
O4W H4WA O4 0.86 2.15 3.001(5) 173.4 2_566
O4W H4WB O2 0.96 2.02 2.908(5) 153.5 .
O3W H3WB O5 0.84 1.94 2.780(4) 175.1 1_655
O3W H3WA O2W 1.03 1.73 2.745(5) 164.7 .
O2W H2WB O8 1.06 1.69 2.722(5) 162.8 .
O2W H2WA O1 0.97 1.96 2.918(4) 171.2 2_566
O1W H1WB O2 0.96 1.91 2.711(4) 138.9 2_567
O1W H1WA O3W 0.96 2.00 2.876(4) 150.9 2_566
C46 H46C O7 0.96 2.08 2.583(6) 110.7 .
C15 H15 O4 0.93 2.61 3.509(5) 163.5 2_566
O1W H1WB O2 0.96 1.91 2.711(4) 138.9 2_567
O1W H1WA O3W 0.96 2.00 2.876(4) 150.9 2_566
C46 H46C O7 0.96 2.08 2.583(6) 110.7 .
C15 H15 O4 0.93 2.61 3.509(5) 163.5 2_566
C1 H1 O5W 0.93 2.52 3.402(6) 159.3 2_677
O1W H1WB O2 0.96 1.91 2.711(4) 138.9 2_567
O1W H1WA O3W 0.96 2.00 2.876(4) 150.9 2_566
C46 H46C O7 0.96 2.08 2.583(6) 110.7 .
C15 H15 O4 0.93 2.61 3.509(5) 163.5 2_566
O1W H1WB O2 0.96 1.91 2.711(4) 138.9 2_567
O1W H1WA O3W 0.96 2.00 2.876(4) 150.9 2_566
C46 H46C O7 0.96 2.08 2.583(6) 110.7 .
C15 H15 O4 0.93 2.61 3.509(5) 163.5 2_566
C1 H1 O5W 0.93 2.52 3.402(6) 159.3 2_677
O1W H1WB O2 0.96 1.91 2.711(4) 138.9 2_567
O1W H1WA O3W 0.96 2.00 2.876(4) 150.9 2_566
C15 H15 O4 0.93 2.61 3.509(5) 163.5 2_566
C1 H1 O5W 0.93 2.52 3.402(6) 159.3 2_677
O1W H1WB O2 0.96 1.91 2.711(4) 138.9 2_567
O1W H1WA O3W 0.96 2.00 2.876(4) 150.9 2_566
C15 H15 O4 0.93 2.61 3.509(5) 163.5 2_566
O1W H1WB O2 0.96 1.91 2.711(4) 138.9 2_567
O1W H1WA O3W 0.96 2.00 2.876(4) 150.9 2_566
O1W H1WA O3W 0.96 2.00 2.876(4) 150.9 2_566
O1W H1WB O2 0.96 1.91 2.711(4) 138.9 2_567
C1 H1 O5W 0.93 2.52 3.402(6) 159.3 2_677
C15 H15 O4 0.93 2.61 3.509(5) 163.5 2_566
O1W H1WA O3W 0.96 2.00 2.876(4) 150.9 2_566
O1W H1WB O2 0.96 1.91 2.711(4) 138.9 2_567
C1 H1 O5W 0.93 2.52 3.402(6) 159.3 2_677
C15 H15 O4 0.93 2.61 3.509(5) 163.5 2_566
O1W H1WA O3W 0.96 2.00 2.876(4) 150.9 2_566
O1W H1WB O2 0.96 1.91 2.711(4) 138.9 2_567
C15 H15 O4 0.93 2.61 3.509(5) 163.5 2_566
C46 H46C O7 0.96 2.08 2.583(6) 110.7 .
O1W H1WA O3W 0.96 2.00 2.876(4) 150.9 2_566
O1W H1WB O2 0.96 1.91 2.711(4) 138.9 2_567
C15 H15 O4 0.93 2.61 3.509(5) 163.5 2_566
C46 H46C O7 0.96 2.08 2.583(6) 110.7 .
O1W H1WA O3W 0.96 2.00 2.876(4) 150.9 2_566
O1W H1WB O2 0.96 1.91 2.711(4) 138.9 2_567
C1 H1 O5W 0.93 2.52 3.402(6) 159.3 2_677
C15 H15 O4 0.93 2.61 3.509(5) 163.5 2_566
C46 H46C O7 0.96 2.08 2.583(6) 110.7 .
O1W H1WA O3W 0.96 2.00 2.876(4) 150.9 2_566
O1W H1WB O2 0.96 1.91 2.711(4) 138.9 2_567
C15 H15 O4 0.93 2.61 3.509(5) 163.5 2_566
C46 H46C O7 0.96 2.08 2.583(6) 110.7 .
O1W H1WA O3W 0.96 2.00 2.876(4) 150.9 2_566
O1W H1WB O2 0.96 1.91 2.711(4) 138.9 2_567
O2W H2WA O1 0.97 1.96 2.918(4) 171.2 2_566
O2W H2WB O8 1.06 1.69 2.722(5) 162.8 .
O3W H3WA O2W 1.03 1.73 2.745(5) 164.7 .
O3W H3WB O5 0.84 1.94 2.780(4) 175.1 1_655
O4W H4WB O2 0.96 2.02 2.908(5) 153.5 .
O4W H4WA O4 0.86 2.15 3.001(5) 173.4 2_566
O5W H5WA O4W 0.85 2.05 2.887(6) 167.1 .
O5W H5WB O3W 0.85 2.21 2.956(6) 146.6 1_556
C1 H1 O5W 0.93 2.52 3.402(6) 159.3 2_677
C15 H15 O4 0.93 2.61 3.509(5) 163.5 2_566
C45 H45B O3 0.96 2.58 3.538(7) 175.9 2_667
C46 H46C O7 0.96 2.08 2.583(6) 110.7 .
loop_
_geom_torsion_atom_site_label_1
_geom_torsion_atom_site_label_2
_geom_torsion_atom_site_label_3
_geom_torsion_atom_site_label_4
_geom_torsion
_geom_torsion_site_symmetry_1
C6 C1 C2 C3 -0.5(6) .
C6 C1 C2 N2 -178.9(3) .
C7 N2 C2 C3 125.8(4) .
C9 N2 C2 C3 -48.6(5) .
C7 N2 C2 C1 -55.7(5) .
C9 N2 C2 C1 129.9(4) .
C1 C2 C3 C4 -0.4(6) .
N2 C2 C3 C4 178.1(3) .
C2 C3 C4 C5 0.7(6) .
C2 C3 C4 N4 -177.7(3) .
C10 N4 C4 C5 -134.9(4) .
C12 N4 C4 C5 45.9(6) .
C10 N4 C4 C3 43.5(5) .
C12 N4 C4 C3 -135.7(5) .
C3 C4 C5 C6 -0.2(6) .
N4 C4 C5 C6 178.2(3) .
C2 C1 C6 C5 1.0(5) .
C2 C1 C6 N6 177.1(3) .
C4 C5 C6 C1 -0.7(6) .
C4 C5 C6 N6 -176.8(3) .
C13 N6 C6 C1 51.5(5) .
C15 N6 C6 C1 -132.9(4) .
C13 N6 C6 C5 -132.3(4) .
C15 N6 C6 C5 43.3(5) .
C8 N1 C7 N2 -0.2(4) .
Cd1 N1 C7 N2 172.9(2) .
C9 N2 C7 N1 0.5(4) .
C2 N2 C7 N1 -174.7(3) .
C7 N1 C8 C9 -0.2(5) .
Cd1 N1 C8 C9 -174.2(3) .
N1 C8 C9 N2 0.4(5) .
C7 N2 C9 C8 -0.5(5) .
C2 N2 C9 C8 174.8(4) .
C11 N3 C10 N4 0.1(5) .
Cd2 N3 C10 N4 176.2(2) .
C12 N4 C10 N3 0.4(5) .
C4 N4 C10 N3 -179.0(3) .
C10 N3 C11 C12 -0.5(6) .
Cd2 N3 C11 C12 -176.3(4) .
N3 C11 C12 N4 0.8(7) .
C10 N4 C12 C11 -0.7(6) .
C4 N4 C12 C11 178.6(4) .
C14 N5 C13 N6 0.1(4) .
Cd1 N5 C13 N6 173.9(2) 2_777
C15 N6 C13 N5 0.2(4) .
C6 N6 C13 N5 176.5(3) .
C13 N5 C14 C15 -0.4(4) .
Cd1 N5 C14 C15 -175.4(2) 2_777
N5 C14 C15 N6 0.6(4) .
C13 N6 C15 C14 -0.5(4) .
C6 N6 C15 C14 -176.8(3) .
Cd2 O1 C16 O2 -27.5(5) .
Cd2 O1 C16 C17 150.3(2) .
O2 C16 C17 C22 -0.9(5) .
O1 C16 C17 C22 -178.9(3) .
O2 C16 C17 C18 176.1(3) .
O1 C16 C17 C18 -1.8(5) .
C22 C17 C18 C19 1.9(5) .
C16 C17 C18 C19 -175.2(3) .
C17 C18 C19 C20 -1.0(6) .
C18 C19 C20 C21 -0.8(5) .
C18 C19 C20 C23 179.8(3) .
C19 C20 C21 C22 1.6(5) .
C23 C20 C21 C22 -179.0(3) .
C20 C21 C22 C17 -0.6(6) .
C18 C17 C22 C21 -1.2(5) .
C16 C17 C22 C21 176.0(3) .
C21 C20 C23 C24 141.2(3) .
C19 C20 C23 C24 -39.4(5) .
C21 C20 C23 C28 -41.5(5) .
C19 C20 C23 C28 137.9(3) .
C28 C23 C24 C25 0.8(5) .
C20 C23 C24 C25 178.2(3) .
C23 C24 C25 C26 -0.2(5) .
C23 C24 C25 C29 -179.3(3) .
C24 C25 C26 C27 -1.8(5) .
C29 C25 C26 C27 177.2(3) .
C25 C26 C27 C28 3.3(5) .
C25 C26 C27 C36 -172.9(3) .
C24 C23 C28 C27 0.8(5) .
C20 C23 C28 C27 -176.6(3) .
C26 C27 C28 C23 -2.8(5) .
C36 C27 C28 C23 173.4(3) .
C24 C25 C29 C34 -35.4(5) .
C26 C25 C29 C34 145.6(3) .
C24 C25 C29 C30 144.7(4) .
C26 C25 C29 C30 -34.4(5) .
C34 C29 C30 C31 -1.4(6) .
C25 C29 C30 C31 178.5(3) .
C29 C30 C31 C32 1.9(6) .
C30 C31 C32 C33 -0.9(6) .
C30 C31 C32 C35 179.3(4) .
C31 C32 C33 C34 -0.4(5) .
C35 C32 C33 C34 179.3(3) .
C32 C33 C34 C29 0.8(6) .
C30 C29 C34 C33 0.1(5) .
C25 C29 C34 C33 -179.9(3) .
Cd1 O3 C35 O4 -4.0(4) 1_444
Cd1 O3 C35 C32 175.6(3) 1_444
Cd1 O4 C35 O3 3.6(4) 1_444
Cd1 O4 C35 C32 -176.0(3) 1_444
C31 C32 C35 O3 -171.8(3) .
C33 C32 C35 O3 8.5(5) .
C31 C32 C35 O4 7.8(5) .
C33 C32 C35 O4 -172.0(3) .
C28 C27 C36 C41 -27.1(5) .
C26 C27 C36 C41 149.0(4) .
C28 C27 C36 C37 156.9(4) .
C26 C27 C36 C37 -27.0(5) .
C41 C36 C37 C38 -0.5(6) .
C27 C36 C37 C38 175.6(4) .
C36 C37 C38 C39 1.0(7) .
C37 C38 C39 C40 -0.3(6) .
C37 C38 C39 C42 -176.3(4) .
C38 C39 C40 C41 -0.9(6) .
C42 C39 C40 C41 175.2(4) .
C39 C40 C41 C36 1.4(7) .
C37 C36 C41 C40 -0.7(6) .
C27 C36 C41 C40 -176.9(4) .
Cd1 O6 C42 O5 1.7(5) 1_354
Cd1 O6 C42 C39 -177.3(2) 1_354
C40 C39 C42 O5 -155.5(4) .
C38 C39 C42 O5 20.4(6) .
C40 C39 C42 O6 23.6(5) .
C38 C39 C42 O6 -160.5(4) .
Cd1 O7 C43 N7 -106.5(7) .
Cd1 O7 C43 C44 76.1(9) .
C45 N7 C43 O7 -175.0(6) .
C46 N7 C43 O7 -2.0(10) .
C45 N7 C43 C44 2.8(11) .
C46 N7 C43 C44 175.8(6) .
O8 C47 N8 C50 173.7(9) .
C48 C47 N8 C50 -11.2(13) .
O8 C47 N8 C49 14.6(11) .
C48 C47 N8 C49 -170.3(7) .
O8' C47' N8' C48' -2.2(17) .
C49' C47' N8' C48' -176.8(9) .
O8' C47' N8' C50' 171.3(11) .
C49' C47' N8' C50' -3.2(17) .
Cd1 O7 C43' N7' 110.6(13) .
Cd1 O7 C43' C46 -64.8(16) .
O7 C43' N7' C45 178.6(9) .
C46 C43' N7' C45 -5.0(17) .
O7 C43' N7' C44 4.7(17) .
C46 C43' N7' C44 -178.9(8) .
