#------------------------------------------------------------------------------
#$Date: 2019-11-23 15:38:49 +0200 (Sat, 23 Nov 2019) $
#$Revision: 233862 $
#$URL: file:///home/coder/svn-repositories/cod/cif/4/34/93/4349329.cif $
#------------------------------------------------------------------------------
#
# This file is available in the Crystallography Open Database (COD),
# http://www.crystallography.net/
#
# All data on this site have been placed in the public domain by the
# contributors.
#
data_4349329
loop_
_publ_author_name
'Gao, Ming-Liang'
'Wang, Wen-Jing'
'Liu, Lin'
'Han, Zheng-Bo'
'Wei, Na'
'Cao, Xiao-Man'
'Yuan, Da-Qiang'
_publ_section_title
;
 Microporous Hexanuclear Ln(III) Cluster-Based Metal-Organic Frameworks:
 Color Tunability for Barcode Application and Selective Removal of
 Methylene Blue.
;
_journal_issue                   1
_journal_name_full               'Inorganic chemistry'
_journal_page_first              511
_journal_page_last               517
_journal_paper_doi               10.1021/acs.inorgchem.6b02413
_journal_volume                  56
_journal_year                    2017
_chemical_formula_sum            'C42 H28 Eu3 O16'
_chemical_formula_weight         1244.52
_space_group_crystal_system      cubic
_space_group_IT_number           225
_space_group_name_Hall           '-F 4 2 3'
_space_group_name_H-M_alt        'F m -3 m'
_atom_sites_solution_hydrogens   difmap
_audit_creation_method           SHELXL-2014/7
_cell_angle_alpha                90
_cell_angle_beta                 90
_cell_angle_gamma                90
_cell_formula_units_Z            8
_cell_length_a                   27.5460(11)
_cell_length_b                   27.5460(11)
_cell_length_c                   27.5460(11)
_cell_measurement_reflns_used    3025
_cell_measurement_temperature    100(2)
_cell_measurement_theta_max      72.9120
_cell_measurement_theta_min      4.5150
_cell_volume                     20901.4(14)
_computing_structure_refinement  'SHELXL-2014/7 (Sheldrick, 2014)'
_diffrn_ambient_temperature      100(2)
_diffrn_measured_fraction_theta_full 0.991
_diffrn_measured_fraction_theta_max 0.965
_diffrn_measurement_device_type  'SuperNova, Dual, Cu at zero, Atlas'
_diffrn_radiation_type           CuK\a
_diffrn_radiation_wavelength     1.54184
_diffrn_reflns_av_R_equivalents  0.0298
_diffrn_reflns_av_unetI/netI     0.0204
_diffrn_reflns_Laue_measured_fraction_full 0.991
_diffrn_reflns_Laue_measured_fraction_max 0.965
_diffrn_reflns_limit_h_max       32
_diffrn_reflns_limit_h_min       -33
_diffrn_reflns_limit_k_max       23
_diffrn_reflns_limit_k_min       -14
_diffrn_reflns_limit_l_max       22
_diffrn_reflns_limit_l_min       -30
_diffrn_reflns_number            5684
_diffrn_reflns_point_group_measured_fraction_full 0.991
_diffrn_reflns_point_group_measured_fraction_max 0.965
_diffrn_reflns_theta_full        67.684
_diffrn_reflns_theta_max         73.938
_diffrn_reflns_theta_min         4.540
_exptl_absorpt_coefficient_mu    12.962
_exptl_absorpt_correction_T_max  1.00000
_exptl_absorpt_correction_T_min  0.72208
_exptl_absorpt_correction_type   multi-scan
_exptl_absorpt_process_details
;
CrysAlisPro, Agilent Technologies,
Version 1.171.37.35 (release 13-08-2014 CrysAlis171 .NET)
(compiled Aug 13 2014,18:06:01)
Empirical absorption correction using spherical harmonics,
 implemented in SCALE3 ABSPACK scaling algorithm.
;
_exptl_crystal_colour            colorless
_exptl_crystal_density_diffrn    0.791
_exptl_crystal_description       prism
_exptl_crystal_F_000             4776
_exptl_crystal_size_max          0.150
_exptl_crystal_size_mid          0.130
_exptl_crystal_size_min          0.100
_refine_diff_density_max         3.974
_refine_diff_density_min         -1.281
_refine_diff_density_rms         0.136
_refine_ls_extinction_method     none
_refine_ls_goodness_of_fit_ref   1.056
_refine_ls_hydrogen_treatment    constr
_refine_ls_matrix_type           full
_refine_ls_number_parameters     41
_refine_ls_number_reflns         1087
_refine_ls_number_restraints     45
_refine_ls_restrained_S_all      1.081
_refine_ls_R_factor_all          0.0686
_refine_ls_R_factor_gt           0.0636
_refine_ls_shift/su_max          0.001
_refine_ls_shift/su_mean         0.000
_refine_ls_structure_factor_coef Fsqd
_refine_ls_weighting_details
'w=1/[\s^2^(Fo^2^)+(0.1066P)^2^+454.5780P] where P=(Fo^2^+2Fc^2^)/3'
_refine_ls_weighting_scheme      calc
_refine_ls_wR_factor_gt          0.1681
_refine_ls_wR_factor_ref         0.1747
_reflns_Friedel_coverage         0.000
_reflns_number_gt                991
_reflns_number_total             1087
_reflns_threshold_expression     'I > 2\s(I)'
_cod_data_source_file            ic6b02413_si_002.cif
_cod_data_source_block           2
_cod_original_cell_volume        20901(3)
_cod_database_code               4349329
_shelx_shelxl_version_number     2014/7
_shelx_space_group_comment
;
The symmetry employed for this shelxl refinement is uniquely defined
by the following loop, which should always be used as a source of
symmetry information in preference to the above space-group names.
They are only intended as comments.
;
_shelx_estimated_absorpt_t_min   0.247
_shelx_estimated_absorpt_t_max   0.357
_platon_squeeze_void_probe_radius 1.20
_shelx_res_file
;

    data.res created by SHELXL-2014/7


TITL 1_a.res in Fm-3m
CELL 1.54184 27.5460 27.5460 27.5460 90.000 90.000 90.000
ZERR 8.0000 0.0011 0.0011 0.0011 0.000 0.000 0.000
LATT 4
SYMM -Y, X, Z
SYMM -X, -Y, Z
SYMM Y, -X, Z
SYMM X, -Z, Y
SYMM X, -Y, -Z
SYMM X, Z, -Y
SYMM Z, Y, -X
SYMM -X, Y, -Z
SYMM -Z, Y, X
SYMM Z, X, Y
SYMM Y, Z, X
SYMM -Y, -Z, X
SYMM Z, -X, -Y
SYMM -Y, Z, -X
SYMM -Z, -X, Y
SYMM -Z, X, -Y
SYMM Y, -Z, -X
SYMM Y, X, -Z
SYMM -Y, -X, -Z
SYMM -X, Z, Y
SYMM -X, -Z, -Y
SYMM Z, -Y, X
SYMM -Z, -Y, -X
SFAC C H O EU
UNIT 336 224 128 24
LIST 6 ! automatically inserted. Change 6 to 4 for CHECKCIF!!
MERG 2
FMAP 2
GRID
PLAN 5
TEMP -173
SIZE 0.1 0.13 0.15
BOND $H
EADP O1 O2
DFIX 1.39 0.02 C2 C3
DFIX 1.39 0.02 C3 C4
DFIX 1.39 0.02 C5 C4
ISOR 0.005 C1 C5 C2 C3 C4 O1
ISOR 0.002 O2
ABIN
OMIT     3   3   3
OMIT     1   3   3
OMIT     0   2   6
OMIT     2   2   4
OMIT     2   2  14
OMIT     2   2   2
L.S. 20
ACTA
WGHT    0.106600  454.578003
FVAR       0.06317
EU1   4    0.399140    0.500000    0.500000    10.12500    0.00693    0.02386 =
         0.02386    0.00000    0.00000    0.00000
O1    3    0.363758    0.422244    0.500000    10.50000    0.03587    0.03896 =
         0.04343    0.00000    0.00000   -0.01291
O2    3    0.454051    0.454051    0.454051    10.16667    0.03587    0.03896 =
         0.04343    0.00000    0.00000   -0.01291
AFIX   3
H2    2    0.436251    0.436251    0.436251    10.16667   -1.20000
AFIX   0
C1    1    0.379246    0.379246    0.500000    10.25000    0.06193    0.06193 =
         0.07054    0.00000    0.00000   -0.01405
C2    1    0.340150    0.340150    0.500000    10.25000    0.08903    0.08903 =
         0.09754    0.00000    0.00000   -0.00849
C5    1    0.269813    0.269813    0.500000    10.25000    0.10850    0.10850 =
         0.11795    0.00000    0.00000   -0.00664
C4    1    0.257912    0.317061    0.485564    10.50000    0.08137    0.07794 =
         0.08962    0.00213   -0.00279   -0.00966
AFIX   3
H4A   2    0.225642    0.324002    0.474384    10.50000   -1.20000
AFIX   0
C3    1    0.292345    0.353938    0.485372    10.50000    0.07553    0.07763 =
         0.08282    0.00000   -0.00529   -0.01641
AFIX   3
H3A   2    0.284105    0.386798    0.477162    10.50000   -1.20000
AFIX   0
HKLF 4

REM  1_a.res in Fm-3m
REM R1 =  0.0636 for     991 Fo > 4sig(Fo)  and  0.0686 for all    1087 data
REM     41 parameters refined using     45 restraints

END

WGHT      0.1066    454.7430

REM Highest difference peak  3.974,  deepest hole -1.281,  1-sigma level  0.136
Q1    1   0.3074  0.5000  0.5000  10.12500  0.05    2.06
Q2    1   0.3477  0.5000  0.5000  10.12500  0.05    0.67
Q3    1   0.2690  0.2690  0.4706  10.50000  0.05    0.67
Q4    1   0.3380  0.4517  0.5483  10.50000  0.05    0.62
Q5    1   0.3418  0.4413  0.5000  10.50000  0.05    0.61
;
_shelx_res_checksum              4359
_shelx_hkl_file
;
  -2   2   2 1369.77   18.97
  -2   2   0 1704.39   20.66
   0   2  -2 1708.17   21.46
  -2   0   2 1707.91   21.33
  -2   2  -2 1365.42   15.93
  -2  -2   2 1334.85   17.15
  -3   1   1  907.43   13.81
   1   3  -1  911.70   13.18
  -3  -1   1  863.89   13.45
  -3   1  -1  883.21   12.92
  -1   1  -3  936.36   13.20
  -1  -1   3  933.13   12.41
  -1   3  -1  932.66   11.37
  -3   3   3   48.66    3.18
  -3   3   1   35.42    2.31
   1   3  -3   33.78    2.42
  -3   1   3   32.78    2.40
  -3   3  -1   33.62    1.95
   3   3   1   35.65    1.47
  -3  -1   3   32.80    2.25
  -1  -3   3   33.30    1.39
  -3  -3   3   46.04    2.52
  -4   0   0 1056.62   16.00
  -2   2   4   52.73    3.24
   2   4  -2   51.22    2.96
  -2  -2  -4   56.63    1.80
  -4   2   2   55.54    3.26
  -2   4   2   51.75    3.03
   0  -2   4   10.73    0.88
  -4   2   0   11.44    1.44
   0   2  -4   12.33    1.54
  -2   0  -4   13.52    1.26
   2   4   0    9.95    1.10
  -2   0   4    9.18    1.28
  -4   0   2   10.78    1.47
  -2   4   0    8.98    1.18
  -2   4  -2   54.12    1.92
  -2  -2   4   54.26    2.59
  -4  -2   2   51.24    2.94
  -4   2  -2   53.78    2.57
  -4   4   4  771.84   16.00
   2   4  -4 1045.97   18.31
  -2   4   4 1080.86   18.55
  -4   2   4 1053.47   18.63
  -4   4   2 1057.93   18.00
  -4   0   4   63.02    3.71
   0   4  -4   63.35    3.71
  -4   4   0   69.89    3.48
  -4   4  -2 1076.11   15.84
   4   4   2 1082.54   12.97
  -4  -2   4 1041.57   17.56
  -2  -4   4 1085.74   14.71
  -4  -4   4  775.78   13.90
  -5   1   1  425.41    9.92
  -5  -1   1  449.22   10.02
  -5   1  -1  443.33    9.57
  -1   1  -5  462.99    9.43
  -1  -1   5  430.42    8.76
  -5   3   3 1278.60   21.71
  -3   3   5 1308.99   21.92
   3   5  -3 1259.20   20.99
  -3   5   3 1278.21   21.27
   1   5  -3  945.77   16.82
  -5   3   1  947.70   16.65
  -3   5   1  938.44   15.71
   1   3  -5  897.21   16.68
  -3   1   5  921.96   16.73
  -5   1   3  945.90   17.26
   3   5  -1  934.49   15.38
  -5  -1   3  928.09   16.78
  -5   3  -1  901.74   15.37
  -1   3  -5  960.90   16.64
  -3  -1   5  919.54   15.91
  -3   5  -1  939.41   14.23
  -1  -3   5  942.42   12.98
  -5  -3   3 1262.97   20.60
  -3   5  -3 1326.55   16.44
  -3  -3   5 1276.58   19.08
  -5   5   5 2334.88   35.92
  -5   3   5 2131.90   32.60
  -5   5   3 2153.74   31.87
   3   5  -5 2041.27   31.97
  -3   5   5 2146.20   32.45
  -5   5   1  858.99   16.27
  -5   1   5  877.86   17.61
   1   5  -5  857.26   17.31
   5   5   1  886.77   13.46
  -5   5  -1  878.26   15.40
  -5  -1   5  878.96   17.16
  -5  -3   5 2084.51   30.56
  -5   5  -3 2167.36   27.56
  -5  -5   5 2347.87   32.50
  -6   0   0 5601.96   65.46
  -2  -2  -6   23.79    1.70
   2   6  -2   25.69    2.55
  -2   6   2   24.48    2.41
  -2   2   6   26.79    2.73
  -6   2   2   29.88    3.03
   0  -2   6   24.43    1.89
  -6   0   2   25.54    2.64
  -6   2   0   24.35    2.43
   0   2  -6   28.66    2.63
  -2   0   6   26.21    2.42
  -2   0  -6   26.70    2.07
  -2   6   0   26.81    2.12
  -2  -2   6   21.57    1.99
  -6   2  -2   24.62    2.25
  -2   2  -6   22.24    2.33
  -2   6  -2   24.91    1.59
  -6  -2   2   25.05    2.60
  -4   4   6 1106.41   21.71
   4   6  -4 1104.03   21.05
  -4   6   4 1156.07   21.37
  -6   4   4 1092.65   21.46
  -2   4   6  997.16   19.34
  -4   6   2  991.59   18.21
  -6   2   4 1032.34   19.87
  -6   4   2 1037.87   19.25
   4   6  -2  976.98   17.91
   2   6  -4  987.36   19.10
   2   4  -6  965.44   19.18
  -4   2   6  998.29   19.38
   0   4  -6  445.18   11.51
  -6   4   0  447.15   10.86
   0  -4   6  412.62    6.46
  -4   6   0  426.87    9.79
   4   6   0  433.36    9.33
  -4   0   6  430.44   11.16
  -6   0   4  439.37   11.74
  -4   6  -2 1014.74   15.60
  -6  -2   4  981.03   18.79
  -6   4  -2  998.67   16.99
  -2  -4   6 1010.86   15.00
  -4  -2   6  995.63   17.95
  -6  -4   4 1116.49   20.14
  -4   6  -4 1160.54   15.30
  -4  -4   6 1134.85   18.71
  -6   6   6 4406.04   60.49
   4   6  -6 2289.74   36.64
  -6   4   6 2354.40   37.03
  -4   6   6 2293.93   36.50
  -6   6   4 2265.47   35.81
   2   6  -6 1433.66   26.28
   6   6  -2 1477.08   24.29
  -6   2   6 1474.55   26.58
  -6   6   2 1452.47   24.99
  -6   0   6  271.23    9.78
   6   6   0  268.03    7.60
  -6   6   0  280.88    8.77
  -6  -2   6 1490.95   25.60
   6   6   2 1460.41   18.93
  -6   6  -2 1443.07   22.52
  -6   6  -4 2292.82   29.87
  -6  -4   6 2308.45   34.03
  -7   1   1 1879.78   29.00
  -1  -1   7 1882.48   26.56
  -7   1  -1 1837.79   27.64
  -7  -1   1 1819.68   28.47
  -1   1  -7 1906.79   27.14
  -3  -3  -7   49.95    2.28
  -3   7   3   46.32    3.64
  -3   3   7   46.51    4.02
  -7   3   3   38.46    3.73
   3   7  -3   40.42    3.56
  -7   1   3    9.61    2.34
  -3   7   1    9.80    1.68
  -3   1   7   11.80    2.23
  -3  -1  -7   11.20    1.36
  -7   3   1    8.47    1.93
   1   3  -7    7.62    1.81
   1  -3   7   11.44    1.31
  -1   7  -3   10.28    0.93
  -1   3  -7   11.07    2.03
  -7  -1   3   10.06    2.03
  -3   7  -1    8.07    1.37
  -3  -1   7    8.56    1.63
  -1  -3   7    9.95    1.34
  -3   7  -3   47.57    2.26
  -3  -3   7   50.00    3.26
  -5   5   7 1741.61   31.37
  -7   5   5 1766.25   31.49
  -5   7   5 1783.83   30.82
   5   7  -5 1795.68   31.15
  -7   3   5  931.63   20.59
   3   7  -5  902.39   19.74
  -3   5   7  912.82   20.13
   5   7  -3  901.38   18.88
  -5   7   3  925.05   19.15
  -3   7   5  926.11   19.77
  -3  -5  -7  990.23   12.37
  -7   5   3  931.77   19.94
   3   5  -7  899.44   19.97
  -5   3   7  913.09   20.17
   5   7  -1  150.62    6.03
  -7   5   1  147.81    6.74
  -7   1   5  147.48    7.34
  -5   7   1  147.26    6.21
  -5   1   7  138.79    6.85
   1   5  -7  137.22    6.94
  -5   7  -1  145.94    5.69
  -7  -1   5  148.18    7.16
  -1  -5   7  144.19    3.60
  -5  -1   7  143.86    6.79
  -7   5  -1  162.60    6.55
  -5  -3   7  925.84   18.13
  -7   5  -3  950.13   16.65
  -3  -5   7  930.86   15.07
  -7  -3   5  935.20   19.09
  -5   7  -3  937.70   15.00
  -5  -5   7 1767.60   27.19
   7   7  -7 1749.16   33.84
  -7   7   7 1749.80   33.61
  -5   7   7 2103.89   36.58
  -7   7   5 2088.89   35.86
   5   7  -7 2082.61   36.90
   7   7  -5 2095.91   35.79
  -7   5   7 2091.86   36.88
  -3   7   7  645.92   17.30
  -7   3   7  660.32   17.82
   3   7  -7  634.38   17.36
   7   7  -3  651.94   16.00
  -7   7   3  651.76   16.61
  -7   1   7    4.41    2.07
   7   7  -1    5.58    1.68
  -7   7   1    2.49    1.57
   1   7  -7    2.16    2.14
   7   7   1    2.29    0.85
  -7  -1   7    1.05    1.95
  -7   7  -1    1.15    1.15
  -7   7  -3  657.61   13.66
  -7  -3   7  638.61   16.25
  -7  -5   7 2083.19   33.19
  -8   0   0 9999.00  113.21
  -8   2   2  402.01   12.09
  -2  -2  -8  419.08    9.14
  -2   2   8  387.22   11.71
  -2   8   0  502.22   11.04
   0   2  -8  494.45   12.62
  -8   0   2  500.04   13.42
  -2   0   8  499.34   12.57
  -8   2   0  504.95   12.97
   0  -2   8  512.12   11.03
  -2   0  -8  519.70   11.40
  -8  -2   2  389.74   11.64
  -2   2  -8  411.65   10.95
  -2   8  -2  395.66    8.19
  -8   2  -2  390.41   10.72
  -2  -2   8  397.51    9.99
  -4   8   4  345.95   11.19
  -4   4   8  325.78   11.70
   4   8  -4  311.07   10.95
  -8   4   4  337.03   11.93
   2  -4   8  139.09    4.18
  -8   4   2  142.12    7.15
  -4   8   2  143.56    6.55
  -8   2   4  152.31    7.71
  -2   4   8  142.87    7.25
  -4   2   8  136.70    7.21
   2   4  -8  134.01    7.04
  -8   0   4   16.20    2.84
   0   8  -4   12.09    0.87
   0  -4   8   13.73    1.32
  -4   0   8   11.21    2.26
  -8   4   0    8.80    2.22
  -4   8   0    9.54    1.72
   0   4  -8   14.08    2.59
  -4  -2   8  144.51    6.53
  -4   8  -2  141.43    4.97
  -8   4  -2  137.24    6.18
  -2  -4   8  137.49    4.99
  -8  -2   4  128.29    6.81
  -8  -4   4  344.20   11.17
  -4  -4   8  332.01    9.53
  -4   8  -4  354.53    6.81
   6   8  -6 1425.92   29.13
  -6   8   6 1403.64   28.44
  -6   6   8 1432.00   29.44
  -8   6   6 1439.22   29.56
   6   6  -8 1434.85   29.74
   4   6  -8  707.83   18.94
  -4   8   6  701.49   18.12
   4   8  -6  711.60   18.53
  -4   6   8  712.07   18.74
  -8   4   6  702.12   19.08
  -8   6   4  724.23   18.58
   6   8  -4  729.83   17.96
  -6   8   4  756.18   18.15
  -6   4   8  732.95   19.02
   2   6  -8   33.73    4.10
   2   8  -6   33.25    3.96
  -6   2   8   30.50    3.85
  -8   6   2   30.88    3.55
  -6   8   2   33.58    3.54
  -8   2   6   35.57    4.16
  -2   6   8   27.33    3.88
   6   8  -2   31.58    3.37
   0   6  -8  229.24    9.71
  -8   0   6  218.12    9.65
  -8   6   0  209.86    8.40
  -6   0   8  214.81    9.39
  -6   8   0  206.98    7.81
  -6   8  -2   32.97    2.86
  -6  -2   8   24.22    3.21
  -8   6  -2   30.58    3.01
  -8  -2   6   40.32    4.10
   8   6   2   33.20    2.23
  -8  -4   6  728.23   17.82
  -6   8  -4  775.48   13.47
  -6  -4   8  720.25   16.86
  -4  -6   8  739.95   14.02
  -6  -6   8 1442.57   24.62
   8   8  -8   58.28    6.31
  -8   8   8   41.06    5.43
  -8   6   8  351.85   14.25
  -8   8   6  314.95   12.99
   8   8  -6  368.68   13.80
   6   8  -8  354.42   14.29
  -6   8   8  337.97   13.75
  -8   4   8   70.78    6.35
   4   8  -8   62.77    5.81
  -4   8   8   68.47    5.97
   8   8  -4   77.26    5.93
  -8   8   4   70.37    5.94
  -8   8   2  481.49   14.47
  -2   8   8  468.63   15.33
   2   8  -8  471.90   15.67
   8   8  -2  478.18   13.50
  -8   2   8  459.95   15.68
  -8   8   0 2136.25   33.87
  -8   0   8 2077.05   37.23
   8   8   0 2021.79   30.44
  -8  -2   8  466.76   15.10
  -8   8  -2  484.26   12.65
  -8  -4   8   77.40    5.78
  -8   8  -4   75.03    4.34
  -8  -6   8  352.97   12.07
  -1  -1  -9 3599.16   46.08
  -9   1   1 3656.12   50.11
  -1   1   9 3591.89   49.08
  -9  -1   1 3622.61   49.93
  -1   1  -9 3651.16   47.52
  -1  -1   9 3620.53   47.32
  -9   1  -1 3542.10   48.55
  -3   9   3   19.57    2.80
  -3   3   9   29.70    3.64
  -3  -3  -9   26.18    2.10
  -9   3   3   28.71    3.75
  -3   1   9  163.17    7.74
   1   3  -9  150.29    7.44
  -9   1   3  158.94    8.03
  -9   3   1  156.58    7.65
   1  -3   9  165.39    5.77
  -3  -1  -9  175.20    6.06
  -3   9   1  165.46    6.72
  -1   3  -9  152.96    7.24
  -1  -3   9  154.72    5.79
  -9  -1   3  159.46    7.85
  -3  -1   9  157.76    7.02
  -1   9  -3  161.49    4.51
  -3   9  -1  165.88    5.90
  -9   3  -1  157.16    7.23
  -3   9  -3   26.61    1.89
  -3  -3   9   24.08    2.72
  -9   5   5  477.83   15.55
  -5   9   5  459.99   14.34
   5   9  -5  431.08   14.33
   5   5  -9  482.96   15.65
  -5   5   9  455.74   15.34
   5   9  -3   96.22    6.03
  -9   3   5   94.69    6.71
   3  -5   9   85.44    3.02
  -3   9   5   98.01    6.32
  -9   5   3  103.59    6.77
   3   5  -9   93.53    6.61
  -5   9   3   93.69    5.87
  -3  -5  -9  108.41    3.66
  -3   5   9   86.12    6.32
  -5   3   9   93.48    6.57
  -5   9   1   63.10    4.38
  -9   1   5   61.84    5.40
  -9   5   1   71.04    5.30
   1  -5   9   56.55    2.06
  -5   1   9   65.64    5.27
   1   5  -9   66.59    5.38
  -9   5  -1   68.05    4.92
  -1  -5   9   69.17    2.96
  -1   5  -9   66.49    5.31
  -5   9  -1   56.58    3.77
  -5  -1   9   63.84    4.98
  -9  -1   5   64.71    5.40
  -5   9  -3  104.49    4.41
  -5  -3   9   87.30    5.54
  -9   5  -3   96.99    5.44
  -9  -3   5   92.65    6.27
  -3  -5   9   93.22    4.44
  -5  -5   9  457.59   12.20
   7   7  -9   53.79    5.98
  -9   7   7   52.19    5.76
  -7   9   7   57.11    5.88
  -7   7   9   50.69    5.91
   7   9  -7   49.00    5.40
  -5   9   7  192.57    9.95
  -5   7   9  197.44   10.40
  -7   9   5  189.39    9.52
   5   9  -7  201.88   10.45
  -9   5   7  184.45   10.31
   7   9  -5  208.10   10.00
  -9   7   5  206.91   10.40
   5   7  -9  195.79   10.47
  -7   5   9  181.98   10.04
  -9   3   7   32.82    4.66
  -7   9   3   41.73    4.30
  -7   3   9   42.00    5.00
   3   7  -9   33.39    4.44
   7   9  -3   33.61    3.88
  -9   7   3   34.79    4.28
   3   9  -7   39.45    4.75
  -3   9   7   43.67    4.90
  -3   7   9   31.56    4.39
  -7   1   9 1093.66   25.09
  -9   1   7 1113.11   25.79
   1   7  -9 1096.04   24.92
   7   9  -1 1074.82   21.09
   9   7  -1 1137.36   21.50
  -7   9   1 1102.31   22.28
  -9   7   1 1129.57   23.56
   9   7   1 1116.42   18.88
  -9   7  -1 1119.69   22.33
  -7   9  -1 1122.54   21.24
  -9  -1   7 1135.27   25.46
  -7  -1   9 1076.38   24.44
  -7  -3   9   35.94    4.10
  -9  -3   7   36.62    4.38
  -7   9  -3   39.95    3.25
  -9   7  -3   35.38    3.39
  -9  -5   7  187.39    9.11
  -7  -5   9  193.04    8.69
  -9   9   9 2506.94   47.76
   9   9  -9 2514.13   48.37
  -9   9   7  646.83   20.46
   7   9  -9  613.69   20.54
   9   9  -7  640.71   20.46
   9   7  -9  604.03   20.35
  -7   9   9  601.90   20.01
  -9   7   9  600.51   20.42
  -9   9   5  260.37   12.03
  -9   5   9  264.90   13.01
   9   9  -5  262.60   11.96
   5   9  -9  265.48   12.95
  -5   9   9  245.68   12.21
  -3   9   9 1451.07   31.45
   3   9  -9 1464.90   32.01
   9   9  -3 1421.04   28.31
  -9   3   9 1490.83   32.64
  -9   9   3 1480.29   29.98
  -9   1   9 4338.23   65.12
   9   9  -1 4268.54   57.04
  -9   9   1 4379.34   60.53
  -9   9  -1 4383.85   59.19
  -9  -1   9 4380.25   64.94
  -9  -3   9 1423.24   30.40
  -9   9  -3 1571.44   26.22
  -9  -5   9  260.37   11.32
   0   0 -10 4085.40   53.42
   0   0  10 4098.43   54.21
 -10   0   0 4059.96   55.73
  -2  10   2  918.81   19.08
 -10   2   2  939.20   21.62
  -2   2  10  915.82   20.97
   0   2 -10 1074.27   21.94
  -2   0 -10 1105.20   20.10
   0  -2  10 1059.40   19.71
  -2   0  10 1055.64   21.83
 -10   0   2 1092.65   23.32
  -2  10   0 1067.60   19.23
 -10   2   0 1131.61   22.88
  -2   2 -10  943.61   19.33
  -2  10  -2  938.18   15.61
 -10  -2   2  920.61   20.92
  -4   4  10  125.35    7.96
  -4  10   4  118.66    6.92
 -10   4   4  106.89    7.39
   4   4 -10  126.61    7.92
  -4   2  10   60.33    5.28
  -2   4  10   57.70    5.27
 -10   4   2   53.35    4.96
 -10   2   4   59.63    5.55
  -2  -4 -10   65.26    3.62
  -4  10   2   65.08    4.74
   2  -4  10   58.90    3.28
   2   4 -10   64.40    5.45
   0  10  -4  106.07    3.36
  -4   0  10  108.02    6.55
 -10   4   0  105.44    6.48
 -10   0   4  111.47    7.27
  -4  10   0  100.65    5.24
   0   4 -10  112.58    6.83
   0  -4  10  104.56    4.40
  -2  10  -4   56.69    2.20
  -4  10  -2   61.25    3.57
  -2  -4  10   54.73    3.65
 -10   4  -2   62.96    4.82
 -10  -2   4   68.23    5.53
  -4  -2  10   49.83    4.28
  -4  10  -4  124.91    3.97
  -4  -4  10  119.26    6.13
   6  10  -6  131.36    8.52
  -6   6  10  127.68    8.76
  -6  10   6  122.42    7.94
 -10   6   6  133.40    8.90
   6   6 -10  144.46    9.26
  -6   4  10   77.04    6.54
  -4   6  10   63.48    6.01
 -10   4   6   60.45    6.11
  -6  10   4   56.23    5.18
   6  10  -4   70.15    5.94
 -10   6   4   63.52    5.85
   4   6 -10   66.22    6.08
  -4  10   6   61.39    5.43
  -2   6  10  188.17    9.81
  -6  10   2  193.96    8.44
  -6   2  10  198.02    9.99
 -10   2   6  194.62   10.29
 -10   6   2  186.41    9.29
   2   6 -10  177.13    9.50
   0   6 -10  404.15   14.16
 -10   0   6  417.74   15.02
  -6   0  10  389.30   13.84
  -6  10   0  413.83   11.89
 -10   6   0  433.31   13.68
  -6  -2  10  182.89    9.00
 -10  -2   6  197.96    9.99
 -10   6  -2  200.32    8.54
  -6  10  -2  197.24    7.26
  -2  -6  10  187.83    5.29
  -6  10  -4   70.59    3.56
 -10  -4   6   64.75    5.60
  -4  -6  10   73.71    4.13
  -6  -4  10   60.02    4.90
  -6  -6  10  125.50    6.46
  -8  10   8 1248.38   30.19
   8   8 -10 1296.14   31.78
   8  10  -8 1223.53   30.52
  -8   8  10 1211.47   30.70
  10   8  -8 1236.07   30.63
 -10   8   8 1235.83   30.93
   8  10  -6  183.00   10.28
  -6  10   8  177.63   10.41
 -10   8   6  186.10   10.68
  -8   6  10  195.39   11.29
 -10   6   8  196.06   11.56
  10   8  -6  173.79   10.11
   6   8 -10  193.78   11.37
   6  10  -8  188.68   11.07
  -6   8  10  166.29   10.35
  -8  10   6  190.05   10.35
  -8   4  10  494.88   17.77
   4  10  -8  498.80   17.62
  -4  10   8  487.08   16.80
  -4   8  10  473.23   17.03
 -10   4   8  474.51   17.66
  10   8  -4  495.98   15.95
  -8  10   4  495.78   16.06
   8  10  -4  470.95   15.54
   4   8 -10  496.58   17.75
 -10   8   4  481.36   16.57
 -10   2   8 2457.65   44.60
  10   8  -2 2480.60   38.89
 -10   8   2 2418.89   41.23
  -8  10   2 2467.88   40.14
  -2  10   8 2415.16   42.70
  -8   2  10 2418.08   43.93
   8  10  -2 2332.66   38.17
   2   8 -10 2417.71   43.47
  -2   8  10 2404.47   43.48
 -10   0   8 3936.44   61.28
 -10   8   0 4028.03   56.85
  -8  10   0 4013.03   55.04
  -8   0  10 3833.02   60.21
  10   8   0 4011.60   52.26
 -10  -2   8 2414.98   43.27
  -8  10  -2 2534.70   37.35
 -10   8  -2 2501.42   38.66
  -8  -2  10 2423.74   42.54
  -8  -4  10  486.40   15.82
  -8  10  -4  521.78   12.25
 -10  -4   8  494.57   16.47
  -8  -6  10  180.13    8.90
  10  10 -10 1545.52   38.11
 -10  10  10 1532.79   37.84
 -10   8  10 1741.77   40.06
 -10  10   8 1822.53   39.77
  -8  10  10 1754.50   39.22
  10   8 -10 1845.95   40.69
   8  10 -10 1811.54   40.51
  10  10  -8 1796.43   39.42
  -6  10  10  355.33   16.00
   6  10 -10  408.58   17.32
 -10   6  10  397.10   17.36
  10  10  -6  388.90   15.84
 -10  10   6  372.47   15.81
 -10   4  10  509.24   19.32
  -4  10  10  503.93   18.48
  10  10  -4  498.74   16.60
   4  10 -10  495.71   18.83
 -10  10   4  530.99   17.93
 -10   2  10 2085.49   42.39
 -10  10   2 2080.07   38.24
  10  10  -2 2092.91   35.50
  -2  10  10 2074.46   41.14
 -10   0  10 3193.04   54.83
 -10  10   0 3208.81   49.03
 -10  10  -2 2261.16   36.26
 -10  -2  10 2101.69   41.45
 -10  10  -4  537.42   13.92
 -10  -4  10  518.45   17.74
 -10  -6  10  370.69   14.23
  -1  -1 -11 1409.30   24.36
 -11   1   1 1421.15   27.91
   1   1 -11 1341.90   26.08
  -1   1  11 1335.17   26.74
  -1  -1  11 1381.19   25.59
  -1   1 -11 1386.46   25.33
 -11  -1   1 1378.19   27.48
  -1  11  -1 1404.14   22.61
 -11   3   3   -0.36    2.23
   3   3 -11    5.92    2.59
  -3  -3 -11    2.21    1.02
  -3  11   3    0.11    1.95
  -3   3  11    0.36    2.13
  -3  11   1  116.36    6.09
 -11   3   1  118.49    7.44
 -11   1   3  118.26    7.79
   1  -3  11  130.31    5.87
  -1   3  11  116.38    7.31
  -3  -1 -11  127.52    5.90
  -3   1  11  127.25    7.61
   1   3 -11  122.68    7.41
  -1   3 -11  121.21    7.02
  -3  11  -1  113.68    5.32
  -1  11  -3  114.87    4.32
  -3  -1  11  113.45    6.59
 -11  -1   3  107.86    7.31
  -1  -3  11  114.64    5.67
 -11   3  -1  113.58    6.92
  -3  11  -3    1.90    0.90
  -3  -3  11    0.66    1.59
  -5  11   5  329.60   12.71
 -11   5   5  324.52   14.03
   5   5 -11  329.68   13.94
  -5   5  11  321.92   13.75
  -3  -5 -11   87.08    3.94
  -5   3  11   81.47    6.63
 -11   5   3   77.85    6.56
  -3  11   5   71.22    5.95
  -3   5  11   71.37    6.23
   3   5 -11   76.01    6.63
 -11   3   5   76.23    6.59
  -5  11   3   72.24    5.50
 -11   5   1   22.86    3.53
  -5   1  11   23.55    3.84
  -5  11   1   32.44    3.65
 -11   1   5   25.32    4.11
   1   5 -11   23.44    3.76
  -1   5 -11   34.09    4.46
 -11   5  -1   23.30    3.50
  -5  11  -1   25.19    2.80
 -11  -1   5   26.07    4.36
  -5  -1  11   23.51    3.47
  -1  -5  11   26.28    2.24
  -5  11  -3   77.45    3.97
  -3  -5  11   72.13    4.41
  -5  -3  11   69.63    5.38
 -11  -3   5   75.67    6.54
  -5  -5  11  346.10   11.14
  -7  11   7   87.12    7.51
   7   7 -11   85.17    8.07
  -7   7  11   99.05    8.36
 -11   7   7   92.45    8.17
   7  11  -7   83.04    7.57
 -11   5   7    5.10    3.18
  -7  11   5    9.59    3.07
  -7   5  11    8.70    3.30
   7  11  -5    5.26    2.73
  -5   7  11    1.21    3.16
   5   7 -11   14.68    4.01
 -11   7   5   10.11    3.75
  -5  11   7    5.47    2.71
 -11   7   3  363.42   14.37
   3   7 -11  351.65   14.68
  -3  11   7  363.54   14.18
  -7   3  11  370.48   15.09
  -3   7  11  372.28   15.18
 -11   3   7  366.28   15.40
  -7  11   3  385.22   13.45
 -11   1   7 1474.92   32.49
  -7  11   1 1491.15   27.76
  -7   1  11 1385.52   30.98
   1   7 -11 1425.93   31.11
 -11   7   1 1440.14   29.57
 -11   7  -1 1442.00   28.33
  -7  -1  11 1419.67   30.55
  11   7   1 1475.77   24.11
  -7  11  -1 1441.47   25.92
 -11  -1   7 1433.23   31.71
  -7  11  -3  401.73   10.70
  -7  -3  11  357.64   13.60
 -11   7  -3  380.20   12.33
 -11  -3   7  374.41   14.67
  -7  -5  11    4.56    1.75
   9   9 -11 1412.42   35.97
  -9  11   9 1360.61   34.18
  -9   9  11 1341.80   34.87
 -11   9   9 1371.76   35.16
   9  11  -9 1393.18   34.69
  11   9  -9 1369.41   34.66
  -7  11   9  535.15   19.48
  11   9  -7  528.40   19.21
  -9   7  11  545.93   20.60
   9   7 -11  530.95   20.42
 -11   7   9  538.99   20.54
  -9  11   7  527.05   19.12
 -11   9   7  520.74   19.56
   7  11  -9  541.68   20.28
   9  11  -7  509.54   18.93
   7   9 -11  523.59   20.23
  -7   9  11  533.94   20.07
  11   9  -5  153.51    9.47
 -11   5   9  170.38   11.23
  -9  11   5  164.12   10.04
   5   9 -11  162.11   10.77
  -9   5  11  160.35   11.05
  -5   9  11  164.20   10.95
   9  11  -5  163.17    9.80
 -11   9   5  168.44   10.50
  -5  11   9  167.78   10.50
 -11   9   3  837.95   23.04
   9  11  -3  823.92   21.21
  -9   3  11  832.35   24.88
  -9  11   3  872.05   22.54
   3   9 -11  848.20   24.85
  11   9  -3  840.59   21.35
  -3  11   9  854.97   24.28
  -3   9  11  801.54   24.03
 -11   3   9  822.50   25.16
 -11   1   9 2358.24   45.76
  11   9  -1 2364.50   37.53
  -9  11   1 2451.48   40.53
  -9   1  11 2334.91   45.22
 -11   9   1 2374.30   41.38
 -11  -1   9 2370.85   45.62
  -9  -1  11 2368.81   44.83
 -11   9  -1 2408.66   40.24
  -9  11  -3  891.70   19.03
 -11  -3   9  852.97   24.07
 -11   9  -3  896.22   20.27
  -9  -3  11  847.22   23.42
  -9  -5  11  169.80    9.53
 -11  -5   9  180.15   10.45
 -11  11  11  497.66   21.83
  11  11 -11  521.26   22.42
  -9  11  11  831.71   27.50
  11   9 -11  845.84   28.35
 -11  11   9  876.89   27.99
 -11   9  11  845.86   28.29
   9  11 -11  848.16   28.22
  11  11  -9  860.07   27.47
  -7  11  11  570.05   21.60
  11   7 -11  618.10   23.04
 -11  11   7  575.30   21.22
   7  11 -11  601.19   22.55
 -11   7  11  594.38   22.95
  11  11  -7  570.86   20.63
  11  11  -5  113.59    8.44
  -5  11  11  107.72    9.41
 -11  11   5  112.06    8.93
 -11   5  11  120.54   10.22
  11  11  -3  560.66   17.45
 -11   3  11  604.79   22.27
  -3  11  11  603.38   21.33
 -11  11   3  578.02   19.40
 -11  11   1 1722.80   34.76
  -1  11  11 1774.58   39.30
 -11   1  11 1786.06   40.07
 -11  -1  11 1782.70   39.31
 -11  11  -1 1739.37   33.16
 -11  11  -3  610.53   16.48
 -11  -3  11  569.76   20.45
 -11  -5  11  126.51    9.08
   0   0  12 2285.09   37.99
   0   0 -12 2295.66   36.53
   2  -2  12   52.08    4.36
  -2  -2 -12   47.46    3.78
   2   2 -12   43.86    4.86
  -2   2  12   46.15    5.00
 -12   2   2   47.15    5.35
  -2  12   2   47.33    4.30
 -12   2   0  224.40   10.42
   0  -2  12  232.27    9.10
 -12   0   2  222.57   10.79
  -2   0  12  218.16    9.90
  -2  12   0  229.71    8.46
  -2   0 -12  240.33    9.08
   0   2  12  213.31   10.18
   0   2 -12  227.55    9.88
  -2  12  -2   42.89    3.12
  -2   2 -12   48.97    4.66
  -4   4  12  522.73   17.76
 -12   4   4  486.43   17.47
  -4  12   4  521.05   15.94
   4   4 -12  505.42   17.32
  -4   2  12  236.59   11.30
  -2  -4 -12  248.60    8.18
  -2   4  12  223.19   11.15
  -2  12   4  228.24   10.24
 -12   2   4  239.62   11.78
   2   4 -12  228.43   10.96
   2  -4  12  216.38    7.43
 -12   4   2  217.62   10.84
  -4  12   2  237.42    9.67
 -12   0   4    6.84    2.91
 -12   4   0   11.57    2.81
  -4   0  12    5.79    2.38
   0   4 -12    8.66    2.67
  -4  12   0   11.36    2.32
   0  -4  12    7.09    1.64
 -12   4  -2  213.88    9.77
 -12  -2   4  209.10   10.77
  -2  -4  12  214.27    8.14
  -4  12  -2  227.14    7.54
  -4  -2  12  211.77    9.63
  -4  -4  12  513.37   14.26
  -6   6  12  291.64   14.00
  -6  12   6  292.10   13.02
   6   6 -12  300.26   14.34
 -12   6   6  282.94   14.01
 -12   4   6  262.85   13.25
   4   6 -12  272.02   13.09
  -6  12   4  254.54   11.20
 -12   6   4  286.47   13.21
  -4   6  12  271.11   13.28
  -6   4  12  276.40   13.18
  -4  12   6  280.53   12.41
  -6  12   2    5.32    2.55
 -12   2   6    7.41    2.97
  -2   6  12    7.99    3.32
  -6   2  12    0.17    2.67
  -2  12   6    2.80    2.22
  -2  -6 -12    7.88    1.70
 -12   6   2    7.09    2.57
   2   6 -12   10.03    3.54
 -12   6   0  246.38   11.13
 -12   0   6  241.28   12.13
  -6  12   0  256.13    9.62
   0   6 -12  246.85   11.72
  -6   0  12  226.92   11.35
  -6  -2  12    8.54    3.00
  -6  12  -2    5.46    1.71
 -12  -2   6    2.56    2.71
 -12   6  -2    8.60    2.62
  -6  -4  12  280.75   11.35
 -12  -4   6  282.20   12.77
  -6  -6  12  296.35   10.69
  -8   8  12   88.29    8.61
   8   8 -12   81.50    8.45
  -8  12   8   90.01    8.25
 -12   8   8   91.71    8.68
  12   8  -8   90.58    8.32
   8  12  -8   72.71    7.69
  -8  12   6   16.13    4.02
  -6  12   8   11.69    3.30
   6   8 -12    8.66    3.71
  -6   8  12   20.16    4.81
  12   8  -6    8.11    3.16
  -8   6  12   18.02    4.70
 -12   8   6   11.62    3.82
 -12   6   8   12.91    4.32
   8   6 -12   13.01    4.03
 -12   8   4    1.65    2.59
  -4  12   8    8.90    3.12
  -4   8  12    2.27    3.23
  -8  12   4    2.26    2.76
  -8   4  12    9.79    4.35
 -12   4   8   -3.33    3.76
   4   8 -12    1.59    3.28
  12   8  -4    4.40    2.79
 -12   8   2  329.21   13.97
  12   8  -2  327.72   12.35
  -8  12   2  359.51   13.31
 -12   2   8  315.04   15.25
  -8   2  12  346.51   15.35
  -2   8  12  348.32   15.46
  -2  12   8  343.23   14.78
   2   8 -12  345.38   15.35
  12   8   0 1379.56   25.34
 -12   8   0 1374.74   29.35
  -8   0  12 1361.63   31.96
  -8  12   0 1399.85   27.43
 -12   0   8 1435.00   33.76
 -12  -2   8  362.97   15.43
 -12   8  -2  349.60   12.80
  -8  12  -2  363.58   11.59
 -12  -4   8    3.65    3.01
  -8  -4  12   -2.67    2.30
  -8  -6  12   15.02    3.11
 -12  10  10  544.06   22.55
  12  10 -10  530.89   22.11
 -10  12  10  557.32   22.28
  10  10 -12  549.85   22.94
 -10  10  12  515.40   22.19
  10  12 -10  525.51   21.89
  -8  10  12  504.03   20.95
  -8  12  10  492.40   20.08
  10  12  -8  483.97   19.71
 -12   8  10  469.82   20.70
   8  12 -10  518.22   21.21
  10   8 -12  474.86   20.71
   8  10 -12  480.67   20.56
  12   8 -10  490.72   20.63
 -12  10   8  504.43   20.73
 -10   8  12  477.30   20.72
  12  10  -8  502.90   20.10
 -10  12   8  516.83   20.31
 -12   6  10   71.18    8.06
 -10  12   6   73.74    7.79
  10   6 -12   72.47    7.95
 -12  10   6   70.27    7.48
   6  10 -12   67.35    7.95
  -6  10  12   63.76    7.82
  10  12  -6   66.55    6.93
  -6  12  10   60.67    7.35
  12  10  -6   64.91    6.93
 -10   6  12   65.34    7.87
  -4  10  12   96.99    8.79
  -4  12  10   75.98    7.94
 -10   4  12   79.05    8.24
   4  10 -12   83.96    8.37
  12  10  -4   90.06    7.18
 -12   4  10   87.09    8.64
 -12  10   4   89.35    8.08
 -10  12   4   88.12    7.73
 -10  12   2  883.68   23.18
  12  10  -2  806.36   20.51
 -12  10   2  812.09   23.25
 -10   2  12  856.47   26.56
  -2  12  10  841.58   25.50
 -12   2  10  801.17   26.07
  -2  10  12  815.13   25.62
 -10   0  12 1891.05   41.26
 -12   0  10 1888.11   41.77
 -12  10   0 1896.88   36.64
 -10  12   0 1934.91   35.40
 -12  -2  10  835.83   25.69
 -12  10  -2  834.81   21.12
 -10  -2  12  796.85   24.61
 -10  -4  12   77.29    7.10
 -12  -4  10   79.25    7.77
 -10  -6  12   67.57    6.43
  12  12 -12   16.03    5.49
 -12  12  12    7.13    5.07
 -12  10  12  126.91   11.72
  12  10 -12  136.92   12.00
  12  12 -10  129.68   11.34
  10  12 -12  129.63   11.79
 -12  12  10  132.33   11.46
 -10  12  12  140.18   12.17
 -12   8  12   97.05   10.30
   8  12 -12   84.27    9.24
  -8  12  12   94.83    9.64
 -12  12   8   95.59    9.61
  12  12  -8   72.60    8.10
  12   8 -12   85.61    9.42
  -6  12  12    5.28    4.61
  12  12  -6   -3.34    2.61
 -12  12   6   -3.83    4.07
 -12   6  12   -2.26    4.46
  12  12  -4   12.81    3.27
 -12  12   4   14.16    3.87
  -4  12  12   10.12    4.44
 -12   4  12   25.13    6.02
 -12  12   2  194.10   11.14
 -12   2  12  193.61   13.31
  -2  12  12  197.28   13.10
 -12   0  12 1059.74   31.34
 -12  12   0 1048.79   26.09
 -12  12  -2  204.21    9.97
 -12  -2  12  198.59   12.68
 -12  -4  12   20.05    4.90
  -1  -1 -13  679.71   16.69
   1  -1  13  637.90   17.34
 -13   1   1  676.07   19.74
  -1   1  13  634.39   18.67
   1   1 -13  646.24   18.13
  -1  13   1  664.68   16.55
   1  -1 -13  626.56   17.23
  -1  13  -1  663.77   14.97
  -1   1 -13  682.54   17.61
  -1  -1  13  644.95   17.67
  -3   3  13 1212.01   29.12
   3  -3  13 1293.89   24.35
 -13   3   3 1285.54   30.15
  -3  13   3 1242.36   26.33
   3   3 -13 1298.86   29.24
 -13   3   1  112.96    8.03
 -13   1   3  117.12    8.66
  -1   3  13  112.82    8.16
  -3  13   1  143.48    7.26
  -3   1  13  125.43    8.19
  -1  -3 -13  118.12    6.32
  -3  -1 -13  132.56    6.61
   1   3 -13   97.51    7.25
   1  -3  13  114.50    6.21
  -3  -1  13  107.60    7.14
  -1  -3  13  107.31    6.23
 -13   3  -1  112.26    7.74
  -3  13  -1  126.99    6.03
 -13  -1   3  125.46    8.78
  -1   3 -13  121.75    7.60
  -3  -3  13 1192.77   24.61
   5   5 -13 1198.28   30.08
  -5   5  13 1204.16   30.41
 -13   5   5 1169.16   30.01
  -5  13   5 1219.93   27.75
 -13   5   3 1097.30   27.87
 -13   3   5 1120.49   28.87
  -3   5  13 1152.20   28.80
  -5  13   3 1126.47   24.89
  -5   3  13 1143.70   28.42
   3   5 -13 1134.17   27.91
  -3  13   5 1132.57   26.41
   5   3 -13 1096.71   27.85
   1   5 -13   69.96    6.42
  -1  -5 -13   68.46    4.69
 -13   5   1   81.76    6.96
  -5   1  13   66.51    6.49
  -5  13   1   85.22    5.74
  -1   5  13   70.92    6.74
 -13   1   5   78.31    7.44
  -5  13  -1   70.04    4.74
 -13  -1   5   74.44    7.22
  -5  -1  13   65.18    5.91
 -13   5  -1   65.99    6.09
 -13  -3   5 1124.25   28.06
  -5  -3  13 1118.80   25.10
  -5  -5  13 1195.32   24.13
 -13   7   7  533.64   20.63
  -7   7  13  532.26   20.71
   7   7 -13  542.47   21.15
  -7  13   7  548.71   19.47
  -5  13   7  756.63   22.78
  -7   5  13  789.41   24.71
 -13   5   7  743.26   24.56
  -7  13   5  810.39   22.43
   7   5 -13  787.85   24.80
   5   7 -13  788.10   24.74
  -5   7  13  770.43   24.75
 -13   7   5  750.42   23.73
  -3  13   7  364.66   15.25
  -7  13   3  374.94   13.99
   3   7 -13  375.87   16.16
 -13   3   7  389.88   17.12
 -13   7   3  366.79   15.48
  -7   3  13  380.31   16.41
  -3   7  13  379.98   16.56
  -1   7  13   71.06    7.23
 -13   1   7   64.06    7.31
 -13   7   1   72.23    6.69
  -7   1  13   65.78    6.76
  -7  13   1   71.68    5.87
   1   7 -13   66.15    6.97
  -7  13  -1   71.48    5.28
  -7  -1  13   78.66    7.21
 -13  -1   7   77.16    7.55
 -13   7  -1   74.48    6.45
 -13  -3   7  380.00   16.03
  -7  -3  13  383.76   14.98
  -7  -5  13  759.62   20.21
  -9  13   9  221.09   13.59
  -9   9  13  199.44   13.78
   9   9 -13  195.86   13.69
  13   9  -9  207.89   13.24
 -13   9   9  202.35   13.87
  -9  13   7    3.35    3.37
  -9   7  13    5.41    4.27
 -13   7   9    1.32    3.80
   7   9 -13    5.10    4.05
  -7  13   9    2.20    3.19
   9   7 -13    7.89    4.70
  13   9  -7    4.95    2.90
 -13   9   7    4.63    3.07
  -7   9  13    4.40    3.83
   5   9 -13   83.69    8.74
  -9   5  13   96.09    9.25
  13   9  -5   91.93    7.93
 -13   5   9   97.75    9.57
  -5  13   9   90.16    8.35
  -5   9  13   89.66    8.80
  -9  13   5   85.79    7.64
 -13   9   5   83.17    8.18
  -3  13   9   -2.41    3.85
  -9   3  13    3.13    4.21
 -13   9   3    7.90    3.48
  13   9  -3    0.10    2.05
 -13   3   9    1.12    3.90
  -9  13   3    1.41    2.47
   3   9 -13    2.35    3.07
  -3   9  13    3.80    3.50
 -13   9   1  738.51   21.93
 -13   1   9  742.34   25.00
  -1  13   9  796.20   24.61
  -9   1  13  762.67   24.79
  -9  13   1  817.34   21.21
  -1   9  13  752.23   24.73
 -13  -1   9  776.20   25.12
  -9  -1  13  750.76   23.99
 -13   9  -1  766.36   21.32
  -9  13  -1  793.62   19.67
  -9  -3  13    3.26    2.56
 -13   9  -3    3.38    2.45
 -13  -3   9    3.76    3.87
  -9  -5  13   90.34    7.40
  13  11 -11   53.11    8.35
  11  11 -13   49.56    7.74
  11  13 -11   45.04    7.75
 -11  11  13   61.11    8.96
 -11  13  11   55.72    7.86
 -13  11  11   49.54    8.21
  13  11  -9  110.13   10.26
  -9  13  11  115.80   10.56
 -11   9  13  116.62   10.98
  -9  11  13  127.58   11.57
 -13  11   9  106.06    9.98
  13   9 -11  116.83   10.84
   9  11 -13  116.54   11.01
 -11  13   9  115.12   10.69
 -13   9  11  118.05   11.34
  11   9 -13  122.21   11.31
  11  13  -9  113.12   10.52
 -13   7  11    3.12    4.34
 -13  11   7   -4.81    4.29
  -7  11  13    3.06    4.36
   7  11 -13    6.31    4.77
 -11  13   7    3.51    3.26
  13   7 -11    0.77    4.58
  11   7 -13    5.98    4.81
  13  11  -7    5.48    3.37
 -11   7  13   -2.07    4.73
  -7  13  11   -0.98    3.30
 -13   5  11   87.12    9.80
  -5  11  13   89.04    9.19
 -11  13   5   86.42    8.22
 -11   5  13   80.05    9.38
  13  11  -5   89.00    8.00
  -5  13  11   85.12    8.95
 -13  11   5   84.88    8.19
 -11   3  13   -0.51    4.48
 -11  13   3   -0.27    2.99
 -13  11   3    3.55    2.73
 -13   3  11    2.37    4.03
  -3  11  13   -0.61    3.50
  -3  13  11    5.13    3.63
 -13   1  11  573.60   22.84
  -1  11  13  519.00   21.45
 -11   1  13  571.78   22.42
 -13  11   1  578.89   19.54
 -11  13   1  574.54   18.75
  -1  13  11  553.18   21.76
 -11  -1  13  569.09   21.97
 -13  -1  11  575.75   22.30
 -11  13  -1  596.13   17.93
 -13  11  -1  582.52   18.49
 -13  11  -3    1.33    2.60
 -13  -3  11    2.69    3.87
 -11  -3  13   -4.21    3.61
 -11  -5  13   78.37    7.81
 -13  -5  11  100.41    8.94
 -13  13  13  170.20   14.77
  13  13 -13  177.50   14.71
 -13  11  13   24.33    6.02
  13  13 -11   45.99    7.60
 -11  13  13   37.44    8.06
  13  11 -13   32.20    6.74
 -13  13  11   37.95    7.06
 -13   9  13   13.95    5.66
  13  13  -9   15.64    5.54
  -9  13  13   19.90    5.96
  13   9 -13   17.11    5.98
 -13  13   9    8.70    5.03
  -7  13  13  195.74   14.04
 -13   7  13  211.73   15.44
  13  13  -7  217.15   13.60
  13   7 -13  211.13   15.10
 -13  13   7  213.33   14.04
  -5  13  13  569.04   23.66
 -13  13   5  604.72   22.53
 -13   5  13  589.72   25.24
 -13  13   3  325.74   15.64
  -3  13  13  324.32   17.67
 -13   3  13  318.44   18.21
 -13  13   1   59.08    6.89
 -13   1  13   48.99    6.93
  -1  13  13   58.70    7.72
 -13  -1  13   56.23    7.64
 -13  -3  13  337.98   17.21
 -13  -5  13  597.53   22.36
   0   0 -14 1574.39   30.65
   0   0  14 1609.45   32.30
  -2   2  14   30.98    4.88
 -14   2   2   39.86    5.86
  -2  -2 -14   48.45    4.36
   2  -2  14   43.74    4.50
   2   2 -14   37.46    4.72
  -2  14   2   39.16    4.52
   0   2  14  140.26    9.20
  -2  14   0  145.16    7.15
   0  14  -2  137.57    6.27
   0  -2  14  136.99    7.72
   0  -2 -14  135.76    7.56
   0   2 -14  120.44    8.00
  -2   0 -14  143.34    7.73
   2   0 -14  136.14    8.33
   2   0  14  131.19    8.15
  -2   0  14  134.71    8.59
 -14   0   2  133.28    9.22
  -2  -2  14   41.50    4.38
  -2   2 -14   37.46    4.56
  -4   4  14 2583.69   48.58
 -14   4   4 2545.54   48.51
   4   4 -14 2632.38   48.14
  -4  14   4 2597.88   44.45
  -2  14   4 1127.15   26.43
 -14   2   4 1152.48   29.41
  -4   2  14 1112.20   28.32
   2   4 -14 1121.03   27.81
 -14   4   2 1083.17   27.96
  -4  14   2 1153.31   24.87
  -2   4  14 1074.22   28.30
   4   2 -14 1132.22   27.99
   0  -4 -14  362.04   12.17
   0   4 -14  360.53   14.38
  -4  14   0  397.33   12.27
  -4   0  14  349.62   14.49
 -14   4   0  344.97   14.17
   0   4  14  361.75   15.45
 -14   0   4  368.08   15.78
  -4  -2  14 1101.40   25.67
  -4  -4  14 2463.83   40.30
  -6   6  14 2010.16   43.31
  -6  14   6 1954.73   39.50
   6   6 -14 2021.30   43.58
 -14   6   6 1875.95   42.38
  -6   4  14 1972.05   42.04
  -4  14   6 2017.02   39.49
 -14   6   4 1930.46   41.15
  -6  14   4 2029.37   38.02
   6   4 -14 2008.15   42.10
   4   6 -14 1977.76   41.68
  -4   6  14 1903.26   41.74
 -14   4   6 1978.77   42.82
  -2   6  14  453.94   18.34
 -14   6   2  456.39   17.45
   2   6 -14  475.54   18.05
  -6  14   2  471.12   15.22
  -2  14   6  496.25   17.75
 -14   2   6  499.93   19.53
  -6   2  14  512.06   19.02
  -6  14   0   45.49    4.58
 -14   6   0   44.32    5.49
  -6   0  14   38.10    5.23
   0   6  14   38.87    5.18
 -14   0   6   56.19    6.87
  -6  -2  14  498.60   17.61
 -14  -2   6  517.15   19.32
  -6  -4  14 1905.50   36.05
   8   8 -14   68.92    8.40
  -8  14   8   77.30    8.14
 -14   8   8   71.57    8.20
  -8   8  14   73.99    8.89
  14   8  -8   80.58    8.24
  -6  14   8  716.12   23.38
  -6   8  14  700.54   24.73
  -8   6  14  730.63   25.64
   8   6 -14  733.57   25.49
   6   8 -14  694.27   24.95
 -14   6   8  707.46   25.26
  -8  14   6  723.85   22.84
 -14   8   6  685.53   24.11
  -4  14   8  608.95   21.34
  -8   4  14  652.57   23.39
  -8  14   4  658.54   20.40
 -14   4   8  595.51   22.91
   4   8 -14  608.61   22.36
  -4   8  14  633.01   22.96
 -14   8   4  594.07   21.36
  14   8  -2    2.79    2.47
 -14   2   8   -1.18    4.07
 -14   8   2    4.77    3.04
   2   8 -14   -2.66    3.65
  -8   2  14    0.26    3.10
  -8  14   2    0.51    2.37
  -2   8  14    1.42    3.54
  -2  14   8    3.40    3.09
  -8   0  14  326.24   15.59
 -14   0   8  295.63   15.53
  -8  14   0  325.92   12.45
 -14   8   0  300.22   13.65
   0   8  14  275.17   14.84
 -14  -2   8    1.55    3.67
 -14   8  -2    5.06    2.65
  -8  -2  14    1.52    2.97
  -8  -4  14  614.34   19.91
 -10  14  10  119.20   10.74
 -14  10  10  122.21   11.71
  14  10 -10  123.69   10.92
  10  10 -14  112.44    8.23
  10  10 -14   96.67   10.92
 -10  10  14  102.73   11.02
 -14   8  10   28.14    6.72
  14   8 -10   26.90    5.75
  -8  14  10   28.05    5.70
 -14  10   8   15.81    5.02
 -10   8  14   12.89    5.36
 -10  14   8   24.46    5.49
   8  10 -14   23.09    6.27
  14  10  -8   31.92    5.83
  10   8 -14   22.91    5.86
  -8  10  14   23.43    6.12
 -10  14   6  135.42   10.17
 -10   6  14  143.55   12.12
   6  10 -14  147.63   12.10
  -6  14  10  130.13   10.51
  -6  10  14  144.88   12.05
 -14   6  10  130.53   11.22
 -14  10   6  139.40   10.92
  14  10  -6  119.56    9.53
  10   6 -14  127.16   11.09
 -10  14   4  165.60   10.69
 -10   4  14  154.47   12.27
  -4  10  14  172.38   12.58
  -4  14  10  170.56   11.82
 -14   4  10  165.84   12.46
  14  10  -4  160.20   10.15
 -14  10   4  167.13   11.38
 -10   2  14   87.75    8.94
 -14  10   2  103.48    8.84
  -2  14  10  102.05    9.66
  -2  10  14   89.77    9.65
 -10  14   2   97.94    7.81
 -14   2  10   94.26    9.63
 -14  10   0  557.89   19.06
 -10  14   0  596.81   18.27
   0  10  14  585.80   22.81
 -14   0  10  622.62   23.81
 -10   0  14  573.80   22.33
 -14  -2  10  104.96    9.79
 -10  -2  14   98.07    8.95
 -14  10  -2   93.36    7.38
 -10  -4  14  170.01   11.21
 -14  -4  10  166.94   11.78
 -12  14  12   70.91    9.63
  12  12 -14   60.44    9.58
 -12  12  14   82.93   10.60
 -14  12  12   67.69    9.65
  14  12 -12   82.03   10.66
 -10  14  12    7.95    4.54
  14  10 -12   -1.07    4.44
 -14  10  12   14.42    5.77
 -14  12  10   15.33    5.40
 -10  12  14    2.27    4.76
 -12  14  10    4.57    4.88
  12  10 -14    9.81    5.00
  10  12 -14   11.23    5.21
  10  12 -14    4.70    3.38
 -12  10  14    4.38    4.61
  14  12 -10    5.76    3.86
 -12   8  14   42.28    8.34
  12   8 -14   40.69    7.47
  14   8 -12   51.83    7.99
 -14   8  12   43.97    7.45
 -12  14   8   30.84    6.46
  -8  14  12   50.69    7.61
  -8  12  14   40.14    7.85
 -14  12   8   52.12    7.88
  14  12  -8   36.34    6.58
   8  12 -14   48.47    5.59
  -6  12  14  408.07   20.19
  12   6 -14  405.71   20.68
 -12   6  14  404.42   20.91
 -14   6  12  424.93   21.61
 -12  14   6  416.50   18.89
  14  12  -6  406.93   17.90
  12   6 -14  392.67   15.46
  -6  14  12  421.18   20.03
 -14  12   6  413.49   19.13
  -4  14  12  538.12   22.73
  -4  12  14  561.86   23.59
 -14  12   4  549.51   21.32
 -12   4  14  558.73   24.26
 -12  14   4  567.11   21.13
 -14   4  12  566.69   24.45
 -14  12   2   25.15    4.94
 -14   2  12   19.71    5.75
 -12   2  14   22.49    5.80
  -2  14  12   18.92    5.23
 -12  14   2   19.55    4.60
  -2  12  14   39.74    7.60
 -14  12   0  124.49    9.16
   0  14  12  159.15   12.16
   0  12  14  125.89   11.52
 -14   0  12  133.63   11.79
 -12   0  14  131.59   11.38
 -14  -2  12   22.63    5.50
 -12  -2  14   21.54    5.54
 -14  -4  12  557.34   22.56
 -12  -4  14  578.26   22.27
  14  14 -14  679.04   22.60
 -12  14  14  264.95   18.21
  14  12 -14  268.40   18.38
 -14  14  12  241.42   17.14
  12  14 -14  271.14   13.71
 -14  12  14  247.86   17.78
 -10  14  14   98.07   11.19
 -14  14  10  120.50   11.80
  14  10 -14   91.70   11.39
  10  14 -14  114.80    8.68
 -14  10  14  101.88   11.17
   8  14 -14  321.27   13.77
  -8  14  14  324.70   19.18
  14   8 -14  312.03   19.18
 -14   8  14  340.24   20.39
 -14  14   8  334.25   18.49
  14   6 -14 1010.32   34.61
  -6  14  14 1009.64   33.98
 -14  14   6 1086.02   32.71
 -14   6  14 1061.68   36.08
 -14  14   4 1092.31   31.47
 -14   4  14 1102.11   36.37
  -4  14  14 1068.28   34.63
  14   4 -14 1074.11   27.59
  -2  14  14  192.88   14.45
 -14  14   2  180.98   11.78
 -14   2  14  163.03   13.82
  14   2 -14  176.21   10.48
   0  14  14   30.38    6.26
 -14   0  14   35.09    7.42
  14   0 -14   24.22    4.75
  14  -2 -14  151.25    9.65
 -14  -2  14  172.11   13.31
  14  -4 -14 1064.85   27.03
 -14  -4  14 1074.80   32.83
  14  -6 -14 1039.97   26.70
   1  -1  15  362.79   13.93
  -1  -1 -15  368.40   13.08
   1   1 -15  373.94   14.37
  -1  15   1  397.37   13.35
  -1  15  -1  386.81   11.75
   1   1  15  350.12   14.73
  -1  -1  15  361.31   14.09
   1  -1 -15  375.88   13.83
  -1   1 -15  383.63   14.01
  -3  15   3 1011.54   24.18
  -3   3  15  935.49   26.88
 -15   3   3  962.06   27.21
   3   3 -15  964.73   26.41
   3  -1  15  160.36    9.15
  -1  15   3  146.30    8.74
  -1   3  15  146.34   10.07
 -15   3   1  144.50    9.87
  -3   1  15  157.55    9.98
 -15   1   3  147.42   10.39
   3   1 -15  142.37    9.39
  -3  15   1  152.65    8.05
  -1  -3 -15  150.03    7.79
   1   3 -15  150.85    9.53
  -3  -1  15  161.45    9.61
   1  -3 -15  122.40    7.60
  -1   3 -15  162.65    9.62
   1   3  15  130.67    9.45
  -3  -3  15  881.14   22.00
 -15   5   5 2893.79   55.57
  -5  15   5 3079.73   51.85
   5   5 -15 2994.52   55.68
  -5   5  15 2976.10   55.96
  -5   3  15 1782.75   39.72
  -3   5  15 1818.56   40.42
 -15   5   3 1730.06   38.73
   5   3 -15 1825.25   39.49
   3   5 -15 1800.90   38.98
  -5  15   3 1855.45   35.24
 -15   3   5 1769.64   40.22
  -3  15   5 1790.93   36.69
 -15   5   1  650.91   21.26
   1   5 -15  639.16   20.98
  -5  15   1  695.68   18.25
 -15   1   5  649.38   22.70
  -1   5  15  658.45   22.73
  -5   1  15  633.16   21.66
  -1  15   5  681.42   21.01
  -5  -1  15  631.76   20.66
   1   5  15  603.46   21.46
  -5  -3  15 1713.26   34.62
  -7   7  15  888.59   29.28
   7   7 -15  940.95   29.97
 -15   7   7  908.99   29.27
  -7  15   7  917.84   27.01
  -5  15   7 1777.79   38.93
 -15   7   5 1781.37   41.10
   5   7 -15 1840.82   42.15
  -7  15   5 1823.10   37.80
  -7   5  15 1850.02   42.70
 -15   5   7 1720.16   41.81
  -5   7  15 1732.97   41.54
   7   5 -15 1792.93   41.76
  -3  15   7  689.83   22.39
  -7  15   3  694.74   20.56
   3   7 -15  685.28   23.45
  -3   7  15  638.09   23.51
 -15   3   7  658.54   23.93
   7   3 -15  666.74   23.51
 -15   7   3  624.95   22.10
  -7   3  15  691.17   24.10
 -15   1   7   10.40    4.37
  -1   7  15   10.77    3.61
  -7  15   1   13.02    3.06
  -7   1  15   18.68    4.62
 -15   7   1    9.32    3.39
  -1  15   7    8.91    3.52
 -15  -1   7   12.73    5.04
 -15   7  -1   11.21    3.58
  -7  -1  15   15.72    4.60
  -7  -3  15  650.35   21.07
   9   9 -15   88.41    7.62
  15   9  -9   81.05    8.97
  -9   9  15   88.54    9.93
 -15   9   9   80.15    9.60
  -9  15   9   95.47    9.87
   9   9 -15   87.95   10.46
  -7  15   9   96.15    9.25
 -15   7   9   79.52    8.90
 -15   9   7   76.70    8.41
  -7   9  15   82.84    9.59
  -9   7  15   97.65   10.52
   9   7 -15   91.35   10.09
  15   9  -7   76.79    8.30
   7   9 -15   77.19    8.97
  -9  15   7   80.81    8.14
 -15   5   9  508.83   22.38
 -15   9   5  486.83   20.65
  -5  15   9  511.40   20.71
  -5   9  15  496.20   21.66
   9   5 -15  506.40   21.90
  -9   5  15  508.62   22.20
  15   9  -5  503.25   19.09
   5   9 -15  510.87   21.81
  -9  15   5  528.36   19.60
 -15   9   3   60.01    7.18
  -9  15   3   64.74    6.64
  -3   9  15   53.40    7.52
  -9   3  15   46.11    7.34
  -3  15   9   35.63    6.14
 -15   3   9   49.17    7.99
 -15   1   9  257.02   15.47
  -1   9  15  253.31   15.16
  -9  15   1  240.52   11.61
 -15   9   1  247.64   13.27
  -9   1  15  257.20   15.03
  -1  15   9  260.61   14.73
 -15  -1   9  273.37   15.48
  -9  -1  15  246.95   14.22
   1   9  15  217.84   14.11
 -15   9  -1  250.60   12.50
 -15  -3   9   48.36    6.86
  -9  -3  15   39.54    6.15
 -11  11  15   21.54    6.31
 -15  11  11   21.22    5.03
  11  11 -15   19.63    4.82
 -11  15  11   17.62    5.30
  11  11 -15   15.91    5.49
  15  11 -11   18.95    4.83
   9  11 -15   46.32    6.09
  -9  11  15   61.64    8.94
  15   9 -11   49.10    8.11
  15  11  -9   36.42    6.37
 -11   9  15   40.14    7.51
 -15   9  11   51.34    8.14
 -15  11   9   39.14    7.37
  -9  15  11   38.43    7.05
  11   9 -15   35.36    7.28
 -11  15   9   36.30    5.74
   9  11 -15   32.49    7.16
  11   9 -15   36.20    5.45
   7  11 -15   31.59    4.83
  11   7 -15   38.21    5.27
  15  11  -7   33.84    5.95
 -15   7  11   45.80    8.05
  11   7 -15   36.55    7.99
  -7  15  11   41.60    6.76
  -7  11  15   27.14    6.23
   7  11 -15   45.57    7.88
  15   7 -11   38.45    7.19
 -15  11   7   37.07    6.31
 -11  15   7   30.19    5.96
 -11   7  15   46.16    7.76
 -15   5  11  348.58   19.42
  11   5 -15  368.48   15.00
 -15  11   5  353.93   17.74
  -5  15  11  378.88   18.92
 -11   5  15  387.47   20.31
  -5  11  15  345.30   18.74
  11   5 -15  344.02   18.81
 -11  15   5  363.63   16.98
  -3  11  15   58.28    8.03
 -11  15   3   56.49    6.67
  -3  15  11   56.08    8.00
 -15  11   3   54.28    6.49
 -15   3  11   53.52    7.89
 -11   3  15   56.23    8.26
  -1  11  15  137.69   11.72
 -11  15   1  137.61    9.30
 -15  11   1  120.28    9.50
 -15   1  11  157.01   12.61
 -11   1  15  138.54   11.93
  -1  15  11  144.18   11.79
   1  11  15  147.78   12.36
 -15  -1  11  135.93   11.70
 -11  -1  15  130.04   10.84
 -15  11  -1  149.45    9.98
 -15  -3  11   59.27    8.12
 -11  -3  15   63.47    7.92
 -13  15  13  373.08   21.35
  15  13 -13  313.27   19.82
  13  13 -15  369.64   16.27
  13  11 -15   71.17    9.94
 -11  13  15   99.41   12.09
 -11  15  13   88.47   10.98
 -13  11  15   65.90    9.26
 -15  11  13   83.88   11.01
 -15  13  11   95.49   10.66
  15  13 -11   80.89   10.22
  11  13 -15   85.52    8.13
  15  11 -13   89.05   10.83
  13  11 -15   73.82    7.86
 -13  15  11   79.75   10.03
   9  15 -13   77.10    6.84
  -9  13  15   89.97   10.52
 -15   9  13   98.40   11.60
 -15  13   9   94.55   10.45
 -13  15   9   79.11    9.17
   9  13 -15   83.65    7.73
 -13   9  15   77.95   10.55
  13   9 -15   86.11    8.00
  -9  15  13   76.31   10.07
  15   9 -13   74.43    9.53
  13   9 -15   89.32   10.74
  13   7 -15  500.52   18.51
  -7  15  13  484.02   22.98
  -7  13  15  511.92   24.00
  13   7 -15  567.49   25.74
   7  13 -15  489.17   17.02
 -13   7  15  545.19   25.68
 -13  15   7  511.72   22.20
  15   7 -13  537.25   24.79
 -15   7  13  505.47   24.54
 -15  13   7  480.64   22.18
 -15   5  13 1065.83   35.99
  -5  15  13 1022.73   33.93
  -5  13  15 1045.70   34.88
 -13  15   5 1135.34   32.40
  13   5 -15 1004.64   34.51
  13   5 -15 1006.61   26.94
 -15  13   5 1052.73   32.08
 -13   5  15 1084.38   36.48
 -13  15   3  548.40   20.87
  13   3 -15  527.66   18.62
 -15  13   3  511.71   20.83
  -3  13  15  550.87   24.38
  -3  15  13  551.88   24.24
 -13   3  15  542.38   24.77
 -15   3  13  537.57   24.84
  13   1 -15   11.65    3.26
 -15  13   1   13.78    4.42
  15   1 -13   15.43    4.06
 -15  13   1    6.86    3.10
 -15   1  13    8.50    5.05
  -1  13  15   10.51    5.20
  -1  15  13   16.02    5.62
 -13   1  15   15.86    5.93
 -13  -1  15   16.63    5.83
  15  -1 -13    6.69    2.70
   1  13  15   13.46    5.51
 -15  -1  13    3.69    3.93
   1  15  13   14.35    6.34
  13  -1 -15    5.92    3.37
  15  -3 -13  511.39   17.99
 -13  -3  15  526.16   22.66
 -15  -3  13  566.20   23.82
  13  -3 -15  529.37   18.48
  13  -5 -15 1085.30   27.68
  15  -5 -13 1078.30   27.03
  13  -7 -15  544.06   18.80
  15  15 -15  963.11   27.56
  13  15 -15  684.88   22.51
  15  13 -15  674.89   22.97
  15  11 -15  174.05   11.65
  11  15 -15  197.20   11.57
 -15  15   9  186.18   14.52
  -9  15  15  197.10   15.56
  15   9 -15  199.82   12.21
  15   9 -15  214.81   16.73
   9  15 -15  204.58   11.35
 -15   9  15  200.63   16.43
 -15   7  15  960.78   35.64
  -7  15  15  933.30   33.84
  15   7 -15  913.40   34.13
 -15  15   7  910.67   31.17
  15   7 -15  918.12   26.42
 -15  15   5 1711.34   42.47
  -5  15  15 1701.49   46.65
 -15   5  15 1819.21   49.68
  15   5 -15 1660.11   47.01
  15   5 -15 1655.19   36.90
 -15  15   3  959.27   29.28
  15   3 -15  911.75   26.01
  -3  15  15  988.92   34.56
 -15   3  15  952.83   34.91
  -1  15  15  133.09   12.99
 -15   1  15  153.22   14.08
  15   1 -15  159.60   10.67
 -15  -1  15  135.33   12.66
  15  -1 -15  142.62    9.88
   1  15  15  152.11   13.49
   3  15  15  983.26   35.45
  15  -3 -15  966.94   26.45
 -15  -3  15  968.63   32.83
  15  -5 -15 1714.60   36.92
   0   0  16 1107.75   27.95
   0   0 -16 1133.30   26.52
   0  16   0 1148.25   24.39
  -2   2  16   11.25    3.94
  -2  16   2   10.53    3.17
 -16   2   2   15.84    4.59
   2   2 -16   10.54    3.51
  -2  -2 -16   16.90    3.27
   0  16   2  101.41    7.43
   0   2  16   98.23    8.36
   2   0 -16   99.27    7.78
  -2   0  16  111.62    8.42
   0   2 -16   98.28    7.75
   2   0  16   94.94    7.66
  -2   0 -16  111.45    7.50
   0  -2 -16  114.41    7.53
   2   2  16    7.50    2.88
  -2  -2  16   15.44    3.65
   2  -2 -16   11.57    3.39
  -4  16   4 1351.20   30.52
  -4   4  16 1250.01   33.62
 -16   4   4 1233.95   33.39
   4   4 -16 1299.08   33.28
  -2  16   4  535.72   18.35
 -16   2   4  552.97   21.06
   4   2 -16  525.23   19.56
  -4   2  16  549.38   20.52
 -16   4   2  525.74   20.08
  -2   4  16  548.15   20.95
  -4  16   2  555.46   17.05
   2   4 -16  504.46   19.01
   0  16   4  219.87   11.67
   0   4  16  212.59   12.87
   4   0 -16  216.03   12.15
  -4   0  16  206.34   11.94
 -16   0   4  222.41   13.12
   0  -4 -16  214.58    9.86
   0   4 -16  216.47   11.94
  -4  -2  16  486.13   17.51
   2   4  16  492.71   19.47
 -16   6   6 1710.44   42.35
  -6  16   6 1805.89   38.98
  -6   6  16 1787.94   43.02
   6   6 -16 1777.02   42.59
  -4  16   6 1560.23   35.60
  -4   6  16 1476.21   38.24
 -16   4   6 1528.27   38.91
 -16   6   4 1452.10   36.85
  -6  16   4 1591.79   34.06
  -6   4  16 1511.81   38.34
   6   4 -16 1540.67   38.04
   4   6 -16 1493.85   37.33
  -2  16   6  539.92   19.80
  -6   2  16  478.22   20.18
  -2   6  16  517.93   21.14
 -16   2   6  529.54   21.64
  -6  16   2  538.30   17.48
 -16   6   2  518.43   20.03
   6   2 -16  509.14   20.31
   2   6 -16  526.47   20.34
  -6   0  16  135.83   10.27
   0  16   6  138.11   10.08
   0   6  16  132.42   10.55
 -16   0   6  149.44   11.59
 -16   6   0  132.03    9.75
  -6  -2  16  482.29   18.49
  -8  16   8    3.99    3.38
   8   8 -16    5.05    3.03
   8   8 -16    2.84    4.53
  -8   8  16    1.52    4.48
 -16   8   8    3.75    3.83
  16   8  -8    8.72    4.61
 -16   6   8  525.45   22.99
  -8   6  16  529.15   23.24
 -16   8   6  515.80   22.13
  -6  16   8  504.54   20.53
  -6   8  16  502.58   22.49
   8   6 -16  540.17   23.22
  -8  16   6  545.31   20.58
  16   8  -6  516.25   20.52
   6   8 -16  534.58   22.90
  -4  16   8  430.21   18.74
 -16   8   4  406.67   18.74
   4   8 -16  439.73   20.16
  -8  16   4  448.35   17.58
   8   4 -16  418.70   19.84
  -8   4  16  428.41   20.36
  -4   8  16  412.43   19.72
 -16   4   8  407.16   19.70
 -16   8   2   -5.15    3.92
 -16   2   8   -1.04    4.09
  -8   2  16   -4.42    4.18
  -8  16   2    1.41    2.41
  -2  16   8   -1.08    3.57
  -2   8  16    0.74    3.48
 -16   8   0  167.89   11.00
 -16   0   8  176.50   12.92
   0   8  16  147.77   11.93
   0  16   8  160.99   11.66
  -8   0  16  177.63   12.40
 -16  -2   8    2.75    3.54
  -8  -2  16    9.19    3.17
 -16  10  10  294.25   18.15
 -10  16  10  297.73   17.66
 -10  10  16  315.88   19.30
  16  10 -10  304.25   17.91
  10  10 -16  327.99   14.71
  10  10 -16  321.90   19.57
 -16   8  10  114.50   11.71
   8  10 -16  104.55   11.20
 -10   8  16  122.24   12.30
  -8  10  16   96.47   10.71
  -8  16  10  124.81   11.31
  10   8 -16  135.86    9.36
 -10  16   8  120.23   10.98
  16   8 -10  129.05   11.67
  16  10  -8  125.55   10.80
  10   8 -16  107.39   11.31
 -16  10   8  127.53   11.57
   8  10 -16  123.71    8.62
   6  10 -16   51.16    5.69
  10   6 -16   59.37    6.27
 -10   6  16   51.61    8.31
 -16   6  10   47.91    8.17
  -6  16  10   74.05    8.76
 -10  16   6   54.42    7.26
 -16  10   6   58.59    8.11
  -6  10  16   55.07    8.21
  10   6 -16   57.13    8.25
   6  10 -16   66.40    9.39
 -16  10   4   69.35    8.27
  -4  10  16   75.19    9.32
 -10   4  16   63.13    8.86
 -16  10   4   73.85    7.04
 -10  16   4   80.17    7.87
  10   4 -16   78.46    7.37
  -4  16  10   79.55    9.03
  10   4 -16   69.00    8.88
 -16   4  10   79.51    9.61
 -16  10   2   93.83    8.90
 -16   2  10   71.39    9.19
  -2  10  16   69.87    8.79
 -10  16   2   90.27    7.97
 -10   2  16   82.76    9.36
  -2  16  10   84.90    9.35
 -16   0  10  394.01   20.17
   0  10  16  375.27   19.57
 -10   0  16  370.35   18.80
   0  16  10  398.08   19.44
 -16  10   0  397.14   16.89
 -10  -2  16   67.99    7.83
 -16  -2  10   80.37    9.27
  10  -6 -16   68.98    7.06
  10  -8 -16  126.49    9.28
   8 -10 -16  138.87    9.55
 -12  12  16   17.48    6.50
 -16  12  12   22.69    6.14
  16  12 -12    4.59    5.84
  12  12 -16   13.26    4.54
 -12  16  12   10.94    5.49
  12  12 -16    0.12    5.65
 -10  16  12   25.02    6.83
  12  10 -16   27.05    7.02
 -16  10  12   20.48    5.37
  10  12 -16   23.66    5.14
 -16  12  10   21.27    6.15
  12  10 -16   28.59    5.56
 -12  16  10   21.79    6.77
  16  10 -12   14.82    5.31
 -10  12  16   18.62    6.45
 -12  10  16   32.91    8.20
  16  12 -10   22.21    5.50
 -12  16   8    3.91    4.21
  12   8 -16    3.86    3.55
 -12   8  16   -1.20    6.76
  12   8 -16    4.46    5.41
  -8  16  12    4.48    4.42
  -8  12  16    4.05    5.46
 -16   8  12   -4.14    5.48
  16   8 -12    4.38    4.86
 -16  12   8    4.90    4.96
   8  12 -16    2.94    2.96
  12   6 -16  250.57   16.89
 -16  12   6  280.26   16.46
 -16   6  12  264.45   17.94
  -6  16  12  260.30   16.43
  -6  12  16  270.81   17.51
 -12  16   6  257.60   15.20
  12   6 -16  281.07   13.77
 -12   6  16  288.33   18.60
   6  12 -16  265.38   12.39
 -16   4  12  310.20   19.17
  -4  16  12  321.85   18.43
  -4  12  16  335.94   19.20
  12   4 -16  320.03   14.39
 -16  12   4  300.76   16.46
  12   4 -16  310.39   18.71
 -12   4  16  332.76   19.82
 -12  16   4  342.57   16.65
  -2  12  16   10.71    5.13
  12   2 -16    7.17    3.42
 -16  12   2    2.52    3.30
 -16   2  12    7.40    5.29
 -16  12   2   10.84    3.57
 -12   2  16    6.21    5.59
  -2  16  12   10.16    5.45
 -16  12   0   63.90    7.09
 -16   0  12   73.08    9.73
  16   0 -12   57.56    6.47
 -16  12   0   66.88    6.52
 -12   0  16   47.06    7.60
  12   0 -16   68.88    6.85
   0  16  12   63.56    8.74
   0  12  16   39.36    6.63
  12  -2 -16    7.30    3.47
  16  -2 -12    0.14    3.50
 -12  -2  16    5.70    3.97
 -16  12  -2   10.51    2.75
   2  12  16   13.20    6.28
 -16  -2  12   19.92    6.28
  16  -4 -12  319.75   13.89
  12  -4 -16  317.26   14.37
  12  -6 -16  304.00   14.32
  12  -8 -16   -1.99    2.94
  14  14 -16  756.15   24.08
  16  14 -14  736.86   24.17
  14  16 -14  753.97   23.92
  12  14 -16  241.04   13.27
  12  16 -14  275.68   13.80
  14  12 -16  242.63   13.70
  10  14 -16   65.59    7.01
  10  16 -14   73.03    7.30
  14  10 -16   67.48   10.34
 -14  10  16   66.03   10.39
 -14  16  10   60.97    8.86
 -16  10  14   58.73    9.26
 -10  16  14   56.57    9.20
 -16  14  10   53.62    8.80
 -10  14  16   58.90    9.84
  14  10 -16   62.91    7.46
  16  10 -14   69.67   10.50
 -16  14   8  322.17   18.79
 -14  16   8  324.22   18.43
  -8  16  14  307.01   19.06
  -8  14  16  293.77   19.19
 -14   8  16  310.57   20.29
  16   8 -14  336.01   20.26
   8  14 -16  338.09   14.52
  14   8 -16  316.71   20.23
  14   8 -16  324.31   15.29
 -16   8  14  288.09   19.39
 -16   6  14 1178.99   39.64
  16   6 -14 1173.70   38.97
  14   6 -16 1217.47   39.67
  -6  16  14 1199.86   38.21
 -14   6  16 1235.37   40.68
  -6  14  16 1178.78   38.66
 -16  14   6 1138.63   35.10
  14   6 -16 1195.71   30.37
 -14  16   6 1197.59   35.30
 -16   4  14 1294.63   41.35
  14   4 -16 1209.23   30.57
 -16  14   4 1208.12   34.60
  -4  16  14 1257.07   39.16
  14   4 -16 1230.87   39.64
  16   4 -14 1226.52   30.76
  -4  14  16 1213.05   39.09
 -14   4  16 1315.23   41.55
 -14  16   4 1326.29   35.37
  -2  16  14  368.35   20.67
  -2  14  16  358.11   20.91
 -16   2  14  384.75   21.91
 -16  14   2  372.01   17.52
  14   2 -16  353.33   15.61
 -14   2  16  373.76   21.40
  16   2 -14  372.15   15.96
  16   0 -14   64.69    6.92
 -14   0  16   52.67    8.25
  14   0 -16   54.80    6.60
 -16   0  14   48.80    7.87
   0  16  14   52.87    8.74
   0  14  16   53.25    8.76
   2  16  14  383.64   21.84
   2  14  16  374.38   21.55
  14  -2 -16  351.00   15.49
 -14  -2  16  372.05   20.32
 -16  -2  14  373.34   20.64
  16  -2 -14  336.01   15.03
 -16  14  -2  382.95   15.22
  16  -4 -14 1243.24   30.37
  14  -4 -16 1239.08   30.72
  14  -6 -16 1185.25   29.84
  16  16 -16  522.58   19.20
  14  16 -16  648.42   21.68
  16  14 -16  646.50   22.43
  16  16 -14  641.40   21.99
  12  16 -16  231.70   12.62
  16  12 -16  202.78   12.90
  10  16 -16   15.43    3.80
  16  10 -16   27.78    6.01
  16   8 -16  171.81   11.78
 -16   6  16  833.68   33.99
 -16  16   6  856.57   30.27
  -6  16  16  853.60   33.08
  16   6 -16  859.90   25.86
  16   6 -16  878.64   34.18
  -4  16  16  920.38   34.57
 -16   4  16 1018.24   37.13
  16   4 -16  891.69   34.60
  16   4 -16  926.74   26.77
  -2  16  16  244.91   17.84
 -16   2  16  240.71   17.97
  16   2 -16  223.32   12.89
  16   0 -16   25.86    5.33
   0  16  16   30.87    7.65
 -16   0  16   25.40    6.13
 -16  -2  16  249.41   17.14
  16  -2 -16  228.12   12.86
   2  16  16  247.87   18.51
   4  16  16  991.26   37.23
  16  -4 -16  963.78   26.99
  16  -6 -16  917.16   26.21
   1   1 -17  564.63   19.45
  -1   1  17  581.75   20.89
  -1  -1 -17  608.37   18.37
   1  17   1  601.28   18.25
   1   1  17  578.40   20.74
   1  -1 -17  604.25   19.34
  -1   1 -17  625.37   19.56
   3   3 -17  116.77    9.51
  -3   3  17  121.44   10.01
  -3  17   3  134.77    9.08
 -17   3   3  128.19   10.55
  -1   3  17    2.13    3.48
  -3   1  17    3.59    2.93
  -1  17   3    0.81    2.60
   3   1 -17    3.92    3.11
   1   3 -17    2.65    3.40
  -3  -1  17   -0.74    2.94
   1   3  17    1.59    3.29
   3  -1 -17    1.43    2.64
   3   1  17    1.49    3.06
   1  -3 -17    0.63    2.54
   3   3  17  113.88    9.55
   3  -3 -17  112.49    8.46
  -5  17   5 1005.93   27.31
  -5   5  17  922.03   30.03
 -17   5   5  931.75   30.07
   5   5 -17  957.86   29.66
  -3  17   5  439.31   17.51
 -17   3   5  443.99   20.04
  -3   5  17  414.61   19.40
  -5  17   3  445.04   16.48
   5   3 -17  446.36   19.25
  -5   3  17  417.92   19.27
 -17   5   3  422.60   18.95
   3   5 -17  410.85   18.46
  -1  17   5   76.22    7.47
  -1   5  17   79.10    8.83
  -5   1  17   86.55    8.63
 -17   5   1   84.26    8.23
   5   1 -17   70.47    7.59
 -17   1   5   88.82    9.25
   1   5 -17   83.24    8.29
  -5  -1  17   90.20    8.43
   1   5  17   71.03    8.46
 -17   7   7  181.17   10.68
 -17   7   7  180.76   13.83
   7   7 -17  194.83   14.70
  -7  17   7  187.23   12.55
  -7   7  17  175.30   13.97
   7   7 -17  185.88   10.54
 -17   5   7  517.12   17.94
 -17   7   5  528.88   18.31
  -5  17   7  591.62   21.93
 -17   5   7  594.07   24.50
 -17   7   5  559.19   22.91
  -5   7  17  557.89   23.61
  -7  17   5  580.59   20.87
  -7   5  17  575.62   24.21
   7   5 -17  587.95   23.90
   5   7 -17  578.38   23.54
  -7  17   3  169.61   10.35
  -3  17   7  152.53   11.24
  -3   7  17  153.45   12.42
 -17   3   7  136.83   11.87
 -17   7   3  145.23   11.40
  -7   3  17  191.39   13.47
   3   7 -17  152.11   11.93
   7   3 -17  172.42   12.68
  -1  17   7    3.57    3.48
   7   1 -17    4.76    4.14
 -17   7   1    4.05    3.52
 -17   1   7   11.43    5.17
  -7   1  17    2.71    3.50
  -1   7  17   12.85    4.71
  -7  -1  17    6.49    3.55
 -17  -1   7   12.33    5.35
   1   7  17    9.57    4.39
   7  -7 -17  216.06   12.20
 -17   9   9  557.41   25.15
  -9   9  17  580.09   26.24
  -9  17   9  590.05   24.16
   9   9 -17  588.41   26.59
   9   9 -17  575.75   19.54
  17   9  -9  567.73   24.29
 -17   9   7   49.25    7.79
   9   7 -17   41.86    5.81
  -7  17   9   51.10    7.85
  -7   9  17   57.76    8.79
  -9  17   7   51.19    6.55
   7   9 -17   56.60    6.28
  -9   7  17   30.98    7.26
  17   9  -7   49.96    7.25
   9   7 -17   38.04    7.57
   7   9 -17   39.88    7.47
 -17   7   9   42.07    7.41
   9   5 -17   11.49    3.12
   5   9 -17   13.99    3.87
  -5  17   9   16.35    4.82
 -17   5   9   19.55    4.43
  -5   9  17   16.34    5.54
 -17   5   9   21.92    6.62
 -17   9   5   22.75    5.59
 -17   9   5   19.30    3.74
  -9  17   5   26.44    5.39
   5   9 -17   13.88    5.11
  -9   5  17   22.33    6.31
   9   5 -17   21.16    6.21
  -3  17   9   32.11    6.23
   9   3 -17   25.62    4.44
 -17   3   9   23.21    6.39
 -17   3   9   29.96    4.69
 -17   9   3   30.85    4.88
  -3   9  17   19.23    5.59
 -17   9   3   25.51    5.98
   9   3 -17   22.87    5.52
  -9  17   3   31.38    5.11
  -9   3  17   35.04    7.12
  -1   9  17  409.41   20.61
 -17   9   1  415.04   16.14
 -17   9   1  390.70   17.81
   9   1 -17  422.80   16.30
 -17   1   9  402.70   20.60
  -1  17   9  443.71   20.38
  -9   1  17  431.00   20.71
   1  17   9  436.38   20.40
   1   9  17  371.76   19.82
   9  -1 -17  411.60   16.22
 -17  -1   9  434.40   21.11
  -9  -1  17  422.92   19.77
   3  -9 -17   28.54    5.06
   9  -3 -17   33.93    4.67
   5  -9 -17   14.60    3.55
   9  -5 -17   25.14    4.85
   7  -9 -17   41.25    5.97
   9  -7 -17   46.27    6.00
   9  -9 -17  641.52   21.42
 -11  11  17  246.80   18.35
 -17  11  11  231.68   16.72
 -11  17  11  241.04   16.42
  11  11 -17  291.49   14.14
  17  11 -11  251.20   16.72
  11  11 -17  295.78   19.65
 -17  11   9  401.08   21.51
 -17   9  11  385.58   21.61
  -9  11  17  366.24   21.26
  17   9 -11  338.19   19.80
  -9  17  11  380.72   20.37
 -11   9  17  415.41   23.07
 -11  17   9  394.28   20.37
   9  11 -17  408.43   16.43
  11   9 -17  404.84   16.75
  11   9 -17  426.91   22.82
   9  11 -17  376.49   21.86
 -11   7  17   47.35    8.29
  11   7 -17   37.39    7.66
  -7  17  11   42.21    7.39
 -17  11   7   49.25    7.69
  -7  11  17   40.22    7.60
  11   7 -17   44.21    6.09
  17   7 -11   41.64    7.58
   7  11 -17   35.76    5.42
 -11  17   7   45.56    6.90
 -17   7  11   39.99    8.08
   5  11 -17   14.88    3.46
  11   5 -17   19.53    4.10
  -5  17  11   25.03    6.54
 -11  17   5   19.72    4.73
 -17  11   5   11.85    3.92
 -17   5  11   20.68    6.20
  -5  11  17   17.99    5.52
  11   5 -17    9.48    5.05
 -11   5  17   19.39    7.10
  -3  17  11   12.68    5.45
  11   3 -17   -1.29    3.81
  -3  11  17   -2.33    5.32
 -11   3  17   11.49    5.78
 -17   3  11    5.96    5.05
 -17  11   3    7.60    3.75
  11   3 -17    5.15    5.38
 -17  11   3    0.71    4.70
  -1  11  17  217.36   16.05
  -1  17  11  234.54   15.73
 -17  11   1  250.63   12.66
 -17  11   1  191.10   12.32
 -17   1  11  205.94   15.39
  11   1 -17  204.68   11.60
 -11   1  17  226.04   15.81
   1  11  17  209.50   15.76
 -11  -1  17  216.43   14.91
   1  17  11  244.41   16.35
 -17  11  -1  202.08   11.34
 -17  -1  11  203.35   15.24
  11  -1 -17  220.32   12.05
  17  -1 -11  225.40   11.82
   3  11  17    7.76    5.00
  11  -3 -17    3.74    3.26
  17  -3 -11    1.12    3.33
 -17  11  -3   11.54    3.78
 -17  11  -5   16.42    4.08
  11  -5 -17   16.88    3.91
   5 -11 -17   13.45    4.06
   7 -11 -17   49.45    6.36
  11  -7 -17   43.52    6.29
  11  -9 -17  423.85   17.25
  13  17 -13  124.76    9.57
  13  13 -17  112.41    9.53
  13  11 -17   -0.28    4.50
  11  17 -13    6.60    4.25
  11  13 -17   -2.51    4.42
   9  13 -17    5.13    3.59
  13   9 -17   10.44    4.80
  -9  13  17    5.24    5.05
 -13   9  17    9.53    6.20
 -13  17   9    6.55    4.82
 -17   9  13    1.00    4.30
  -9  17  13    2.16    4.96
 -17  13   9    0.24    4.69
  17   9 -13   -3.09    6.21
  13   9 -17   -4.71    6.36
  17   7 -13  125.76   12.90
 -17  13   7  136.19   12.09
  -7  17  13  135.07   12.77
  -7  13  17  131.15   13.08
   7  13 -17  139.44    9.35
  13   7 -17  145.94   10.46
 -13   7  17  138.67   14.21
 -13  17   7  131.82   11.71
 -17   7  13  139.16   13.82
  13   7 -17  125.63   13.22
 -17   5  13  539.57   25.94
  -5  17  13  492.67   23.81
  -5  13  17  498.97   24.73
  13   5 -17  454.41   23.88
 -13  17   5  480.79   21.09
  13   5 -17  493.21   18.86
 -13   5  17  498.45   25.31
 -17  13   5  489.82   22.05
 -13   3  17  256.90   18.20
  -3  13  17  251.07   17.46
 -17   3  13  253.26   17.65
 -17  13   3  232.24   14.41
  13   3 -17  230.11   16.96
  -3  17  13  272.24   18.03
  13   3 -17  236.12   12.94
  17   1 -13    7.48    3.80
 -17  13   1    1.93    3.65
  -1  17  13   -3.79    5.27
 -17  13   1   -0.85    3.53
 -13   1  17   11.84    4.99
 -17   1  13    5.44    6.15
  13   1 -17    2.92    3.36
  -1  13  17    6.67    5.44
  13  -1 -17    8.26    4.28
  17  -1 -13   -0.29    3.83
 -13  -1  17   -3.92    5.94
 -17  13  -1    2.33    3.07
   1  17  13    2.63    5.13
   1  13  17   -0.70    4.89
 -17  -1  13    9.41    5.62
   3  17  13  292.05   19.17
  17  -3 -13  249.01   12.87
 -17  13  -3  262.82   12.92
  13  -3 -17  249.67   13.28
   3  13  17  250.18   18.03
  13  -5 -17  498.79   18.83
  17  -5 -13  509.33   18.25
  13  -7 -17  131.82    9.75
  15  17 -15  572.03   20.12
  15  15 -17  548.81   20.03
  17  15 -15  527.11   20.20
  13  15 -17  343.12   15.87
  15  13 -17  340.20   16.20
  13  17 -15  363.90   15.92
  17  13 -15  357.52   16.68
  15  17 -13  352.70   16.10
  11  15 -17   35.27    5.82
  11  17 -15   34.82    5.60
  17  11 -15   29.36    6.10
  15  11 -17   38.07    6.63
  15   9 -17   27.82    6.13
  17   9 -15   19.08    5.40
   9  15 -17   23.24    4.56
 -15  17   7  379.57   19.95
 -17  15   7  376.50   20.10
 -15   7  17  413.21   24.03
  17   7 -15  378.53   22.40
  15   7 -17  395.26   17.24
  17   7 -15  365.91   16.77
  17   5 -15  936.34   35.31
  15   5 -17  923.71   26.99
 -17  15   5  872.32   30.19
 -15   5  17 1009.10   37.55
  -5  17  15  952.98   34.98
  -5  15  17  924.74   34.87
  17   5 -15  980.19   27.66
  15   5 -17  899.71   34.97
 -17   5  15  955.32   36.42
  -3  17  15  534.39   26.06
  -3  15  17  538.62   26.24
 -17   3  15  574.65   27.62
  15   3 -17  521.76   19.62
 -15   3  17  547.97   27.13
  17   3 -15  471.92   18.86
  -1  17  15   60.99    9.40
  17   1 -15   54.35    6.84
 -15   1  17   53.21    8.90
  15   1 -17   50.51    6.65
  -1  15  17   61.25    9.01
 -17   1  15   51.95    9.54
  15  -1 -17   66.20    7.56
  17  -1 -15   55.15    7.04
   1  17  15   61.07   10.15
 -17  -1  15   56.13    9.49
   1  15  17   69.72   10.52
 -15  -1  17   53.84    8.44
   3  15  17  546.62   27.13
  17  -3 -15  533.59   19.54
   3  17  15  551.38   27.43
  15  -3 -17  514.60   19.46
   5  15  17  987.81   37.24
  15  -5 -17  925.75   26.60
  17  -5 -15 1008.66   27.38
  15  -7 -17  411.58   17.18
  17  17 -17   59.40    6.78
  15  17 -17  240.28   12.34
  17  15 -17  211.86   12.40
  17  17 -15  238.73   13.04
  13  17 -17   77.49    7.51
  17  13 -17   78.42    8.48
  17  17 -13   66.46    7.87
  17  11 -17    6.54    4.67
  11  17 -17   16.13    4.67
  17   9 -17   26.52    6.13
  17   7 -17   28.44    5.95
  17   5 -17  209.75   13.04
  17   3 -17   57.51    7.54
  17   1 -17   21.76    5.80
  17  -1 -17   26.19    5.41
  17  -3 -17   53.84    7.07
  17  -5 -17  224.41   12.85
   0   0 -18 1598.29   34.52
  -2   2  18  252.09   14.52
   2   2 -18  248.67   13.72
   0  18   2  648.72   20.36
   0  -2 -18  666.84   19.99
   0   2  18  643.13   23.31
  -2   0  18  640.46   22.21
   2   0 -18  654.93   21.68
   0   2 -18  642.42   21.46
   2   2  18  239.10   14.09
   2  -2 -18  257.50   13.01
   4   4 -18  121.21   10.70
  -4  18   4  129.78    9.42
  -4   4  18  129.23   11.20
 -18   4   4  100.67   10.13
  -2  18   4    3.07    2.92
  -2   4  18    8.27    5.13
 -18   2   4    1.08    3.63
  -4   2  18    2.55    3.45
   4   2 -18   -5.76    3.78
   2   4 -18   -2.67    3.42
   0   4  18   46.39    7.18
  -4   0  18   45.43    6.58
   0  18   4   36.84    5.59
   4   0 -18   35.78    5.64
   4  -2 -18    2.99    2.81
   4   2  18   -2.06    3.29
   2   4  18    0.73    3.46
   2  -4 -18    0.15    2.81
 -18   6   6  194.84   11.32
 -18   6   6  200.05   14.27
  -6  18   6  196.82   12.41
  -6   6  18  188.55   14.06
   6   6 -18  199.15   11.12
   6   6 -18  207.40   14.68
 -18   4   6  173.09   10.33
 -18   6   4  159.13   10.24
  -4  18   6  195.62   12.46
 -18   4   6  167.93   13.09
  -6  18   4  192.85   11.61
  -6   4  18  175.41   13.40
 -18   6   4  159.62   12.43
   6   4 -18  160.17    9.79
   6   4 -18  169.97   12.86
  -4   6  18  160.84   13.02
   4   6 -18  169.47   12.77
  -2   6  18    2.32    4.34
 -18   6   2    5.55    2.88
 -18   2   6   -4.65    4.69
 -18   6   2   11.65    5.43
  -6   2  18    3.56    3.20
  -2  18   6    4.22    4.03
   6   2 -18    2.05    3.59
   2   6 -18   -0.37    3.42
   6   2 -18    2.20    3.34
   0  18   6   57.29    7.17
  -6   0  18   52.60    7.39
   6   0 -18   41.17    6.33
   0   6  18   43.48    6.98
   2   6  18    1.50    4.38
   6  -2 -18   -0.89    2.56
   4  -6 -18  206.53   11.98
   6  -4 -18  198.59   11.62
   6  -6 -18  224.64   12.47
  -8  18   8  360.04   18.28
 -18   8   8  361.73   20.17
  -8   8  18  347.66   20.13
  18   8  -8  320.48   17.84
   8   8 -18  332.35   14.67
   8   8 -18  345.35   20.26
   8   6 -18   -0.66    3.41
 -18   8   6    1.81    4.03
  -6  18   8    9.16    5.00
  -6   8  18    8.16    4.64
 -18   6   8   16.26    4.53
 -18   8   6    1.02    3.53
 -18   6   8    1.49    4.58
  -8  18   6    4.23    3.92
   6   8 -18   15.08    4.52
  -8   6  18    1.76    4.62
   6   8 -18    9.51    5.70
   8   6 -18   -0.42    4.07
   8   4 -18    8.83    3.70
  -4  18   8   -0.67    4.60
  -4   8  18    9.90    5.03
 -18   8   4    6.37    4.15
   4   8 -18    3.10    4.75
 -18   4   8    5.18    2.99
 -18   8   4    0.45    3.22
  -8   4  18   16.65    5.91
   8   4 -18   -6.53    5.74
 -18   4   8   -0.55    4.17
   4   8 -18    9.35    2.76
  -2  18   8  239.68   14.73
  -2   8  18  236.89   15.89
 -18   2   8  223.90   11.73
 -18   8   2  230.78   12.40
 -18   2   8  237.93   16.07
   8   2 -18  257.75   15.94
   8   2 -18  233.81   12.30
 -18   8   2  240.14   14.54
  -8   2  18  255.67   16.34
   0  18   8  570.86   23.27
   0   8  18  454.23   21.96
 -18   0   8  479.42   17.22
 -18   8   0  544.94   18.96
   8   0 -18  561.50   19.16
  -8   0  18  547.08   23.13
 -18   0   8  521.30   23.56
   2   8  18  216.90   15.58
   2  -8 -18  253.57   13.23
 -18   8  -2  230.15   12.16
   8  -2 -18  240.38   12.54
   4  -8 -18    0.41    3.48
   8  -4 -18    4.86    3.11
   6  -8 -18    3.99    3.73
   8  -6 -18    3.01    3.41
   8  -8 -18  358.11   16.14
 -18  10  10  969.66   34.72
 -10  18  10  982.59   33.35
 -10  10  18 1021.25   36.93
  10  10 -18  988.81   27.04
  18  10 -10  935.18   32.73
  10  10 -18  971.33   36.11
  -8  10  18  701.08   29.41
 -18   8  10  708.10   29.17
 -18  10   8  686.84   28.00
   8  10 -18  656.15   21.15
  -8  18  10  690.06   27.19
 -10  18   8  698.86   26.58
  18   8 -10  644.89   27.05
 -10   8  18  694.26   29.70
  10   8 -18  654.35   21.62
  10   8 -18  672.80   28.99
   8  10 -18  664.39   28.92
  -6  10  18  106.81   11.82
 -18   6  10  109.63   11.79
  -6  18  10  117.36   11.22
   6  10 -18  115.10    8.75
 -18  10   6  103.05   10.46
 -10  18   6  122.65   11.07
 -10   6  18   89.99   11.23
  10   6 -18  105.60   11.69
  10   6 -18  115.96    8.93
 -10   4  18   65.89    9.21
  10   4 -18   66.53    7.10
  -4  18  10   58.63    8.44
  -4  10  18   71.26    9.77
   4  10 -18   65.61    6.27
 -18   4  10   78.34   10.01
 -18  10   4   65.30    7.05
  10   4 -18   64.63    9.15
 -18  10   4   63.15    8.21
  -2  18  10  333.30   18.78
 -18   2  10  359.66   15.09
  -2  10  18  380.82   21.00
 -18  10   2  359.41   15.51
 -18   2  10  364.74   20.65
  10   2 -18  363.31   19.88
  10   2 -18  357.09   15.47
 -18  10   2  341.81   17.45
 -10   2  18  386.91   20.91
   0  18  10  693.37   27.24
   0  10  18  627.76   27.08
 -18   0  10  693.73   20.75
 -18  10   0  676.20   21.63
 -18   0  10  630.07   27.10
  10   0 -18  651.30   21.34
 -10   0  18  679.66   27.02
   2  10  18  327.37   19.83
 -18  -2  10  351.17   14.32
 -18  10  -2  372.00   15.82
   2  18  10  370.02   20.36
  10  -2 -18  383.89   16.17
  18  -2 -10  370.57   15.28
 -18  10  -4   75.57    7.07
   4 -10 -18   64.33    7.00
  10  -4 -18   73.14    7.42
  10  -6 -18  129.74    9.99
 -18  10  -6  132.74    9.35
   6 -10 -18  117.10    9.40
 -18  10  -8  774.92   22.67
  10  -8 -18  707.25   23.20
   8 -10 -18  720.03   23.00
  10 -10 -18 1055.11   28.36
  12  12 -18  153.20   10.89
  10  12 -18  427.28   17.15
  12  10 -18  403.15   17.32
  18  10 -12  388.26   21.74
 -12  18  10  392.65   21.20
  18   8 -12  219.04   16.35
 -18   8  12  228.22   17.03
 -18  12   8  233.20   16.34
  -8  12  18  247.96   18.18
  -8  18  12  250.76   16.98
   8  12 -18  251.55   12.81
  12   8 -18  245.68   13.33
  12   8 -18  230.56   17.47
 -12   8  18  245.59   18.23
 -12  18   8  207.82   14.80
   6  12 -18    4.25    3.32
  12   6 -18  -11.37    5.02
 -12   6  18    9.62    6.88
  -6  18  12   -1.47    5.09
 -18   6  12   -0.53    5.38
  -6  12  18    4.75    5.42
 -18  12   6    3.32    4.21
  12   6 -18   -2.68    4.53
  -4  12  18    9.11    5.85
 -12   4  18    8.68    5.69
  12   4 -18    0.33    3.57
 -18   4  12   -5.97    6.98
  -4  18  12    6.11    4.62
 -18  12   4   -2.58    4.57
  12   4 -18    2.98    4.13
  -2  18  12   59.51    9.42
  12   2 -18   63.40    6.88
  -2  12  18   64.11    9.06
 -18   2  12   40.55    7.90
  12   2 -18   75.79    9.92
 -18  12   2   71.65    7.57
 -18  12   2   61.89    7.85
 -12   2  18   81.03   10.64
   0  18  12  275.88   18.18
 -12   0  18  259.46   17.45
   0  12  18  246.98   17.69
 -18  12   0  275.70   13.68
 -18   0  12  264.75   18.05
  12   0 -18  261.71   13.80
  18   0 -12  267.48   13.61
  18  -2 -12   68.67    7.11
  12  -2 -18   65.28    6.91
 -18  12  -2   71.50    7.26
   2  18  12   64.79    9.11
   2  12  18   69.95   10.41
   4  12  18    3.52    4.77
  18  -4 -12    4.52    3.06
 -18  12  -4   10.52    4.08
  12  -4 -18    4.02    3.35
 -18  12  -6    1.80    3.25
  12  -6 -18    1.36    3.69
   8 -12 -18  239.25   12.98
  12  -8 -18  256.54   13.74
  14  18 -14  202.35   11.84
  18  14 -14  180.39   12.35
  14  14 -18  183.60   11.86
  14  12 -18   15.32    5.27
  12  18 -14    6.73    3.90
  12  14 -18    5.75    4.13
  14  10 -18   19.26    5.07
  10  14 -18   31.02    5.54
  14   8 -18    5.75    4.03
   8  14 -18    6.36    4.07
 -18   6  14  233.30   17.73
 -18  14   6  236.40   15.79
  18   6 -14  250.24   18.35
  -6  18  14  213.56   16.40
  -6  14  18  249.54   18.32
 -14   6  18  229.83   18.07
  14   6 -18  216.53   17.44
  14   6 -18  253.57   13.96
  18   6 -14  210.84   12.86
  -4  18  14  313.43   19.92
 -18   4  14  349.84   21.57
  -4  14  18  321.57   20.21
  14   4 -18  307.19   20.45
 -18  14   4  301.14   17.17
 -14   4  18  357.26   21.97
  18   4 -14  334.04   15.72
  14   4 -18  344.13   16.00
  -2  18  14   45.54    8.97
 -18   2  14   38.84    9.07
  -2  14  18   44.87    8.37
  18   2 -14   37.58    6.53
  14   2 -18   29.15    6.69
 -14   2  18   25.64    7.18
  14   2 -18   28.07    5.74
  14   0 -18    9.68    4.27
  18   0 -14    7.22    3.98
   0  14  18    0.83    5.63
 -14   0  18   11.05    6.23
 -18   0  14   11.85    6.73
   0  18  14    5.96    3.91
  14  -2 -18   38.33    6.15
  18  -2 -14   39.83    5.82
 -18  14  -2   43.79    5.79
   2  18  14   43.39    8.56
   2  14  18   18.76    5.82
  14  -4 -18  333.36   15.68
  18  -4 -14  343.67   15.47
   4  18  14  363.91   22.53
  14  -6 -18  246.82   13.62
  14  -8 -18    6.65    4.06
  16  16 -18  133.94    9.57
  16  18 -16  141.21    9.45
  18  16 -16  131.58    9.97
  16  14 -18  157.91   10.70
  14  16 -18  169.76   10.75
  14  18 -16  162.64   10.44
  18  14 -16  165.06   11.53
  16  18 -14  162.30   10.79
  18  16 -14  165.69   11.28
  12  16 -18    2.16    3.97
  12  18 -16   -4.44    4.41
  16  12 -18    4.56    4.38
  18  12 -16    8.85    5.45
  10  16 -18   40.75    5.84
  16  10 -18   31.82    6.41
  18  10 -16   42.83    7.09
  16   8 -18    6.01    5.20
  18   8 -16    3.55    4.43
  18   6 -16  150.01   10.76
  16   6 -18  142.42   10.89
  16   4 -18  186.30   12.07
  18   4 -16  182.26   12.11
  16   2 -18    0.76    4.07
  18   2 -16   -5.40    4.06
  16   0 -18   31.21    5.87
  18   0 -16   26.91    5.67
  16  -2 -18    1.41    4.40
  18  -2 -16    3.74    4.10
  16  -4 -18  172.91   11.51
  18  -4 -16  195.72   12.01
  16  -6 -18  157.72   11.01
  18  -6 -16  158.20   10.68
  18  18 -18  140.10    8.46
  16  18 -18    3.56    3.16
  18  16 -18   -0.41    3.69
  18  18 -16   -2.28    3.33
  14  18 -18    7.59    3.69
  18  14 -18   -0.55    4.42
  18  18 -14    7.05    4.58
  18  12 -18  113.91    9.75
  18  10 -18  301.45   15.10
  18   8 -18  166.99   11.88
  18   6 -18   11.90    5.32
  18   4 -18    2.97    4.61
  18   2 -18  147.20   11.01
  18   0 -18  374.44   16.99
  18  -2 -18  153.55   11.02
  18  -4 -18    6.20    3.68
  18  -6 -18   14.66    4.82
   1   1 -19 1683.37   37.76
   1  -1 -19 1679.82   36.26
   1  -1 -19 1693.03   36.77
 -19   3   3   58.60    6.48
  -3   3  19   73.25    8.97
  -3  -3 -19   55.48    6.10
   3   3 -19   67.70    6.80
   3   3 -19   69.38    8.17
  -1   3  19  431.63   20.13
 -19   1   3  409.83   15.94
  -3  -1 -19  421.70   16.60
  -3   1  19  424.03   19.22
  -1  -3 -19  426.08   17.10
   3   1 -19  429.42   16.66
   3   1 -19  413.16   18.24
   1   3 -19  447.81   19.03
   3  -1 -19  442.50   17.30
   1   3  19  418.07   19.77
   1  -3 -19  436.95   17.30
   3  -1 -19  471.94   19.00
   3   3  19   69.48    8.27
   3  -3 -19   68.92    7.25
   3  -3 -19   59.52    6.76
 -19   5   5   83.81    9.70
  -5  19   5   68.47    7.39
  -5   5  19   62.20    8.57
 -19   5   5   63.88    6.99
   5   5 -19   73.02    9.21
   5   5 -19   71.54    6.99
  -3  19   5   -3.88    3.20
 -19   3   5    4.40    3.67
  -3   5  19   -1.13    4.57
 -19   3   5    4.23    2.74
  -5   3  19   -3.61    4.39
 -19   5   3    7.33    3.21
   5   3 -19    2.85    4.43
   3   5 -19    8.72    3.78
   3   5 -19    3.43    4.10
   5   3 -19    3.63    2.70
  -1  19   5  100.62    8.98
  -1   5  19  101.95   10.28
 -19   1   5  102.15    8.11
 -19   5   1   99.88    8.22
   1   5 -19   80.81    7.05
  -1  -5 -19   98.00    8.53
   5   1 -19   88.94    8.05
  -5   1  19   85.70    8.73
   5   1 -19  101.12    9.66
   1  19   5  109.62    9.58
 -19  -1   5   90.52    7.46
   1  -5 -19  106.46    8.84
   5  -1 -19   94.33    8.10
   5  -1 -19   97.80    9.30
   1   5  19   76.68    9.47
   5   3  19   -3.41    4.59
 -19  -3   5   -4.07    2.89
   5  -3 -19    0.55    3.42
   3   5  19    0.88    3.95
   3  -5 -19    8.49    4.54
   5  -3 -19    4.20    3.35
 -19  -5   5   69.90    6.93
   5  -5 -19   80.92    8.00
 -19   7   7   70.40    9.15
 -19   7   7   82.95    7.94
  -7  19   7   64.92    8.20
  -7   7  19   72.91   10.29
   7   7 -19   82.81    7.57
   7   7 -19   82.36   10.07
   7   5 -19   -2.54    3.91
  -7   5  19    0.61    4.78
  -5  19   7    7.59    4.85
  -5   7  19   -3.74    4.82
 -19   5   7   -3.02    4.62
 -19   5   7   -0.51    3.01
 -19   7   5   -1.72    3.65
 -19   7   5   -1.71    3.74
   7   5 -19    2.67    4.69
   5   7 -19    6.59    5.01
   5   7 -19    2.24    3.87
 -19   7   3   71.34    8.57
  -3  19   7   60.24    7.68
  -3   7  19   57.00    8.68
 -19   3   7   44.35    7.89
   7   3 -19   49.54    7.52
  -7   3  19   42.01    7.01
 -19   3   7   52.53    6.08
 -19   7   3   61.29    6.88
   3   7 -19   47.79    5.85
   7   3 -19   58.11    6.78
  -1  19   7  420.78   19.76
  -1   7  19  391.96   20.85
 -19   1   7  373.41   15.43
 -19   7   1  441.44   17.23
   7   1 -19  387.86   16.21
   1   7 -19  376.51   15.03
   7   1 -19  402.36   19.71
  -7   1  19  429.19   20.98
 -19   1   7  429.86   21.70
   1  19   7  405.30   19.68
   1   7  19  371.31   20.26
 -19  -1   7  401.06   15.69
 -19   7  -1  405.21   16.55
   1  -7 -19  388.80   16.74
   7  -1 -19  400.50   19.39
  -1   7 -19  358.00   14.31
   7  -1 -19  396.75   16.56
 -19  -3   7   55.32    6.20
   3   7  19   47.41    7.67
   3  -7 -19   69.23    7.29
   7  -3 -19   70.68    7.48
   5  -7 -19    3.73    3.87
   7  -5 -19    2.30    3.45
   7  -7 -19   81.26    7.92
 -19   9   9 1081.21   36.80
  -9  19   9 1084.20   34.49
  -9   9  19 1038.63   37.43
   9   9 -19 1043.21   28.10
   9   9 -19 1035.77   36.86
  19   7  -9  339.94   19.47
 -19   7   9  389.46   21.49
 -19   9   7  379.00   20.34
  -9   7  19  390.37   22.29
  -7  19   9  395.68   20.00
  -7   9  19  381.37   21.81
  -9  19   7  404.29   19.56
   7   9 -19  381.50   15.97
   9   7 -19  396.33   16.69
   9   7 -19  421.69   22.45
   7   9 -19  377.66   21.50
 -19   5   9   82.13   10.45
  -5  19   9   91.08    9.98
  -5   9  19   87.59   10.81
 -19   9   5   85.52    8.15
 -19   9   5  104.66   10.55
   5   9 -19   96.64    8.10
   9   5 -19   95.74    8.44
  -9   5  19   91.41   11.18
   9   5 -19   89.28   10.72
 -19   3   9  234.56   16.70
 -19   3   9  261.96   13.21
 -19   9   3  228.71   12.90
  -3  19   9  241.19   15.44
  -3   9  19  233.00   16.67
   3   9 -19  223.45   11.66
   9   3 -19  241.88   12.81
   9   3 -19  214.16   15.56
  -9   3  19  246.19   17.15
 -19   9   3  212.05   14.29
  -1  19   9  740.60   27.63
  -1   9  19  649.44   27.87
 -19   1   9  648.11   21.03
 -19   9   1  701.72   22.58
   1   9 -19  655.35   19.90
   9   1 -19  701.67   27.69
 -19   1   9  670.68   27.86
  -9   1  19  718.09   28.46
   9   1 -19  674.28   21.93
   1  19   9  712.87   27.76
 -19  -1   9  660.85   20.83
 -19   9  -1  701.82   22.38
   9  -1 -19  700.61   22.41
   3   9  19  231.31   16.73
 -19  -3   9  236.79   11.91
   3  -9 -19  266.50   14.09
   9  -3 -19  245.70   13.43
 -19   9  -3  248.52   12.95
 -19   9  -5   97.43    8.34
   5  -9 -19  101.52    9.16
   9  -5 -19   95.82    8.76
   7  -9 -19  396.02   17.35
   9  -7 -19  417.80   17.81
   9  -9 -19 1113.74   29.88
  11  11 -19 1043.73   28.57
 -19  11   9 1080.25   36.61
  -9  11  19 1101.17   39.09
  11   9 -19 1080.22   29.34
 -11   9  19 1122.71   39.73
 -11  19   9 1108.26   35.60
  -9  19  11 1135.06   36.90
   9  11 -19 1146.76   29.40
 -19   7  11  504.93   25.29
 -19  11   7  474.85   23.13
  -7  19  11  492.02   23.76
  -7  11  19  517.77   26.03
  19   7 -11  483.41   23.94
   7  11 -19  512.86   18.51
  11   7 -19  517.11   19.56
 -11   7  19  551.81   27.05
  11   7 -19  496.29   25.42
  -5  19  11  160.93   13.73
   5  11 -19  142.69    9.58
  -5  11  19  136.68   13.31
 -19  11   5  146.79   12.03
  11   5 -19  146.12   10.54
  11   5 -19  144.47   13.84
 -19   5  11  115.46   12.64
 -11   5  19  146.85   14.23
 -19  11   3  251.42   13.64
  -3  19  11  251.30   16.87
  -3  11  19  254.70   18.17
 -19   3  11  249.92   18.16
 -19  11   3  249.64   15.63
  11   3 -19  244.51   17.32
  11   3 -19  267.21   13.69
 -11   3  19  288.33   18.96
  -1  19  11  738.50   29.39
  -1  11  19  707.19   30.04
 -19  11   1  698.60   22.76
  11   1 -19  692.10   28.94
 -19   1  11  677.69   29.19
  11   1 -19  696.17   22.78
 -11   1  19  714.18   29.47
   1  19  11  705.09   29.38
   1  11  19  657.94   29.10
 -19  11  -1  714.78   22.94
  11  -1 -19  714.89   23.01
  19  -1 -11  711.97   22.27
   3  19  11  258.13   18.05
   3  11  19  246.19   17.88
  11  -3 -19  251.06   13.72
 -19  11  -3  278.26   13.94
  19  -3 -11  261.00   13.03
 -19  11  -5  149.51   10.41
  11  -5 -19  142.67   10.41
   5  11  19  128.03   13.10
 -19  11  -7  562.03   19.49
   7 -11 -19  515.45   19.54
  11  -7 -19  533.35   20.20
  11  -9 -19 1179.54   30.59
   9 -11 -19 1160.97   30.10
  13  13 -19   11.23    4.44
  13  19 -13   18.14    4.77
  11  13 -19  261.90   13.57
  13  11 -19  256.13   13.80
   9  13 -19  288.10   14.12
  13   9 -19  272.77   14.34
   7  13 -19   35.42    5.41
  13   7 -19   33.19    6.88
  13   5 -19   13.40    4.47
 -19  13   5    1.21    4.87
  -5  19  13    7.90    6.29
  -5  13  19   14.59    6.40
 -13   5  19   21.19    6.37
 -19   5  13   12.28    5.74
  13   5 -19   26.13    7.64
 -19  13   3  -19.87    5.53
  13   3 -19   -1.63    4.11
  -3  19  13    9.15    5.69
  -3  13  19    8.07    5.87
  19   3 -13    2.36    3.91
 -19   3  13   -2.13    6.11
 -13   3  19  -12.65    6.15
  13   3 -19    6.46    4.77
  -1  19  13  136.87   13.29
 -19  13   1  147.74   10.52
  -1  13  19  126.35   13.33
  13   1 -19  131.31   13.28
 -19   1  13  143.99   14.16
  13   1 -19  144.17   10.77
  19   1 -13  134.78    9.99
 -13   1  19  135.86   14.09
   1  19  13  162.31   14.92
   1  13  19  125.97   13.51
 -19  13  -1  154.43   10.76
  13  -1 -19  138.15   10.36
  19  -1 -13  125.89    9.82
  19  -3 -13   -1.58    4.07
 -19  13  -3    5.26    4.13
   3  13  19   -3.41    5.10
  13  -3 -19    3.23    3.69
 -19  13  -5   11.33    3.97
   5  13  19   27.53    8.45
  13  -5 -19   18.00    5.16
  13  -7 -19   38.93    6.16
  13  -9 -19  276.81   14.34
  15  15 -19  121.06    9.36
  15  19 -15  133.33    9.21
  19  15 -15  115.60    9.72
  13  15 -19   13.36    4.85
  15  13 -19   18.74    5.52
  19  13 -15    8.28    5.10
  15  19 -13   11.87    4.18
  11  15 -19   65.00    7.37
  15  11 -19   57.23    7.53
  19  11 -15   39.00    7.14
   9  15 -19   52.35    6.25
  15   9 -19   47.34    6.99
  19   9 -15   57.29    7.87
  15   7 -19   13.80    5.01
  19   7 -15    7.19    4.91
  15   5 -19  123.56   10.35
  19   5 -15  134.84   10.51
  15   3 -19   22.70    5.58
  19   3 -15   32.27    5.94
  15   1 -19   26.15    5.56
  19   1 -15   36.12    6.22
  19  -1 -15   29.43    5.51
  15  -1 -19   26.24    5.86
  19  -3 -15   31.56    5.55
  15  -3 -19   33.92    6.40
  15  -5 -19  129.04   10.08
  19  -5 -15  137.14   10.10
  15  -7 -19   17.32    4.83
  17  17 -19   15.36    4.16
  17  19 -17   10.74    3.80
  19  17 -17   20.65    4.82
  15  19 -17   14.85    3.89
  17  15 -19   19.56    5.01
  19  15 -17   13.59    4.22
  17  19 -15   11.70    3.98
  19  17 -15   13.89    4.75
  15  17 -19    7.85    3.46
  13  17 -19    0.99    3.54
  17  13 -19    2.67    4.37
  19  13 -17   12.10    5.23
  17  19 -13   -0.52    3.89
  19  17 -13   -2.80    4.71
  17  11 -19  192.94   12.25
  19  11 -17  197.50   12.45
  17   9 -19  219.43   13.13
  19   9 -17  193.19   12.63
  17   7 -19   15.91    5.67
  19   7 -17   13.51    5.26
  17   5 -19    4.60    5.47
  19   5 -17   -0.46    4.72
  17   3 -19   16.40    5.08
  19   3 -17   18.87    5.60
  17   1 -19  189.21   12.38
  19   1 -17  185.82   11.87
  17  -1 -19  185.38   12.14
  19  -1 -17  184.27   11.68
  19  -3 -17   16.26    5.20
  17  -3 -19   21.55    5.69
  17  -5 -19   14.39    5.18
  19  -5 -17    2.63    4.08
  17  -7 -19   14.05    4.34
  19  19 -19  475.01   12.62
  17  19 -19  203.56    8.95
  19  17 -19  218.46   10.04
  19  19 -17  219.31    9.77
  19  15 -19   36.06    5.19
  19  19 -15   40.26    5.29
  19  19 -13  150.13    9.64
  19  13 -19  183.57   11.13
  19  11 -19  590.68   20.39
  19   9 -19  633.17   21.83
  19   7 -19  340.12   16.20
  19   5 -19  237.74   13.64
  19   3 -19  484.26   19.20
  19   1 -19  990.39   28.03
  19  -1 -19  979.94   27.71
  19  -3 -19  490.77   18.91
  19  -5 -19  244.90   13.13
   0   0 -20 2557.00   47.38
  -2  -2 -20  725.26   22.84
 -20   2   2  735.07   22.62
   2   2 -20  743.00   22.84
   2   2 -20  746.23   25.27
  -2   0 -20 1382.46   32.40
   0  -2 -20 1460.79   34.05
   2   0 -20 1394.40   33.09
   2   0 -20 1468.13   35.63
   0   2 -20 1380.27   32.23
   2  -2 -20  774.83   23.94
   2  -2 -20  789.44   24.57
  -4   4  20    8.99    5.30
 -20   4   4    4.40    3.05
   4   4 -20    2.07    3.35
   4   4 -20    5.72    4.85
   2   4 -20  129.16   11.14
 -20   2   4  122.24    9.20
 -20   4   2  139.01   10.07
  -2   4  20  123.83   11.66
  -4   2  20  119.83   11.24
  -2  -4 -20  119.93    9.45
   2   4 -20  133.70    9.52
   4   2 -20  145.72   10.13
   4   2 -20  132.91   11.39
   0   4  20  319.53   18.04
 -20   0   4  296.08   13.99
   0  -4 -20  314.42   15.14
   0   4 -20  301.34   13.75
   4   0 -20  329.92   15.12
   4   0 -20  310.68   16.46
   2   4  20  138.78   11.94
   4  -2 -20  139.31   10.27
 -20  -2   4  126.17    9.09
  -4   2 -20  140.76    9.38
  -2   4 -20  127.25    8.79
   2  -4 -20  140.47   10.24
   4  -2 -20  141.91   11.05
 -20  -4   4    4.53    3.74
  -4   4 -20    1.09    2.75
   4   4  20    0.75    3.79
   4  -4 -20    7.79    4.12
 -20   6   6   -1.31    4.17
 -20   6   6    5.50    3.72
  -6   6  20    8.45    5.18
   6   6 -20   -4.42    5.12
   6   6 -20    7.68    3.70
  -4  20   6    4.52    3.03
  -4   6  20    5.01    4.57
 -20   6   4    6.38    3.88
 -20   4   6   -3.10    3.94
 -20   6   4    3.13    4.13
  -6   4  20    9.61    5.49
 -20   4   6    3.60    4.58
   6   4 -20    2.73    3.60
   4   6 -20    1.97    3.64
   4   6 -20    9.82    3.90
   6   4 -20    0.65    3.77
  -2  20   6  148.29   11.66
   2   6 -20  132.69    9.24
 -20   2   6  122.36    9.32
 -20   6   2  123.34    9.53
  -2   6  20  133.80   12.56
   6   2 -20  117.66    9.11
   6   2 -20  118.69   10.87
  -6   2  20  113.26   11.19
   0  20   6  352.32   17.69
   0   6  20  290.85   18.10
   0  -6 -20  339.14   16.14
 -20   0   6  304.20   14.37
 -20   6   0  322.08   15.17
   0   6 -20  299.11   13.77
   6   0 -20  331.45   15.33
   6   0 -20  306.25   17.23
   2  20   6  111.66   10.65
   2   6  20  120.29   11.69
   2  -6 -20  130.57    9.98
 -20  -2   6  124.38    9.13
  -2   6 -20  102.00    7.72
 -20   6  -2  123.55    9.52
   6  -2 -20  139.71   11.47
   6  -2 -20  125.72    9.96
 -20  -4   6    5.13    3.50
   4   6  20    5.30    3.86
   4  -6 -20    2.65    3.85
   6  -4 -20    3.76    3.46
   6  -4 -20    6.34    4.25
   6   6  20    4.90    3.97
   6  -6 -20   -2.27    3.99
 -20   8   8  245.79   17.05
  -8   8  20  281.57   19.01
  -8  20   8  277.86   16.67
   8   8 -20  254.44   13.22
   8   8 -20  256.60   18.21
   8   6 -20   40.16    6.11
 -20   6   8   27.64    5.89
 -20   6   8   28.76    6.69
 -20   8   6   39.72    6.71
  -6  20   8   32.11    6.32
  -6   8  20   44.74    8.35
 -20   8   6   34.43    6.99
  -8   6  20   38.53    7.89
   8   6 -20   39.78    7.85
   6   8 -20   39.88    6.25
   6   8 -20   37.17    7.15
  -4  20   8   23.42    5.96
 -20   8   4   26.22    5.53
  -4   8  20   21.89    6.71
 -20   4   8   26.59    5.39
 -20   4   8   20.11    6.51
 -20   8   4   25.92    5.11
   4   8 -20   33.35    5.82
  -8   4  20   23.50    6.90
   8   4 -20   29.86    7.06
   8   4 -20   23.36    4.88
 -20   2   8  249.87   13.15
  -2  20   8  274.49   16.71
 -20   8   2  240.13   13.39
  -2   8  20  242.44   17.04
   2   8 -20  223.36   12.08
   8   2 -20  254.22   13.58
   8   2 -20  238.83   16.11
 -20   2   8  246.89   17.14
  -8   2  20  291.78   17.96
   0  20   8  507.93   22.87
   0   8  20  473.65   23.80
 -20   0   8  447.60   17.61
 -20   8   0  520.33   19.58
   8   0 -20  484.46   18.80
   8   0 -20  472.89   22.22
   0   8 -20  459.83   16.83
   2  20   8  278.82   17.44
   2   8  20  236.40   16.99
 -20  -2   8  247.44   12.58
   2  -8 -20  272.49   14.45
 -20   8  -2  260.29   13.97
   8  -2 -20  251.70   16.22
   8  -2 -20  263.93   14.12
 -20  -4   8   15.88    3.46
 -20   8  -4   18.02    4.93
   4   8  20   17.58    6.59
   4  -8 -20   37.72    6.19
   8  -4 -20   35.81    6.23
   6   8  20   41.24    7.25
   6  -8 -20   39.55    6.46
   8  -6 -20   41.35    6.74
   8  -8 -20  260.82   14.25
  10  10 -20 1725.17   38.20
  -8  10  20 1064.37   38.24
 -20  10   8 1003.80   34.99
  -8  20  10 1000.56   33.98
   8  10 -20  995.84   27.36
  10   8 -20 1010.46   28.06
 -10   8  20 1023.47   37.83
 -20  10   6  338.84   19.48
  -6  20  10  399.62   20.78
   6  10 -20  403.31   16.33
  -6  10  20  405.33   23.18
 -20   6  10  378.83   21.85
  10   6 -20  426.30   17.77
 -10   6  20  393.66   22.89
  10   6 -20  386.23   22.18
 -20  10   4  310.93   17.88
 -20  10   4  311.91   15.59
  -4  20  10  294.67   17.94
  -4  10  20  296.72   19.14
 -20   4  10  298.55   19.57
   4  10 -20  306.06   14.03
  10   4 -20  315.88   15.10
  10   4 -20  289.38   18.70
 -10   4  20  274.35   18.85
 -20  10   2  722.16   23.72
  -2  20  10  787.07   29.72
  -2  10  20  700.77   29.99
   2  10 -20  702.48   21.23
  10   2 -20  761.98   30.30
 -20   2  10  728.96   30.60
  10   2 -20  740.95   23.69
 -10   2  20  770.39   30.95
   0  20  10 1157.54   37.24
 -20   0  10 1120.69   28.67
   0  10  20 1035.70   37.19
 -20  10   0 1130.36   30.28
  10   0 -20 1087.84   36.17
  10   0 -20 1123.27   29.93
   2  20  10  812.51   31.53
 -20  -2  10  746.39   22.45
 -20  10  -2  754.06   24.03
  10  -2 -20  712.59   23.67
  20  -2 -10  745.10   22.73
   4  20  10  333.86   20.61
   4  10  20  278.04   19.09
 -20  10  -4  319.11   15.13
  10  -4 -20  303.16   15.33
   6  10  20  399.00   23.14
 -20  10  -6  422.60   17.32
  10  -6 -20  412.23   17.99
   6 -10 -20  424.98   17.91
  10  -8 -20 1047.95   29.30
 -20  10  -8 1069.71   28.17
   8 -10 -20  979.55   28.23
 -20  10 -10 1865.38   38.22
  10 -10 -20 1797.75   39.47
  12  12 -20  469.89   18.64
  10  12 -20  900.11   25.88
  12  10 -20  899.80   26.52
   8  12 -20  520.33   18.88
  12   8 -20  472.87   19.22
   6  12 -20  118.25    8.93
  12   6 -20  106.51    9.32
  12   4 -20   51.68    6.70
  -4  20  12   57.75    8.94
  -4  12  20   47.09    8.66
 -12   4  20   28.78    7.98
 -20   4  12   56.39    9.78
 -20  12   4   39.93    6.40
  12   4 -20   40.08    7.85
 -12   2  20  225.14   17.35
 -20  12   2  260.17   14.13
  -2  20  12  268.91   18.44
  -2  12  20  251.17   18.26
  12   2 -20  262.87   18.49
  12   2 -20  246.82   13.68
 -20   2  12  268.49   18.77
  20   2 -12  265.00   14.08
   0  20  12  531.16   26.06
   0  12  20  520.25   26.66
 -20  12   0  569.72   20.73
  12   0 -20  522.22   20.00
  12   0 -20  563.20   26.46
  20   0 -12  538.45   19.84
   2  20  12  282.68   19.36
   2  12  20  271.90   19.47
 -20  12  -2  280.05   14.15
  12  -2 -20  249.94   13.88
  20  -2 -12  248.18   13.38
  12  -4 -20   46.57    6.86
 -20  12  -4   50.60    6.38
   4  20  12   39.87    8.29
   4  12  20   44.97    8.39
 -20  12  -6  130.83    9.78
  12  -6 -20  114.30    9.68
  12  -8 -20  496.91   19.41
  12 -10 -20  936.16   26.35
  14  14 -20   17.44    5.42
  20  14 -14    9.94    4.76
  12  14 -20   56.73    6.87
  14  12 -20   61.89    7.69
  14  20 -12   58.41    6.62
  20  12 -14   54.18    7.79
  10  14 -20  217.94   12.05
  14  10 -20  187.42   12.14
  20  10 -14  190.83   12.54
  14   8 -20   24.83    5.73
  20   8 -14   39.90    7.27
   8  14 -20   36.94    5.90
  14   6 -20   29.47    6.28
  20   6 -14   23.66    5.73
  14   4 -20   34.32    6.29
  20   4 -14   28.16    5.96
  14   2 -20    7.03    4.44
  20   2 -14   17.48    5.43
  14   0 -20  121.34    9.98
  20   0 -14  130.19   10.19
  20  -2 -14   18.79    5.08
 -20  14  -2   18.72    4.76
  14  -2 -20   17.72    5.58
  20  -4 -14   36.67    5.74
 -20  14  -4   38.48    5.69
  14  -4 -20   32.17    6.23
  14  -6 -20   13.18    5.05
  14  -8 -20   19.81    5.32
  16  16 -20   30.85    5.20
  16  20 -16   23.70    4.23
  20  16 -16   20.30    5.15
  14  16 -20   32.26    5.79
  16  14 -20   27.80    5.34
  16  20 -14   29.69    4.89
  20  14 -16   16.40    4.98
  20  16 -14   31.55    6.21
  16  12 -20   33.31    6.02
  20  12 -16   39.67    6.85
  16  20 -12   31.63    5.25
  12  16 -20   37.38    5.54
  10  16 -20  171.88   10.36
  16  10 -20  172.14   11.53
  20  10 -16  180.83   12.24
  16   8 -20   22.34    5.87
  20   8 -16    9.61    5.22
  16   6 -20   30.91    6.43
  20   6 -16   24.49    6.00
  16   4 -20   29.07    6.29
  20   4 -16   24.16    6.14
  16   2 -20   30.83    6.54
  20   2 -16   28.18    6.41
  16   0 -20  124.11   10.20
  20   0 -16  124.89   10.13
  20  -2 -16   19.68    5.11
  16  -2 -20   31.10    6.53
  16  -4 -20   22.90    5.63
  20  -4 -16   15.78    4.20
  16  -6 -20   28.99    5.34
  16  -8 -20   22.20    5.07
  18  18 -20  258.90    9.89
  20  18 -18  258.32   10.40
  18  20 -16   25.63    3.87
  20  16 -18   29.05    4.94
  20  18 -16   28.39    5.09
  16  18 -20   37.58    4.65
  18  16 -20   26.75    4.51
  18  14 -20   22.79    5.26
  20  14 -18   29.06    4.94
  18  20 -14   17.03    4.00
  20  18 -14   22.26    5.00
  14  18 -20   26.19    4.47
  18  12 -20  239.83   12.65
  20  12 -18  241.42   12.84
  20  18 -12  258.81   13.24
  18  20 -12  260.37   12.63
  18  10 -20  550.86   19.89
  20  10 -18  531.27   19.73
  18   8 -20  304.37   15.22
  20   8 -18  307.68   15.26
  18   6 -20   88.74    8.99
  20   6 -18   97.85    9.22
  18   4 -20  155.75   11.35
  20   4 -18  134.23   10.71
  20   2 -18  475.97   18.89
  18   2 -20  460.83   18.75
  18   0 -20  750.91   24.10
  20   0 -18  749.88   23.99
  18  -2 -20  506.23   19.40
  20  -2 -18  494.24   18.92
  18  -4 -20  146.21   10.58
  20  -4 -18  160.93   10.80
  18  -6 -20   95.59    8.30
  20  16 -20  109.01    6.97
  20  20 -16  104.25    6.39
  20  20 -14   67.73    5.77
  20  14 -20   68.06    6.62
  20  12 -20  342.84   14.36
  20  20 -12  348.42   13.76
  20  10 -20  632.29   20.39
  20   8 -20  377.93   16.14
  20   6 -20  164.74   11.02
  20   4 -20  273.48   14.12
  20   2 -20  698.73   22.38
  20   0 -20  976.91   26.87
  20  -2 -20  665.63   21.52
  20  -4 -20  289.87   13.68
  20  -6 -20  184.92   10.43
   1   1 -21 1503.18   34.77
  -1  -1 -21 1467.52   34.70
   1  -1 -21 1514.92   35.43
  -1   1 -21 1507.52   34.44
 -21   3   3   80.20    8.11
   3   3 -21   76.92    7.75
   3   3 -21   91.76    9.76
 -21   1   3  434.64   17.69
 -21   3   1  451.93   18.28
   3   1 -21  470.68   18.52
   1   3 -21  454.49   17.87
  -1  -3 -21  498.87   19.30
   3   1 -21  485.68   20.78
 -21  -1   3  443.65   17.62
  -1   3 -21  451.53   17.33
  -3   1 -21  464.01   17.86
   3  -1 -21  483.53   19.04
   1  -3 -21  495.29   19.44
   3  -1 -21  509.31   20.70
  -3   3 -21   65.12    6.84
   3  -3 -21   71.02    7.84
  -5   5  21   51.31    8.54
 -21   5   5   56.87    7.26
   5   5 -21   58.80    7.14
   5   5 -21   65.06    9.00
  -3   5  21    6.96    4.59
 -21   5   3    9.26    4.61
 -21   3   5    3.31    3.55
   3   5 -21    6.00    3.81
   5   3 -21   -1.31    4.02
   5   3 -21    3.64    4.25
  -1   5  21  106.18   11.15
 -21   1   5  100.50    8.71
 -21   5   1  138.68   10.38
   5   1 -21  125.28   10.03
   5   1 -21  131.88   11.25
   1   5 -21  127.63    9.38
   1   5  21  114.13   11.55
  -1   5 -21  108.93    8.46
   5  -1 -21  130.14   10.12
 -21  -1   5  113.32    9.05
 -21   5  -1  126.90   10.16
   1  -5 -21  137.52   10.71
   5  -1 -21  132.91   10.97
 -21  -3   5    4.78    3.23
  -3   5 -21    7.95    3.36
   3  -5 -21    0.54    3.72
   5  -3 -21    4.41    4.01
   5  -3 -21    5.48    3.84
   3   5  21    3.19    4.43
 -21  -5   5   61.87    6.72
   5  -5 -21   56.85    7.58
 -21   7   7   59.63    7.53
  -7   7  21   43.41    8.16
 -21   7   7   47.77    8.39
   7   7 -21   53.19    6.98
   7   7 -21   55.43    9.53
   5   7 -21   82.88    8.17
   7   5 -21   77.47    9.60
 -21   5   7   77.80    8.23
 -21   7   5   78.68    8.11
  -5   7  21   64.23    9.37
  -7   5  21   81.66   10.73
 -21   5   7   70.42   10.04
   7   5 -21   76.18    7.99
  -3   7  21   11.38    4.74
 -21   3   7   10.28    4.15
 -21   7   3   11.86    4.84
   3   7 -21    7.48    4.21
   7   3 -21    5.43    4.58
   7   3 -21    1.25    3.81
  -1  21   7   99.11   10.38
  -1   7  21   71.11   10.02
 -21   7   1   83.37    8.21
 -21   1   7   82.03    7.80
   7   1 -21   96.93    8.91
   1   7 -21   73.83    7.35
   7   1 -21   84.15    9.97
   1   7  21   92.65   11.12
 -21  -1   7   88.01    7.98
 -21   7  -1   78.32    8.03
   1  21   7   72.31    9.03
   7  -1 -21   86.25    8.69
  -1   7 -21   73.80    6.94
   7  -1 -21   79.97    9.08
 -21  -3   7   13.17    4.27
 -21   7  -3   12.34    4.66
   3  21   7    5.87    4.09
   3  -7 -21    3.57    4.18
   7  -3 -21   11.48    3.99
   7  -3 -21   23.05    6.08
   3   7  21   18.30    6.31
 -21  -5   7   71.13    7.02
   5  -7 -21   88.87    8.80
   5   7  21   68.33   10.47
   7  -5 -21   70.36    7.94
   7   7  21   44.32    8.21
   7  -7 -21   60.43    7.91
   9   9 -21 1107.53   29.46
   7   9 -21  211.77   12.18
   9   7 -21  201.41   12.33
   5   9 -21   87.87    8.19
  -5  21   9   85.90    9.78
 -21   9   5   88.05    8.67
  -5   9  21   74.93   11.21
   9   5 -21   96.82    8.88
 -21   5   9  106.13   12.15
   9   5 -21   96.74   11.73
 -21   9   5   83.53    9.78
  -9   5  21   86.57   11.42
 -21   3   9  241.85   13.40
 -21   9   3  265.81   14.59
  -3  21   9  244.33   16.26
  -3   9  21  233.07   17.33
   3   9 -21  224.42   12.13
   9   3 -21  255.62   13.99
   9   3 -21  279.23   18.65
 -21   1   9  665.44   22.07
  -1  21   9  705.80   28.06
 -21   9   1  691.12   23.36
  -1   9  21  609.97   28.26
   1   9 -21  651.50   20.63
   9   1 -21  669.76   22.81
   9   1 -21  708.39   28.83
   1  21   9  697.57   28.36
   1   9  21  617.35   28.61
 -21  -1   9  658.97   21.73
 -21   9  -1  689.85   23.40
   9  -1 -21  668.20   23.04
   9  -1 -21  709.78   28.18
   3  21   9  283.18   18.81
   3   9  21  268.04   18.78
 -21  -3   9  259.07   13.30
 -21   9  -3  270.27   14.30
   9  -3 -21  250.82   14.28
   9  -3 -21  274.19   17.13
 -21   9  -5   93.89    8.71
   5  -9 -21   83.82    8.51
   9  -5 -21  104.77   10.91
   5   9  21   80.41   11.44
   9  -5 -21   82.70    8.56
   5  21   9   97.62   11.73
   7   9  21  185.48   15.66
   9  -7 -21  212.18   13.40
 -21   9  -7  218.74   12.66
   7  -9 -21  215.65   13.13
 -21   9  -9 1147.00   29.51
   9  -9 -21 1113.65   30.40
  11  11 -21  951.36   26.94
   9  11 -21 1100.53   28.80
  11   9 -21 1017.29   28.66
   7  11 -21  295.19   14.24
  11   7 -21  304.19   15.23
   5  11 -21  115.28    8.80
  11   5 -21  111.78    9.89
 -21  11   3  204.02   12.79
  -3  21  11  198.19   15.43
  11   3 -21  232.26   13.39
 -21  11   1  642.16   22.61
  -1  21  11  606.58   27.42
  -1  11  21  570.56   27.99
  11   1 -21  606.45   21.73
  11   1 -21  589.69   26.99
   1  21  11  612.28   27.74
   1  11  21  629.59   29.17
 -21  11  -1  609.96   21.85
  11  -1 -21  569.18   21.34
  11  -1 -21  617.21   27.39
  21  -1 -11  636.12   21.46
 -21  11  -3  244.17   13.71
  11  -3 -21  236.70   13.86
  21  -3 -11  228.81   12.70
 -21  11  -5  120.37    9.74
  11  -5 -21   98.02    9.41
 -21  11  -7  331.76   15.34
  11  -7 -21  304.38   15.63
 -21  11  -9 1072.31   27.72
 -21   9 -11 1096.13   28.11
  11  -9 -21 1049.14   28.96
  11 -11 -21  937.45   26.11
  13  13 -21   23.26    5.60
  11  13 -21  288.72   14.28
  13  11 -21  285.51   14.51
   9  13 -21  261.09   13.31
  13   9 -21  230.66   13.42
  13   7 -21    1.49    4.32
   7  13 -21    5.20    3.95
  13   5 -21   14.18    4.93
  21   5 -13   19.90    5.44
  21   3 -13    4.91    4.38
  13   3 -21   -4.86    4.72
  13   1 -21  122.73   10.26
  21   1 -13  137.61   10.48
 -21  13  -1  139.94   10.41
  13  -1 -21  120.05   10.03
  21  -1 -13  123.40    9.77
  21  -3 -13    1.93    3.64
 -21  13  -3    8.75    4.37
  13  -3 -21   -5.46    4.80
 -21  13  -5   19.36    4.91
  13  -5 -21   30.64    6.18
  13  -7 -21   13.31    4.24
  13  -9 -21  247.65   13.28
  15  15 -21  106.56    8.25
  21  15 -15   91.58    8.43
  15  13 -21   17.95    5.13
  21  13 -15    9.93    4.61
  21  15 -13    9.91    4.42
  13  15 -21   12.92    4.46
  15  11 -21   69.44    7.80
  21  11 -15   60.86    7.78
  11  15 -21   77.71    7.58
  15   9 -21   55.47    7.66
  21   9 -15   41.77    7.03
   9  15 -21   59.32    6.75
  15   7 -21   57.50    7.81
  21   7 -15   43.82    7.20
  15   5 -21  173.11   11.86
  21   5 -15  158.93   11.34
  15   3 -21   38.59    7.03
  21   3 -15   30.17    6.50
  21   1 -15   16.71    5.64
  15   1 -21   24.79    6.38
  21  -1 -15   19.39    5.66
  15  -1 -21   22.00    5.98
  21  -3 -15   40.75    6.64
  15  -3 -21   22.46    5.27
  15  -5 -21  160.37   11.32
  15  -7 -21   56.07    7.16
  15  -9 -21   37.55    5.60
  21  17 -17   14.23    3.80
  17  17 -21    9.09    2.91
  21  15 -17   13.25    4.48
  21  17 -15   16.44    4.64
  15  17 -21   20.77    4.08
  17  15 -21   13.31    3.70
  17  13 -21    2.95    4.28
  21  13 -17   -2.02    4.53
  17  21 -13    3.10    3.27
  21  17 -13   -1.12    4.16
  13  17 -21    0.89    3.27
  17  11 -21  168.92   11.14
  21  11 -17  164.67   11.14
  17  21 -11  155.97    9.65
  17   9 -21  164.55   11.47
  21   9 -17  179.92   11.82
  17   7 -21    4.20    5.10
  21   7 -17   10.68    5.73
  17   5 -21    0.61    5.25
  21   5 -17   -4.26    4.86
  17   3 -21   42.01    6.82
  21   3 -17   40.34    6.27
  17   1 -21  246.07   13.78
  21   1 -17  253.79   13.88
  17  -1 -21  244.72   13.66
  21  -1 -17  244.53   13.43
  17  -3 -21   36.08    6.26
  21  -3 -17   38.62    6.63
  17  -5 -21    1.68    4.10
  17  -7 -21    7.07    4.06
  19  17 -21  132.43    6.81
  21  17 -19  129.96    7.09
  21  19 -17  133.03    6.90
  21  15 -19   16.56    3.85
  19  21 -15   17.32    3.28
  21  19 -15   11.95    3.34
  19  15 -21   19.94    4.03
  19  13 -21   89.11    7.50
  21  13 -19   91.71    7.64
  19  21 -13   88.20    6.60
  21  19 -13   93.29    7.37
  19  11 -21  368.36   15.01
  21  11 -19  370.14   15.30
  19  21 -11  388.93   14.46
  21  19 -11  364.03   14.88
  19   9 -21  367.62   15.62
  21   9 -19  365.18   15.61
  19   7 -21  112.71    9.55
  21   7 -19  113.43    9.44
  19   5 -21   77.87    8.25
  21   5 -19   72.65    8.03
  19   3 -21  255.45   13.58
  21   3 -19  224.93   12.81
  19   1 -21  629.82   21.26
  21   1 -19  614.22   20.76
  19  -1 -21  610.97   20.79
  21  -1 -19  608.36   20.44
  19  -3 -21  263.84   13.44
  21  -3 -19  256.74   12.84
  19  -5 -21   76.21    7.39
  21  -5 -19   63.80    6.69
  21  15 -21    8.06    2.77
  21  21 -13   43.08    4.29
  21  13 -21   48.22    5.28
  21  11 -21  253.60   11.60
  21  21 -11  265.33   11.12
  21   9 -21  257.63   12.19
  21  21  -9  251.33   11.62
  21   7 -21   64.00    7.19
  21   5 -21   36.30    6.37
  21   3 -21  187.05   11.05
  21   1 -21  502.36   17.86
  21  -1 -21  522.66   17.97
  21  -3 -21  186.07   10.49
  21  -5 -21   27.20    4.34
   0   0 -22 1370.62   33.54
   2   2 -22  200.61   12.23
 -22   2   2  206.61   12.51
   2   0 -22  594.80   21.34
   0   2 -22  603.55   20.93
 -22   0   2  609.88   21.42
   0  -2 -22  641.22   22.27
  -2   0 -22  565.25   20.58
   2  -2 -22  207.29   12.62
  -2   2 -22  180.62   11.28
 -22   4   4  100.08    9.18
   4   4 -22   95.33    8.78
   4   4 -22  124.00   11.99
 -22   4   2    3.01    4.00
 -22   2   4    6.43    3.99
   2   4 -22    7.42    4.30
   4   2 -22    9.20    4.13
   4   2 -22    6.57    4.42
 -22   0   4   87.38    8.49
   0  -4 -22   84.87    8.79
 -22   4   0   90.28    8.71
   0   4 -22   66.46    7.22
   4   0 -22   66.01    7.33
   4   0 -22   75.55    9.16
 -22  -2   4    1.21    3.66
  -2   4 -22    1.86    3.69
   2  -4 -22    8.40    4.74
   4  -2 -22   -3.86    4.36
 -22  -4   4  111.50    9.16
   4  -4 -22  113.56    9.69
 -22   6   6  658.08   22.95
  -6   6  22  658.60   29.32
   6   6 -22  659.31   22.24
   6   6 -22  688.45   28.94
 -22   4   6  335.44   15.93
 -22   6   4  341.05   16.37
  -4   6  22  376.79   22.04
   4   6 -22  359.89   16.19
   6   4 -22  367.43   16.66
   6   4 -22  355.55   20.16
  -2   6  22   75.04   10.37
   6   2 -22   85.03    8.63
 -22   2   6   73.57    8.00
 -22   6   2   85.14    9.00
   2   6 -22   61.44    7.01
   6   2 -22   78.89   10.20
   0   6  22   17.09    5.73
 -22   0   6    7.90    3.53
 -22   6   0    7.67    4.56
   0   6 -22    5.77    3.58
   6   0 -22    8.57    5.03
   6   0 -22   21.26    5.85
 -22   6  -2   85.84    8.79
 -22  -2   6   69.81    7.52
   2  -6 -22   85.72    9.20
  -2   6 -22   73.51    7.23
   6  -2 -22   80.47    8.74
   6  -2 -22   60.01    7.99
 -22  -4   6  362.95   15.81
 -22  -6   4  340.33   15.19
 -22   6  -4  368.84   17.04
   4  -6 -22  391.49   17.73
   6  -4 -22  344.14   16.74
 -22  -6   6  698.49   22.06
   6  -6 -22  714.73   24.16
   8   8 -22  143.19   10.67
 -22   8   6   45.58    7.47
   6   8 -22   56.74    7.09
   8   6 -22   53.35    7.12
 -22   4   8    3.19    4.06
  -4   8  22   -4.86    5.40
 -22   8   4    7.76    4.19
   4   8 -22   13.61    5.02
   8   4 -22    7.68    4.63
   8   4 -22    9.74    4.75
  -2   8  22   64.50    9.24
 -22   2   8   72.81    7.86
 -22   8   2   73.98    8.56
   2   8 -22   67.46    7.04
   8   2 -22   80.84   10.56
   8   2 -22   59.40    7.78
 -22   0   8  225.28   12.96
 -22   8   0  256.95   14.36
   0   8  22  221.43   17.23
   0   8 -22  231.78   12.01
   8   0 -22  258.16   14.54
   8   0 -22  242.01   16.23
   2   8  22   74.42   10.44
 -22   8  -2   65.00    8.06
 -22  -2   8   64.68    7.12
   8  -2 -22   60.54    8.05
   8  -2 -22   60.54    7.64
 -22   8  -4    7.91    4.87
   4  -8 -22   -0.09    4.75
 -22  -4   8    3.32    3.31
   8  -4 -22    3.07    4.53
   4   8  22   10.41    5.83
 -22   8  -6   61.72    7.50
   6  -8 -22   60.98    7.78
   8  -6 -22   51.30    7.73
   8  -8 -22  131.69   10.48
 -22   8  -8  137.78   10.46
  10  10 -22  829.97   25.02
   8  10 -22  464.05   18.42
  10   8 -22  475.85   18.86
   6  10 -22   18.41    5.21
  10   6 -22   23.20    5.76
 -22  10   4   36.49    6.20
   4  10 -22   24.92    5.13
  10   4 -22   32.23    6.06
 -22  10   2  215.93   13.46
   2  10 -22  189.38   11.02
  10   2 -22  214.47   13.32
 -22  10   0  488.40   19.67
  10   0 -22  459.49   19.33
  22   0 -10  472.02   18.60
 -22  10  -2  234.79   13.58
  10  -2 -22  208.53   13.15
  22  -2 -10  221.17   12.46
 -22  10  -4   24.10    5.69
  10  -4 -22   33.18    6.54
 -22  10  -6   14.33    4.46
  10  -6 -22   13.45    5.75
 -22  10  -8  485.42   18.77
 -22   8 -10  463.75   18.18
   8 -10 -22  460.61   18.68
  10  -8 -22  433.39   18.47
 -22  10 -10  864.31   24.57
  10 -10 -22  829.53   25.17
  12  12 -22  128.13    9.85
  10  12 -22  350.93   15.54
  12  10 -22  352.74   16.15
   8  12 -22  141.38    9.86
  12   8 -22  145.68   11.07
   6  12 -22    4.15    3.33
  12   6 -22    9.85    5.33
  12   4 -22   11.79    5.63
  22   2 -12   32.95    6.09
  12   2 -22   22.46    5.97
 -22  12   0  164.04   11.40
  12   0 -22  150.32   11.59
  22   0 -12  157.49   11.04
 -22  12  -2   26.18    5.55
  12  -2 -22   16.96    5.53
 -22  12  -4    9.85    4.14
  12  -4 -22   11.55    5.38
 -22  12  -6   11.89    4.50
  12  -6 -22    7.32    4.11
 -22  12  -8  148.01   10.17
  12  -8 -22  129.66    9.82
  12 -10 -22  366.94   15.85
  14  14 -22  123.09    8.76
  22  14 -14  128.27    9.63
  22  12 -14    2.99    4.95
  12  14 -22    1.83    3.90
  14  12 -22    2.95    3.93
  22  10 -14   34.22    6.30
  10  14 -22   32.66    5.67
  14  10 -22   46.91    7.01
  22   8 -14    3.87    5.14
   8  14 -22    5.65    3.91
  14   8 -22   15.28    5.44
  14   6 -22  299.47   15.25
  22   6 -14  279.69   14.85
  14   4 -22  257.10   14.46
  22   4 -14  257.74   14.22
  22   2 -14   21.13    5.15
  14   2 -22   30.04    6.86
  22   0 -14    5.50    4.02
  14   0 -22   -5.08    4.67
  22  -2 -14   23.71    4.93
  14  -2 -22   39.33    6.87
 -22  14  -4  257.80   13.26
  14  -4 -22  269.76   14.46
  14  -6 -22  253.68   13.87
 -22   8 -14    8.78    3.71
  14  -8 -22    4.66    3.96
  14 -10 -22   34.11    5.19
  16  16 -22  109.58    7.35
  22  16 -16  112.95    8.05
  14  16 -22  117.41    7.84
  16  14 -22  131.69    8.93
  22  14 -16  132.06    9.12
  22  16 -14  135.49    9.40
  22  12 -16    4.35    4.66
  22  16 -12   -1.94    4.53
  12  16 -22    7.26    3.77
  16  12 -22    8.19    4.63
  22  10 -16   28.80    6.20
  16  10 -22   33.35    6.34
  22   8 -16    4.63    5.29
  16   8 -22    1.15    4.76
  16   6 -22  183.17   11.90
  22   6 -16  187.44   11.91
  16   4 -22  163.70   11.49
  22   4 -16  152.29   11.04
  22   2 -16   -5.71    4.89
  16   2 -22    4.57    5.13
  22   0 -16   24.12    5.39
  16   0 -22   33.50    6.86
  22  -2 -16    2.01    4.10
  16  -2 -22    3.52    4.26
  16  -4 -22  151.29   10.89
  22  -4 -16  172.69   10.88
  16  -6 -22  176.86   11.05
  16  -8 -22    4.45    3.63
  22  18 -18   48.86    4.04
  22  16 -18    1.40    2.94
  22  18 -16   -0.75    2.66
  18  16 -22    1.40    2.47
  22  14 -18   13.84    4.21
  22  18 -14    5.71    3.36
  18  14 -22    8.10    3.55
  22  12 -18   26.11    5.34
  22  18 -12   27.20    4.88
  18  12 -22   35.50    5.45
  18  10 -22  146.26    9.88
  22  10 -18  158.13   10.52
  18  22 -10  147.72    8.92
  22   8 -18   48.05    7.00
  18   8 -22   43.47    6.62
  22   6 -18   16.24    5.52
  18   6 -22    5.39    4.69
  22   4 -18    0.65    4.21
  18   4 -22   -1.00    4.61
  22   2 -18   84.71    8.12
  18   2 -22   85.21    8.67
  18   0 -22  238.36   13.09
  22   0 -18  234.73   12.66
  22  -2 -18   89.92    8.18
  18  -2 -22   96.32    8.54
  18  -4 -22   -2.49    4.35
  22  -4 -18   -6.06    3.93
  18  -6 -22   10.85    4.34
  22  16 -20    6.58    2.23
  22  20 -14    5.54    2.63
  20  14 -22    5.29    2.84
  22  14 -20    1.44    2.63
  20  12 -22   86.07    6.87
  22  12 -20   95.07    7.18
  20  22 -12   74.62    5.46
  22  20 -12   77.23    6.17
  20  10 -22  211.62   10.81
  22  10 -20  222.83   11.29
  20  22 -10  216.26    9.92
  22  20 -10  230.61   11.08
  20   8 -22   81.19    7.63
  22   8 -20   88.31    7.81
  22   6 -20    7.15    4.01
  20   6 -22   12.16    4.48
  22   4 -20   22.79    5.19
  20   4 -22   23.72    5.62
  20   2 -22  233.85   12.31
  22   2 -20  233.47   12.04
  22   0 -20  427.26   16.19
  20   0 -22  411.12   16.12
  20  -2 -22  207.46   11.36
  22  -2 -20  229.73   11.63
  20  -4 -22   29.38    4.82
  22  -4 -20   23.32    4.35
  20  -6 -22    6.42    3.36
  22  12 -22   10.55    3.13
  22  10 -22   70.99    5.89
  22  22 -10   57.37    4.80
  22  22  -8   11.42    3.20
  22   8 -22   14.08    4.10
  22   6 -22   17.61    4.28
  22   4 -22    1.90    3.14
  22   2 -22   81.16    7.18
  22   0 -22  201.14   10.32
  22  -2 -22   64.29    5.76
  22  -4 -22    1.26    2.44
 -23   1   1  376.57   17.10
  -1  -1 -23  382.56   17.26
   1   1 -23  369.37   16.78
 -23  -1   1  365.12   16.59
   1  -1 -23  371.71   17.10
  -1   1 -23  349.75   16.16
 -23   3   3   97.79    9.11
   3   3 -23   90.40    8.62
 -23   1   3   12.30    4.97
 -23   3   1   14.74    5.33
   1   3 -23    9.74    4.64
   3   1 -23    5.36    4.44
 -23   3  -1    7.75    4.74
 -23  -1   3    7.83    4.12
   1  -3 -23   14.82    5.34
  -1   3 -23    7.94    3.48
   3  -1 -23    6.34    4.45
 -23  -3   3  105.24    8.91
   3  -3 -23   90.28    8.92
   5   5 -23 1150.54   30.55
 -23   5   5 1168.98   31.75
   3   5 -23  506.22   19.41
 -23   3   5  522.28   20.23
 -23   5   3  539.74   20.84
   5   3 -23  512.68   20.03
   5   3 -23  489.74   23.33
 -23   1   5  182.82   12.04
 -23   5   1  161.26   11.59
   1   5 -23  148.04   10.28
   5   1 -23  170.18   11.72
   5   1 -23  165.91   13.30
 -23  -1   5  152.94   10.88
 -23   5  -1  179.96   12.16
   1  -5 -23  149.86   11.62
  -1   5 -23  165.90   10.72
   5  -1 -23  176.02   12.08
   5  -3 -23  523.66   20.85
 -23  -3   5  510.62   19.53
 -23  -5   3  479.53   18.89
 -23   5  -3  569.30   21.29
   3  -5 -23  551.60   21.38
 -23  -5   5 1116.81   29.52
   5  -5 -23 1183.51   32.22
   7   7 -23  133.92   10.25
 -23   5   7  524.01   20.69
 -23   7   5  538.67   21.10
   5   7 -23  505.28   19.48
   7   5 -23  538.11   20.45
 -23   3   7  159.41   11.42
 -23   7   3  171.68   12.04
   3   7 -23  132.45   10.04
   7   3 -23  148.93   11.21
 -23   1   7    2.34    4.20
 -23   7   1   -7.31    4.40
   1   7 -23   -8.61    4.56
   7   1 -23   -0.67    4.84
 -23  -1   7   -1.64    3.96
 -23   7  -1   -0.91    4.73
  -1   7 -23    4.35    3.42
   7  -1 -23    4.15    4.64
 -23  -3   7  171.44   11.29
 -23   7  -3  163.66   11.93
 -23  -7   3  147.09   10.33
   3  -7 -23  162.95   11.80
   7  -3 -23  157.07   11.69
 -23  -5   7  530.78   19.28
 -23  -7   5  520.46   19.11
   7  -5 -23  533.43   21.12
 -23   7  -5  568.30   21.29
   5  -7 -23  546.72   21.19
 -23   7  -7  138.49   10.71
   7  -7 -23  121.09   10.32
   9   9 -23  296.77   14.82
   7   9 -23    8.88    4.62
   9   7 -23   10.85    5.38
   5   9 -23  101.42    8.69
   9   5 -23   85.64    8.64
 -23   9   3    4.45    4.40
   3   9 -23    1.86    3.79
   9   3 -23    4.18    4.79
 -23   1   9   96.75    9.14
   1   9 -23   91.76    7.66
 -23   9   1   96.43    9.71
   9   1 -23  107.86   10.04
 -23  -1   9   89.43    8.54
 -23   9  -1   99.55    9.33
  23  -1  -9  107.70    9.05
   9  -1 -23   97.02    9.37
 -23  -3   9    5.22    4.02
 -23   9  -3    5.26    4.46
   9  -3 -23    3.45    5.05
 -23   9  -5  103.03    9.11
   9  -5 -23   88.81    9.30
   7  -9 -23    5.08    4.72
 -23   9  -7    6.79    3.98
   9  -7 -23    0.41    4.39
 -23   9  -9  296.20   14.60
   9  -9 -23  263.18   14.23
  11  11 -23  185.03   11.59
   9  11 -23  236.03   12.93
  11   9 -23  220.07   12.82
   7  11 -23    7.72    4.73
  11   7 -23    1.91    4.48
   5  11 -23   82.49    7.75
  11   5 -23   68.56    8.03
   3  11 -23   10.94    4.13
  11   3 -23   15.30    5.59
  23   1 -11   48.03    6.89
 -23  11   1   48.40    7.51
  11   1 -23   50.76    7.59
  23  -1 -11   60.60    7.18
 -23  11  -1   53.86    7.73
  11  -1 -23   44.14    7.23
 -23  11  -3    9.48    4.02
  11  -3 -23    8.38    4.88
 -23  11  -5   89.15    8.71
  11  -5 -23   79.73    8.87
 -23  11  -7    2.32    4.10
  11  -7 -23   12.82    5.15
 -23  11  -9  201.91   11.59
  11  -9 -23  201.76   12.05
 -23   9 -11  219.61   11.90
  23  13 -13   81.12    8.26
  13  13 -23   76.93    7.34
  23  11 -13   -0.27    5.19
  11  13 -23    5.37    4.00
  13  11 -23    8.15    4.66
  23   9 -13   -5.68    5.62
   9  13 -23    7.20    3.56
  13   9 -23    5.95    5.09
  23   7 -13   89.10    9.08
   7  13 -23  114.33    8.65
  13   7 -23  117.27   10.08
  13   5 -23  430.78   18.28
  23   5 -13  418.32   17.97
  13   3 -23  224.94   13.45
  23   3 -13  230.73   13.20
  23   1 -13   15.19    5.22
  13   1 -23   13.85    5.18
  23  -1 -13   14.09    5.33
  13  -1 -23   21.02    6.16
 -23  13  -3  233.04   13.34
  13  -3 -23  217.36   13.06
 -23  13  -5  460.40   17.81
  13  -5 -23  407.14   17.75
 -23  13  -7  106.78    8.40
  13  -7 -23  101.65    8.92
 -23   9 -13    4.08    3.50
  13  -9 -23   -1.35    4.00
  15  15 -23  368.21   13.35
  23  15 -15  380.27   14.59
  13  15 -23  215.59   10.62
  15  13 -23  216.19   11.28
  23  13 -15  203.55   11.55
  23  15 -13  209.26   11.53
  23  11 -15   25.72    5.77
  11  15 -23   16.81    4.04
  15  11 -23   30.11    5.65
  23   9 -15   23.85    5.87
  15   9 -23   22.43    5.59
  15   7 -23  279.32   14.35
  23   7 -15  262.95   14.17
  15   5 -23  617.23   21.60
  23   5 -15  623.96   21.49
  15   3 -23  338.77   16.02
  23   3 -15  350.48   15.95
  23   1 -15   37.42    5.87
  15   1 -23   46.51    7.66
  23  -1 -15   57.03    7.05
  15  -1 -23   59.12    7.84
  15  -3 -23  363.53   16.59
  23  -3 -15  353.58   15.14
  15  -5 -23  598.47   20.91
 -23   7 -15  258.05   11.99
  15  -7 -23  268.47   13.17
  15  -9 -23   20.99    4.82
  23  17 -17   49.28    4.70
  17  15 -23  184.77    8.72
  23  15 -17  174.68    9.06
  23  17 -15  175.00    9.15
  17  13 -23   96.55    7.43
  23  13 -17  102.97    7.85
  23  17 -13   96.99    7.55
  23  11 -17   -2.27    4.25
  23  17 -11   -2.11    4.05
  17  11 -23    2.94    3.68
  23   9 -17    4.36    4.17
  17   9 -23   -0.95    4.18
  23   7 -17   93.26    8.41
  17   7 -23   87.92    8.28
  17   5 -23  256.29   13.57
  23   5 -17  242.10   13.02
  23   3 -17   99.68    8.94
  17   3 -23   91.61    8.63
  23   1 -17   -6.43    4.78
  17   1 -23    4.60    4.86
  23  -1 -17   -3.64    4.55
  17  -1 -23    4.98    4.76
  23  -3 -17  114.04    8.58
  17  -3 -23   90.18    8.23
  17  -5 -23  264.28   13.08
  17  -7 -23   79.25    7.14
  23  19 -15   27.87    3.69
  19  15 -23   24.23    3.29
  23  15 -19   34.65    4.14
  23  13 -19    7.25    3.35
  23  19 -13    1.78    2.82
  19  13 -23    2.71    2.91
  23  11 -19   38.04    5.20
  23  19 -11   47.07    5.43
  19  11 -23   36.95    5.11
  23   9 -19   52.24    6.13
  19   9 -23   40.34    5.78
  23   7 -19   -1.70    4.02
  19   7 -23   -4.82    4.38
  23   5 -19   19.36    5.04
  19   5 -23   31.62    5.65
  23   3 -19   -2.86    4.11
  19   3 -23    1.61    3.92
  19   1 -23  110.52    8.76
  23   1 -19  116.88    8.65
  19  -1 -23  116.28    8.70
  23  -1 -19  125.19    8.75
  19  -3 -23   -1.18    3.68
  23  -3 -19    3.10    3.76
  19  -5 -23   19.18    4.03
  21  13 -23    2.89    2.15
  23  13 -21   -2.85    2.47
  23  21 -11   38.23    4.14
  21  11 -23   34.28    4.42
  23  11 -21   36.86    4.44
  21  23  -9   30.21    3.80
  23  21  -9   31.32    4.25
  21   9 -23   30.72    4.37
  23   9 -21   30.35    4.56
  21  23  -7    6.45    2.98
  21   7 -23   -0.73    3.13
  23   7 -21   10.88    4.12
  21   5 -23   14.97    4.27
  23   5 -21   18.85    4.43
  21   3 -23    8.58    3.69
  23   3 -21    9.55    4.00
  21   1 -23  121.27    8.19
  23   1 -21  122.59    8.29
  21  -1 -23  126.24    8.16
  23  -1 -21  115.16    7.69
  21  -3 -23    7.73    3.42
  23  -3 -21   -5.05    3.13
  21  -5 -23   14.54    3.22
  23   9 -23    7.03    2.56
  23   7 -23   92.69    6.10
  23  23  -7   78.90    5.06
  23   5 -23  167.49    8.39
  23   3 -23   59.47    5.27
  23   1 -23    6.74    2.55
  23  -1 -23    6.48    2.57
   0   0 -24  303.24   15.47
 -24   0   0  312.77   15.59
 -24   2   2   10.45    4.65
   2   2 -24    1.98    4.54
   0  -2 -24   45.52    6.75
 -24   0   2   46.61    7.02
 -24   2   0   40.24    6.35
   0   2 -24   48.15    7.05
 -24  -2   2   13.41    4.44
 -24   2  -2   -0.14    4.26
   2  -2 -24    6.90    4.30
 -24   4   4 1244.17   32.91
   4   4 -24 1192.79   31.55
 -24   2   4  414.97   18.35
 -24   4   2  410.64   18.36
   2   4 -24  380.63   16.83
   4   2 -24  408.54   17.86
   0   4 -24  184.76   11.67
 -24   0   4  195.05   12.34
 -24   4   0  204.92   13.17
   4   0 -24  195.81   12.83
 -24  -2   4  407.09   17.72
 -24   4  -2  435.89   18.85
 -24  -4   2  384.13   17.09
   4  -2 -24  407.61   18.44
   2  -4 -24  400.25   18.31
 -24  -4   4 1198.27   31.17
 -24   4  -4 1224.02   32.48
   4  -4 -24 1241.56   33.08
 -24   6   6  665.90   23.50
   6   6 -24  634.73   22.09
   4   6 -24  863.99   25.83
 -24   4   6  878.54   27.08
 -24   6   4  914.54   27.78
   6   4 -24  848.93   26.36
 -24   2   6  233.92   13.59
 -24   6   2  237.99   14.20
   2   6 -24  215.41   12.35
   6   2 -24  233.95   13.81
 -24   0   6   69.38    8.12
 -24   6   0   63.68    7.84
   0   6 -24   54.02    6.65
   6   0 -24   64.42    7.96
 -24  -2   6  224.89   13.17
 -24   6  -2  248.73   14.40
 -24  -6   2  213.15   12.64
   6  -2 -24  233.23   13.93
 -24  -4   6  899.22   26.29
 -24  -6   4  854.56   25.50
 -24   6  -4  944.80   28.04
   4  -6 -24  934.65   28.11
   6  -4 -24  904.33   27.68
 -24  -6   6  665.72   21.81
 -24   6  -6  671.94   23.14
   6  -6 -24  653.23   23.44
   8   8 -24    1.50    4.45
   6   8 -24  169.99   11.08
   8   6 -24  164.92   11.53
 -24   8   4  361.09   17.43
   4   8 -24  339.43   15.55
   8   4 -24  348.46   16.67
 -24   2   8   26.38    5.75
 -24   8   2   25.11    6.20
   2   8 -24   17.29    4.28
   8   2 -24   17.32    6.09
 -24   0   8   12.38    4.90
 -24   8   0    4.23    4.42
   0   8 -24   17.71    4.04
   8   0 -24    4.87    5.22
 -24  -2   8   29.58    5.79
 -24   8  -2   14.41    5.44
 -24  -8   2    9.90    4.43
   8  -2 -24   29.03    6.08
 -24  -4   8  355.95   15.76
 -24   8  -4  352.08   16.77
   8  -4 -24  341.57   16.81
 -24   8  -6  176.31   11.98
 -24   6  -8  169.22   11.59
   8  -6 -24  170.37   12.05
 -24   8  -8    2.72    4.36
   8  -8 -24   11.96    5.33
  10  10 -24  137.07    9.88
   8  10 -24   27.87    5.79
  10   8 -24   34.99    6.22
   6  10 -24   58.80    7.13
  10   6 -24   45.22    7.16
   4  10 -24  179.23   10.88
  10   4 -24  165.20   11.67
  24   2 -10    3.42    4.15
 -24  10   2    7.10    4.73
   2  10 -24   -1.00    3.59
  10   2 -24   -0.48    5.02
  24   0 -10   39.51    6.13
 -24  10   0   49.63    7.53
  10   0 -24   28.40    6.53
 -24  10  -2    7.57    4.31
  10  -2 -24    2.90    4.81
 -24  10  -4  179.23   11.87
  10  -4 -24  177.27   12.20
 -24  10  -6   48.06    6.84
  10  -6 -24   51.03    7.13
 -24  10  -8   40.49    6.39
 -24   8 -10   27.96    5.59
  10  -8 -24   40.25    6.31
 -24  10 -10  112.27    8.79
  24  12 -12   16.70    5.06
  12  12 -24   26.26    5.11
  24  10 -12   -0.33    5.55
  10  12 -24   11.03    4.37
  12  10 -24   10.58    4.47
  24   8 -12   -0.61    5.16
   8  12 -24   -2.00    3.70
  12   8 -24    3.14    4.39
   6  12 -24  222.92   11.83
  12   6 -24  203.89   12.38
  24   6 -12  205.74   12.69
  12   4 -24  382.46   17.30
  24   4 -12  381.69   16.83
  24   2 -12   83.92    8.26
  12   2 -24   83.61    9.18
  24   0 -12    5.60    4.50
  12   0 -24    6.16    5.29
  24  -2 -12   69.76    7.21
 -24  12  -2   85.64    8.65
  12  -2 -24   72.47    8.50
 -24  12  -4  392.55   16.92
  12  -4 -24  384.14   17.21
  12  -6 -24  191.92   11.96
 -24  12  -6  208.26   11.68
 -24  12  -8    3.30    3.43
 -24   8 -12    7.13    3.92
  12  -8 -24   -1.91    4.38
  14  14 -24  448.68   15.04
  24  14 -14  448.46   16.30
  12  14 -24  181.64    9.87
  14  12 -24  182.81   10.45
  24  12 -14  169.58   10.64
  24  14 -12  175.86   10.98
  24  10 -14   45.55    6.73
  10  14 -24   50.95    5.80
  14  10 -24   46.53    6.46
  14   8 -24  163.69   11.08
  24   8 -14  147.33   10.61
  14   6 -24  598.88   20.88
  24   6 -14  585.81   20.63
  14   4 -24  779.13   24.47
  24   4 -14  778.37   23.93
  14   2 -24  288.02   14.94
  24   2 -14  297.89   14.55
  24   0 -14   98.81    8.34
  14   0 -24  105.38    9.56
  14  -2 -24  288.33   14.72
  24  -2 -14  298.69   13.67
  14  -4 -24  775.49   24.14
  14  -6 -24  575.57   19.88
 -24   8 -14  137.85    8.55
  14  -8 -24  153.05    9.93
  16  16 -24  307.24    9.92
  24  16 -16  341.34   11.82
  14  16 -24  389.84   12.31
  16  14 -24  415.55   13.58
  24  14 -16  428.41   14.71
  24  16 -14  407.57   14.28
  16  12 -24  179.05    9.80
  24  12 -16  166.17    9.94
  24  16 -12  175.44   10.11
  24  10 -16   40.46    6.07
  16  10 -24   47.93    5.91
  16   8 -24  132.31    9.58
  24   8 -16  138.33    9.82
  16   6 -24  497.27   18.44
  24   6 -16  487.37   18.06
  16   4 -24  585.40   20.35
  24   4 -16  609.00   20.30
  16   2 -24  187.20   11.83
  24   2 -16  198.37   11.38
  24   0 -16   42.87    6.20
  16   0 -24   48.36    6.90
  16  -2 -24  188.58   11.66
  24  -2 -16  218.60   11.51
  16  -4 -24  589.28   19.84
  16  -6 -24  477.28   17.15
 -24   6 -16  464.12   15.37
  16  -8 -24  120.92    8.25
  24  16 -18   93.63    5.36
  18  14 -24  144.43    7.24
  24  14 -18  142.92    7.69
  24  18 -14  150.04    7.71
  24  12 -18   23.58    4.23
  24  18 -12   28.34    4.39
  18  12 -24   24.46    4.10
  24  10 -18    5.70    3.86
  24  18 -10    2.07    3.30
  18  10 -24    3.16    3.29
  24   8 -18    8.27    4.02
  18   8 -24    3.38    3.76
  18   6 -24  137.14    9.46
  24   6 -18  136.17    9.24
  18   4 -24  139.40    9.66
  24   4 -18  134.35    9.13
  24   2 -18    4.36    3.84
  18   2 -24    7.30    4.28
  18   0 -24   12.69    4.67
  24   0 -18   13.91    3.92
  18  -2 -24    5.85    4.07
  24  -2 -18    8.80    3.61
  18  -4 -24  137.77    8.99
  18  -6 -24  122.56    8.03
  24  20 -12    2.74    2.14
  20  12 -24    4.66    2.65
  24  12 -20    2.84    2.52
  24  20 -10   26.49    3.89
  20  10 -24   33.51    4.42
  24  10 -20   23.09    3.85
  24  20  -8    4.55    3.37
  20   8 -24    3.22    3.48
  24   8 -20    1.22    3.16
  20   6 -24   40.88    5.48
  24   6 -20   38.96    5.21
  20   4 -24   19.52    4.48
  24   4 -20   20.59    4.40
  20   2 -24    8.06    3.72
  24   2 -20   13.86    3.75
  20   0 -24   90.42    7.24
  24   0 -20   97.17    7.06
  20  -2 -24   13.70    3.80
  24  -2 -20   11.41    3.09
  20  -4 -24   19.96    3.51
  22  10 -24    4.41    2.29
  24  10 -22   -1.76    2.31
  24  22  -8    7.48    1.94
  22   8 -24   15.70    3.25
  24   8 -22   12.11    3.03
  22   6 -24  123.53    7.10
  24   6 -22  115.43    6.81
  24  22  -6  130.10    6.88
  22   4 -24  104.01    6.70
  24   4 -22   93.82    6.33
  22   2 -24    4.63    2.90
  24   2 -22   -1.92    2.56
  22   0 -24   14.07    3.23
  24   0 -22   16.14    3.07
  22  -2 -24    1.49    2.31
  24  -2 -22    1.48    2.16
 -25   1   1   87.80    9.15
 -25  -1  -1   74.40    8.20
   1   1 -25   72.53    8.30
 -25  -1   1   66.75    7.73
 -25   1  -1   83.38    9.06
   1  -1 -25   86.03    8.69
 -25   3   3  613.83   22.36
   3   3 -25  558.65   20.78
 -25   3   1   72.12    8.57
 -25   1   3   91.94    9.24
   1   3 -25   70.24    8.00
   3   1 -25   75.85    8.48
 -25  -1   3   77.11    8.56
 -25   3  -1  100.06    9.91
 -25  -3   1   72.25    8.04
   3  -1 -25   73.31    8.60
 -25  -3   3  529.73   20.40
 -25   3  -3  572.19   21.56
   3  -3 -25  570.83   21.70
 -25   5   5  959.73   28.77
   5   5 -25  987.23   27.89
 -25   3   5  774.28   25.19
 -25   5   3  780.85   25.53
   3   5 -25  729.67   23.28
   5   3 -25  725.35   24.17
 -25   1   5  172.45   11.84
   5   1 -25  186.78   12.62
   1   5 -25  187.64   11.57
 -25  -1   5  188.35   12.29
 -25   5  -1  194.45   13.03
 -25  -5   1  178.80   11.81
  -1   5 -25  173.76   11.04
   5  -1 -25  193.67   12.74
 -25  -3   5  728.46   23.70
 -25  -5   3  690.34   23.06
 -25   5  -3  748.57   24.95
   5  -3 -25  706.38   24.39
 -25  -5   5  945.74   26.89
 -25   5  -5  992.02   28.59
   5  -5 -25  941.65   28.26
   7   7 -25  165.38   11.40
 -25   7   5  523.64   20.79
   5   7 -25  496.94   19.00
   7   5 -25  515.24   19.95
 -25   3   7  324.50   16.04
 -25   7   3  330.26   16.57
   3   7 -25  327.13   14.96
   7   3 -25  305.82   15.69
 -25   1   7   22.46    5.67
 -25   7   1   16.50    6.02
   1   7 -25   12.61    3.90
   7   1 -25   24.54    6.07
 -25  -1   7   23.96    5.90
 -25   7  -1    5.22    4.77
 -25  -7   1   19.94    5.28
   7  -1 -25    5.03    4.86
 -25  -3   7  358.99   16.18
 -25   7  -3  333.50   16.56
 -25  -7   3  347.16   15.56
   7  -3 -25  318.98   16.11
 -25  -5   7  527.63   18.99
 -25  -7   5  473.49   17.99
 -25   7  -5  495.87   19.70
 -25   5  -7  505.31   19.63
   7  -5 -25  486.45   19.83
   7  -7 -25  156.20   11.37
 -25   7  -7  167.69   11.71
   9   9 -25   50.49    6.95
   7   9 -25   12.95    4.85
   9   7 -25    9.09    4.97
   5   9 -25  177.39   11.05
   9   5 -25  180.51   11.79
 -25   9   3  112.67   10.33
   3   9 -25   93.72    7.99
   9   3 -25  106.12    9.54
  25   1  -9    6.86    4.75
 -25   9   1    5.09    5.39
   1   9 -25    5.91    4.00
   9   1 -25    9.55    4.88
 -25   9  -1   -2.15    5.25
 -25  -9   1    5.26    3.61
   9  -1 -25    2.51    5.18
 -25   9  -3  110.78    9.98
   9  -3 -25   91.02    9.16
 -25   9  -5  161.42   11.22
   9  -5 -25  177.28   12.16
 -25   9  -7    8.57    4.52
 -25   7  -9    9.46    4.80
   9  -7 -25    3.40    4.55
 -25   9  -9   32.57    5.26
  11  11 -25    4.86    3.79
   9  11 -25   28.83    5.13
  11   9 -25   19.20    5.20
   7  11 -25   19.13    4.79
  11   7 -25    7.96    4.89
   5  11 -25  188.85   10.78
  11   5 -25  190.66   12.24
  25   5 -11  155.39   10.76
  11   3 -25  121.42   10.11
  25   3 -11  126.33    9.86
  25   1 -11   -0.92    4.04
  11   1 -25    1.27    5.02
  25  -1 -11   -0.29    3.60
 -25  11  -1   -0.20    4.54
  11  -1 -25    1.25    5.27
 -25  11  -3  130.26   10.11
  11  -3 -25  108.44    9.66
 -25  11  -5  201.98   12.03
  11  -5 -25  185.75   11.78
 -25  11  -7   14.58    4.47
 -25   7 -11   14.61    4.44
  11  -7 -25   12.54    4.99
 -25  11  -9   18.38    4.40
 -25   9 -11   22.79    4.87
  13  13 -25  250.38   11.27
  25  13 -13  234.67   11.93
  25  11 -13   57.96    7.13
  25  13 -11   57.52    7.13
  11  13 -25   66.92    6.42
  13  11 -25   46.86    6.28
  25   9 -13   42.52    6.50
   9  13 -25   45.51    5.88
  13   9 -25   34.13    5.90
   7  13 -25  227.73   11.10
  13   7 -25  207.16   12.05
  25   7 -13  219.55   12.44
  13   5 -25  579.61   20.40
  25   5 -13  566.89   19.96
  13   3 -25  407.08   17.56
  25   3 -13  423.12   17.04
  25   1 -13   97.47    8.40
  13   1 -25   99.39    9.30
  25  -1 -13  109.39    8.57
  13  -1 -25   95.72    9.00
  13  -3 -25  431.76   17.76
  13  -5 -25  597.38   20.41
 -25  13  -7  227.96   11.21
 -25   7 -13  217.87   11.11
  13  -7 -25  210.25   11.60
 -25   9 -13   34.73    4.79
  15  15 -25  478.15   13.01
  25  15 -15  506.05   15.05
  13  15 -25  357.12   11.89
  15  13 -25  380.12   13.13
  25  13 -15  378.98   14.00
  25  15 -13  367.38   13.82
  15  11 -25  146.82    8.99
  25  11 -15  138.75    9.31
  25  15 -11  129.75    9.00
  15   9 -25  119.48    8.87
  25   9 -15  104.52    8.37
  15   7 -25  361.95   15.37
  25   7 -15  378.95   15.44
  15   5 -25  743.30   22.70
  25   5 -15  780.61   22.60
  15   3 -25  530.72   19.21
  25   3 -15  550.01   18.87
  15   1 -25  133.83    9.96
  25   1 -15  157.03   10.11
  15  -1 -25  131.80    9.82
  25  -1 -15  156.19    9.46
  15  -3 -25  532.85   18.85
  15  -5 -25  726.40   21.49
  15  -7 -25  356.13   14.13
 -25   7 -15  346.45   12.70
  25  15 -17  272.49    9.78
  25  17 -15  275.66    9.63
  17  13 -25  187.20    8.47
  25  13 -17  198.27    9.30
  25  17 -13  201.23    9.29
  25  11 -17   36.28    5.10
  25  17 -11   38.24    5.02
  17  11 -25   39.27    4.77
  25   9 -17   14.93    4.49
  17   9 -25   19.93    4.44
  17   7 -25  150.20    9.42
  25   7 -17  140.95    9.17
  17   5 -25  348.59   14.51
  25   5 -17  335.60   13.99
  17   3 -25  193.35   11.00
  25   3 -17  191.96   10.61
  25   1 -17   22.90    4.74
  17   1 -25   23.08    5.23
  17  -1 -25   20.78    4.85
  25  -1 -17   25.23    4.49
  17  -3 -25  222.35   11.36
 -25   5 -17  321.80   11.70
  17  -5 -25  347.19   13.50
  17  -7 -25  133.31    7.85
  25  13 -19   27.92    3.44
  25  19 -11    5.49    2.74
  19  11 -25    5.50    2.39
  25  11 -19   10.03    3.12
  25   9 -19   12.94    3.45
  25  19  -9    9.45    3.38
  19   9 -25   12.32    3.60
  25   7 -19   14.57    3.91
  19   7 -25   10.73    3.53
  25   5 -19   67.47    6.28
  19   5 -25   63.92    6.39
  19   3 -25    8.11    3.49
  25   3 -19    9.15    3.53
  19   1 -25   20.38    4.27
  25   1 -19   31.99    4.63
  19  -1 -25   18.12    4.05
  25  -1 -19   17.90    3.52
  19  -3 -25    9.77    3.21
  19  -5 -25   54.59    5.11
  21   9 -25    2.58    2.16
  25   9 -21    4.47    2.47
  25  21  -7   18.03    3.30
  21   7 -25   18.95    3.34
  25   7 -21   13.93    2.95
  21   5 -25   66.82    5.42
  25   5 -21   75.35    5.54
  21   3 -25   12.78    3.28
  25   3 -21    7.31    2.89
  21   1 -25   14.18    3.29
  25   1 -21   17.81    3.25
  21  -1 -25   16.42    3.42
  25  -1 -21   16.97    3.01
  21  -3 -25    9.06    2.51
 -26   0   0  233.88   13.66
 -26   2   2   32.12    6.31
 -26  -2  -2   28.03    5.98
   2   2 -26   22.73    5.42
 -26   0   2   17.19    5.53
 -26   2   0   11.97    4.65
 -26  -2   0   22.85    5.59
 -26   0  -2   13.44    5.35
   2   0 -26   11.09    5.34
   2  -2 -26   24.54    5.46
 -26  -2   2   18.13    5.35
 -26   2  -2   20.76    5.92
 -26   4   4  536.09   20.85
   4   4 -26  529.99   19.79
 -26   2   4  211.43   13.05
 -26   4   2  210.19   13.39
   2   4 -26  206.57   12.28
   4   2 -26  197.27   12.60
 -26   0   4   38.58    6.77
 -26   4   0   41.48    6.93
   0   4 -26   33.61    5.75
 -26  -4   0   35.20    6.35
   4   0 -26   37.74    6.89
 -26  -2   4  231.51   13.56
 -26   4  -2  208.05   13.06
 -26  -4   2  211.88   12.62
 -26   2  -4  237.10   13.96
   4  -2 -26  211.58   13.22
 -26  -4   4  513.86   19.60
 -26   4  -4  559.98   21.29
   4  -4 -26  545.43   20.88
   6   6 -26  413.52   17.23
 -26   4   6  490.32   19.76
 -26   6   4  506.53   20.25
   4   6 -26  473.65   18.32
   6   4 -26  488.85   19.09
 -26   2   6  169.59   11.72
 -26   6   2  181.25   12.76
   2   6 -26  166.89   10.77
   6   2 -26  164.70   11.57
 -26   0   6   25.13    5.98
 -26   6   0   23.03    6.11
 -26  -6   0   16.59    5.14
   6   0 -26   26.27    5.92
 -26  -2   6  162.05   11.34
 -26   6  -2  195.08   12.86
 -26  -6   2  170.95   11.17
   6  -2 -26  165.00   11.76
 -26  -4   6  476.42   18.31
 -26  -6   4  472.84   18.27
 -26   6  -4  495.92   19.81
 -26   4  -6  495.80   19.52
   6  -4 -26  473.39   19.39
 -26  -6   6  431.17   16.84
 -26   6  -6  430.56   18.09
   8   8 -26   -3.71    4.62
   8   6 -26  103.78    9.29
   6   8 -26   89.79    8.27
   4   8 -26  130.45    9.27
   8   4 -26  149.15   10.95
 -26   8   2   13.34    5.48
   2   8 -26    4.22    3.57
  26   0  -8   34.61    5.81
 -26   8   0   30.09    6.51
 -26  -8   0   19.16    5.09
   8   0 -26   27.88    6.29
 -26   8  -2    1.98    4.58
 -26  -8   2    3.07    3.55
   8  -2 -26    4.32    5.00
 -26   8  -4  137.70   10.32
 -26   4  -8  137.50   10.58
   8  -4 -26  133.38   10.86
 -26   8  -6   79.24    8.24
 -26   6  -8  100.11    8.83
   8  -6 -26   93.50    8.83
 -26   8  -8    0.97    3.94
  10  10 -26   82.36    7.68
   8  10 -26   32.92    5.31
  10   8 -26   27.12    5.74
   6  10 -26   23.19    4.94
  10   6 -26   19.23    5.36
  26   4 -10   38.13    5.78
   4  10 -26   47.67    5.75
  10   4 -26   51.10    7.22
  26   2 -10   -0.08    3.99
   2  10 -26   -0.64    3.73
  10   2 -26    1.54    4.85
  26   0 -10   74.88    7.17
 -26  10   0   80.95    8.70
 -26 -10   0   62.57    6.83
  10   0 -26   62.97    8.00
 -26  10  -2   -0.29    4.58
  10  -2 -26   -1.81    5.34
 -26  10  -4   53.91    7.38
  10  -4 -26   53.77    7.23
 -26  10  -6   26.80    5.54
 -26   6 -10   10.89    4.72
  10  -6 -26   17.03    4.85
 -26  10  -8   23.83    4.61
 -26   8 -10   30.62    5.28
 -26  10 -10   72.33    6.50
  26  12 -12   17.85    4.64
  12  12 -26   25.10    4.46
  26  10 -12   -3.07    4.37
  10  12 -26    5.63    3.49
  12  10 -26    9.25    3.90
  26   8 -12   -2.36    4.42
   8  12 -26    8.52    3.98
  12   8 -26    2.93    3.85
   6  12 -26  137.10    8.60
  12   6 -26  139.75    9.94
  26   6 -12  145.54   10.07
  12   4 -26  210.19   12.16
  26   4 -12  216.06   12.03
  26   2 -12   36.97    5.99
 -26 -12  -2   46.42    5.85
  12   2 -26   46.26    6.70
  26   0 -12    0.27    3.54
  12   0 -26   -5.17    5.22
  12  -2 -26   40.34    6.31
 -26  12  -4  224.26   12.21
  12  -4 -26  219.90   12.40
 -26  12  -6  144.90    9.36
 -26   6 -12  122.45    8.70
  12  -6 -26  114.07    8.94
 -26  12  -8   -0.83    3.03
 -26   8 -12    4.85    3.12
  14  14 -26  295.19   10.18
  26  14 -14  333.35   12.22
  12  14 -26  121.62    6.97
  14  12 -26  144.22    8.17
  26  12 -14  130.31    8.45
  26  14 -12  128.07    8.41
  26  10 -14   37.88    5.63
  26  14 -10   40.75    6.04
  10  14 -26   33.45    4.15
  14  10 -26   31.34    4.98
  14   8 -26  110.47    8.51
  26   8 -14   82.66    7.54
  14   6 -26  387.59   15.67
  26   6 -14  385.89   15.35
  14   4 -26  506.84   18.28
  26   4 -14  494.69   17.55
  14   2 -26  169.67   11.18
  26   2 -14  180.26   10.52
  26   0 -14   42.35    5.77
  14   0 -26   38.80    6.06
  14  -2 -26  152.61   10.10
  14  -4 -26  467.04   17.07
 -26   6 -14  369.79   13.60
  14  -6 -26  349.41   14.23
 -26   8 -14   88.33    6.30
  26  14 -16  297.00   10.42
  26  16 -14  284.81   10.24
  16  12 -26  117.61    6.88
  26  12 -16  110.38    7.28
  26  16 -12  109.84    7.16
  26  10 -16   31.46    4.94
  26  16 -10   29.41    4.90
  16  10 -26   29.38    4.43
  16   8 -26   78.95    6.83
  26   8 -16   76.16    6.78
  16   6 -26  290.95   12.74
  26   6 -16  308.19   12.95
  16   4 -26  378.60   14.87
  26   4 -16  379.93   14.46
  16   2 -26  107.43    8.70
  26   2 -16  119.44    8.08
  16   0 -26   25.18    5.35
  26   0 -16   29.80    4.60
  16  -2 -26  105.55    7.99
 -26   4 -16  345.36   12.57
  16  -4 -26  359.38   13.82
 -26   6 -16  287.40   10.59
  16  -6 -26  297.02   11.80
  26  18 -12    7.84    2.64
  18  12 -26    6.51    2.28
  26  12 -18   12.61    2.84
  26  10 -18    5.15    2.69
  26  18 -10    3.66    2.67
  18  10 -26    5.61    3.02
  26   8 -18    1.16    2.67
  26  18  -8    1.56    2.91
  26   6 -18   54.66    5.34
  18   6 -26   49.40    5.36
  26   4 -18   67.29    5.90
  18   4 -26   67.08    6.17
  18   2 -26    4.23    3.62
  26   2 -18    6.51    3.31
  18   0 -26   14.18    4.21
  26   0 -18   15.32    3.70
  18  -2 -26    3.16    3.34
 -26   4 -18   62.90    4.77
  18  -4 -26   52.78    5.14
  26  10 -20   34.99    3.50
  26  20  -8    6.09    2.46
  20   8 -26    4.78    2.24
  26   8 -20    7.16    2.45
  26  20  -6   12.76    3.09
  20   6 -26   11.61    2.98
  26   6 -20   14.69    3.09
  20   4 -26    8.76    2.98
  26   4 -20    8.21    2.90
  20   2 -26   13.36    3.25
  26   2 -20   16.57    3.13
  20   0 -26   63.47    5.14
  26   0 -20   51.50    4.33
 -26   2 -20    9.65    2.13
  20  -2 -26    4.33    2.22
 -27   1   1  154.59   11.26
 -27  -1  -1  144.84   10.83
 -27  -1   1  151.50   11.17
 -27   1  -1  138.92   10.95
 -27   3   3   59.24    7.82
 -27  -3  -3   50.84    7.47
   3   3 -27   59.25    7.57
 -27   1   3    1.21    4.99
 -27   3   1    8.19    5.35
 -27  -3  -1    7.16    4.73
 -27  -1  -3    2.30    4.38
   3   1 -27   -4.60    5.04
 -27   3  -1    2.48    4.82
 -27  -1   3    9.02    4.71
   3  -1 -27   -0.60    4.86
 -27  -3   1    1.78    4.11
 -27   1  -3   -0.35    4.87
 -27  -3   3   58.87    7.44
 -27   3  -3   58.16    7.65
 -27   5   5  322.20   15.84
   5   5 -27  306.54   14.67
 -27   3   5  160.91   11.44
 -27   5   3  180.61   12.39
   5   3 -27  162.31   11.24
   3   5 -27  144.92   10.14
 -27   1   5   18.48    5.90
 -27   5   1    7.49    4.93
 -27  -5  -1   17.79    5.21
   5   1 -27   18.74    5.88
 -27  -1   5    9.10    3.99
 -27   5  -1   17.74    5.75
 -27  -5   1   23.17    5.53
 -27   1  -5   19.51    5.89
   5  -1 -27   16.90    5.95
 -27  -3   5  156.51   10.70
 -27  -5   3  150.88   10.50
 -27   5  -3  164.77   11.69
 -27   3  -5  165.03   11.60
   5  -3 -27  156.85   11.15
 -27  -5   5  300.58   14.10
 -27   5  -5  304.74   15.35
   7   7 -27   40.30    6.37
   5   7 -27  146.52    9.87
   7   5 -27  142.68   10.14
 -27   7   3   48.42    7.47
   3   7 -27   32.53    5.59
   7   3 -27   39.17    6.63
  27   1  -7    2.50    3.49
 -27   7   1   -0.55    4.75
 -27  -7  -1    6.08    3.73
   7   1 -27    0.02    4.64
 -27  -1   7    3.69    4.74
 -27   7  -1    4.40    4.66
 -27  -7   1   -0.52    4.14
   7  -1 -27    3.36    4.71
 -27  -3   7   40.56    6.33
 -27   7  -3   43.30    7.08
 -27  -7   3   28.61    5.20
 -27   3  -7   47.96    7.25
   7  -3 -27   39.77    6.71
 -27   7  -5  145.24   10.46
 -27   5  -7  136.29   10.02
 -27   7  -7   35.81    6.10
   9   9 -27  141.31    9.27
   7   9 -27    9.75    3.90
   9   7 -27    9.26    4.67
  27   5  -9    4.50    4.23
   5   9 -27    9.68    4.10
   9   5 -27    6.54    4.77
  27   3  -9   11.11    4.46
   3   9 -27    5.55    3.35
   9   3 -27   14.72    5.41
 -27   9   1  150.31   11.12
 -27  -9  -1  143.16    9.85
   9   1 -27  142.47   10.41
  27   1  -9  172.83   10.31
 -27   9  -1  140.54   10.51
 -27  -9   1  149.55    9.71
   9  -1 -27  154.34   10.76
 -27   9  -3   14.43    5.08
 -27   3  -9    2.20    4.24
   9  -3 -27    8.49    4.87
 -27   9  -5    5.94    4.21
 -27   5  -9    5.37    4.30
   9  -5 -27    3.22    4.36
 -27   7  -9    9.65    3.99
 -27   9  -7    6.55    3.76
 -27   9  -9  121.60    8.36
  27  11 -11   46.60    6.02
  11  11 -27   50.09    5.49
  27   9 -11   69.03    6.93
   9  11 -27   84.82    6.87
  27   7 -11    0.68    3.89
   7  11 -27    8.51    3.64
  11   7 -27    6.88    4.19
  27   5 -11   17.18    4.33
   5  11 -27   18.32    3.91
  11   5 -27   14.66    4.78
  27   3 -11   -1.53    3.59
 -27 -11  -3    2.81    3.64
  11   3 -27    3.60    4.50
  27   1 -11   76.70    6.94
 -27 -11  -1   85.32    7.14
  11   1 -27   76.12    7.78
  11  -1 -27   89.04    8.22
 -27  11  -3    4.23    4.24
 -27   3 -11    9.94    4.83
  11  -3 -27   -4.38    5.03
 -27  11  -5    9.99    4.27
 -27   5 -11   21.28    4.76
  11  -5 -27    6.85    4.11
 -27  11  -7    1.70    3.23
 -27   7 -11    3.13    3.41
 -27  11  -9   74.34    6.12
 -27   9 -11   76.66    6.32
  27  13 -13   50.53    5.25
  13  13 -27   35.15    3.75
  27  11 -13    0.13    3.16
  27  13 -11   -2.24    3.55
  11  13 -27    0.45    2.70
  13  11 -27   -2.04    3.21
  27   9 -13   -3.05    3.99
   9  13 -27    0.53    2.67
  13   9 -27   -1.33    3.20
  27   7 -13   32.50    5.04
  13   7 -27   33.26    5.43
  13   5 -27  150.96    9.89
  27   5 -13  149.19    9.51
  27   3 -13   55.13    6.08
  13   3 -27   49.63    6.53
  27   1 -13   10.98    3.78
  13   1 -27    5.27    4.51
  13  -1 -27    1.60    4.45
 -27   3 -13   54.82    6.30
  13  -3 -27   50.47    6.18
  13  -5 -27  136.37    9.03
 -27   5 -13  127.75    8.38
 -27   7 -13   25.26    4.01
  27  13 -15  108.28    6.39
  27  15 -13  113.66    6.64
  27  11 -15    9.29    3.18
  27  15 -11   12.14    3.20
  15  11 -27    9.99    2.91
  27   9 -15    7.90    3.34
  27  15  -9    5.99    3.58
  15   9 -27   10.25    3.29
  15   7 -27  112.26    7.78
  27   7 -15   95.31    7.18
  15   5 -27  245.45   11.63
  27   5 -15  259.43   11.53
  15   3 -27  129.39    8.78
  27   3 -15  129.33    8.32
  27   1 -15   -0.01    2.89
  15   1 -27    5.05    3.92
  15  -1 -27    5.75    3.47
 -27   3 -15  112.64    7.33
  15  -3 -27  125.31    8.33
 -27   5 -15  211.39    9.40
  15  -5 -27  220.99   10.40
 -27   7 -15   88.09    5.61
  27  11 -17   -1.20    2.20
  27  17 -11    3.17    2.22
  17  11 -27   -0.71    2.10
  27   9 -17    3.51    2.60
  27  17  -9    4.22    2.62
  17   9 -27    3.54    2.67
  27   7 -17   10.87    3.05
  17   7 -27   12.34    3.48
  17   5 -27   86.08    6.63
  27   5 -17   74.75    5.85
  17   3 -27   26.65    4.49
  27   3 -17   30.49    4.30
  17   1 -27    1.94    3.14
  27   1 -17    5.57    2.74
  17  -1 -27   10.48    3.69
 -27   3 -17   21.41    3.20
  17  -3 -27   23.41    3.95
 -27   5 -17   61.24    4.36
  19   9 -27   61.08    4.30
  27   9 -19   62.42    4.32
  27  19  -7   10.16    2.82
  19   7 -27    8.11    2.37
  27   7 -19    7.92    2.47
  19   5 -27    4.06    2.42
  27   5 -19    7.66    2.54
  19   3 -27    3.05    2.42
  27   3 -19    1.26    2.07
  19   1 -27   75.10    5.57
  27   1 -19   65.85    4.57
 -27   1 -19   59.90    4.16
  19  -1 -27   73.48    5.34
  19  -3 -27    2.91    2.08
 -28   0   0  502.14   19.25
 -28   2   2  102.76    9.29
 -28  -2  -2   91.17    8.85
 -28   0   2  237.96   13.27
 -28   2   0  221.20   13.26
 -28  -2   0  235.77   13.09
 -28   0  -2  239.71   13.31
 -28  -2   2   92.99    8.84
 -28   2  -2   95.97    9.14
 -28   4   4   59.85    7.55
 -28  -4  -4   49.99    6.89
   4   4 -28   58.64    6.88
 -28   2   4   -4.81    4.75
 -28   4   2   -1.13    4.75
 -28  -4  -2    1.90    4.17
 -28  -2  -4    2.88    4.45
   4   2 -28   -3.36    4.35
 -28   0   4   37.64    6.20
 -28   4   0   40.44    7.14
   4   0 -28   20.93    5.31
 -28  -4   0   37.50    6.12
 -28   0  -4   34.58    6.74
 -28  -2   4   -1.49    4.05
 -28  -4   2    7.42    4.45
 -28   4  -2   -1.44    4.99
 -28   2  -4   -0.61    4.80
 -28  -4   4   49.96    6.44
 -28   4  -4   51.24    6.83
   6   6 -28   66.57    7.10
 -28  -6  -4   61.69    7.02
   4   6 -28   51.70    6.19
   6   4 -28   63.24    7.26
 -28   6   2    4.54    5.07
 -28  -6  -2    5.82    4.31
   6   2 -28    3.41    4.50
 -28   0   6   38.53    6.19
 -28   6   0   47.61    6.74
 -28  -6   0   38.25    5.85
 -28   0  -6   37.88    6.67
   6   0 -28   34.80    6.23
 -28  -2   6    6.10    3.84
 -28   6  -2   10.59    4.77
 -28  -6   2   -3.01    4.00
   6  -2 -28   -4.59    5.41
 -28   2  -6    0.10    4.34
 -28  -4   6   52.62    6.32
 -28  -6   4   54.49    6.32
 -28   6  -4   55.14    7.10
 -28   4  -6   47.78    6.74
 -28   6  -6   57.39    7.18
   8   8 -28   68.03    6.83
   6   8 -28    5.19    3.56
   8   6 -28   -1.22    4.17
  28   4  -8    0.27    3.64
   4   8 -28    0.71    3.24
 -28  -8  -4    8.03    4.09
 -28  -8  -2  122.31    9.11
   8   2 -28  128.95    9.64
  28   2  -8  124.55    8.70
 -28   8   0  273.86   13.87
 -28  -8   0  274.76   12.82
 -28   0  -8  250.47   13.07
   8   0 -28  248.20   13.24
 -28   8  -2  104.32    9.03
 -28  -8   2  118.78    8.44
 -28   2  -8  115.86    9.09
   8  -2 -28  105.93    9.17
 -28   8  -4    5.64    4.38
 -28   4  -8    2.38    4.17
 -28   8  -6   -3.45    4.25
 -28   6  -8   -0.67    3.58
 -28   8  -8   72.36    6.61
  10  10 -28  286.03   11.62
  28  10 -10  281.63   12.42
   8  10 -28  172.75    9.14
  10   8 -28  179.03    9.63
  28   8 -10  151.98    9.33
  28   6 -10   26.28    4.96
   6  10 -28   30.16    4.49
  10   6 -28   30.50    5.23
  28   4 -10   38.75    5.39
 -28 -10  -4   44.54    5.61
  10   4 -28   36.56    5.87
 -28 -10  -2  224.86   11.20
  10   2 -28  227.20   12.08
  28   2 -10  234.59   11.24
 -28 -10   0  434.90   15.03
  10   0 -28  422.88   16.58
 -28   2 -10  217.35   11.47
  10  -2 -28  208.54   11.48
 -28  10  -4   46.39    6.19
  10  -4 -28   41.42    5.84
 -28   4 -10   42.42    6.02
 -28  10  -6   33.10    4.72
 -28   6 -10   35.75    5.15
 -28  10  -8  166.19    8.99
 -28   8 -10  163.77    8.93
 -28  10 -10  253.83   10.01
  28  12 -12   43.62    4.74
  12  12 -28   36.29    3.83
  10  12 -28  127.53    7.01
  12  10 -28  129.90    7.52
  28  10 -12  129.81    7.97
  28  12 -10  135.10    8.46
  28   8 -12   62.19    6.12
   8  12 -28   52.57    4.77
  12   8 -28   65.70    5.94
  28   6 -12   -5.42    3.84
  12   6 -28   -5.34    3.93
  28   4 -12    5.78    3.47
 -28 -12  -4    8.86    3.43
  12   4 -28    0.74    3.79
  12   2 -28   94.89    8.19
  28   2 -12   93.74    6.87
  12   0 -28  234.04   12.00
 -28   2 -12   90.93    7.43
  12  -2 -28   81.93    7.54
  12  -4 -28   -3.11    4.06
 -28   4 -12   -2.71    3.22
 -28   6 -12    6.52    2.63
 -28   8 -12   50.81    4.74
  28  14 -14   29.53    3.33
  28  12 -14   -2.99    2.56
  28  14 -12   -4.80    2.77
  14  12 -28   -1.88    2.17
  28  10 -14   12.72    3.37
  28  14 -10   20.73    3.79
 -28 -14 -10   18.32    2.80
  14  10 -28   18.69    3.41
  28   8 -14   -5.40    3.28
  28  14  -8    2.43    3.45
 -28 -14  -8    1.54    2.31
  14   8 -28    2.38    2.91
  28   6 -14   36.18    4.65
  14   6 -28   38.45    5.05
  28   4 -14   42.07    5.13
  14   4 -28   39.61    5.08
  28   2 -14    0.88    3.00
  14   2 -28    5.92    3.93
  14   0 -28   48.87    5.56
 -28   2 -14    1.91    2.85
  14  -2 -28    2.64    3.26
  14  -4 -28   35.25    4.83
 -28   4 -14   33.01    4.14
 -28   6 -14   33.12    4.11
  28  10 -16   18.03    2.92
  28  16 -10   17.72    3.20
  16  10 -28   17.64    2.78
  28   8 -16   -0.60    2.75
  28  16  -8    0.72    2.78
  16   8 -28    1.63    2.55
  28   6 -16   31.07    3.78
  16   6 -28   36.90    4.27
  16   4 -28   26.95    4.20
  28   4 -16   41.02    4.52
  16   2 -28    5.49    3.33
  28   2 -16    2.23    2.47
 -28   0 -16   43.11    4.45
  16   0 -28   42.96    4.90
 -28   2 -16    1.63    2.37
  16  -2 -28    4.44    2.78
 -28   4 -16   31.69    3.55
  28  18  -8   46.46    3.89
  18   8 -28   39.91    3.50
  28  18  -6   -1.43    2.43
  18   6 -28    1.27    2.09
  28   6 -18    3.46    2.01
  18   4 -28   -0.77    2.21
  28   4 -18    1.03    1.87
 -28  -2 -18   37.94    3.58
  18   2 -28   36.24    3.88
 -28   0 -18   89.85    5.08
  18   0 -28  103.05    5.99
  18  -2 -28   29.56    3.38
 -28   2 -18   35.23    3.11
 -29   1   1  489.70   18.49
 -29  -1  -1  504.56   18.66
 -29  -1   1  506.90   18.48
 -29   1  -1  482.36   18.27
 -29   3   3   20.36    5.63
 -29  -3  -3   12.87    4.50
 -29   1   3  161.18   10.86
 -29   3   1  174.16   11.41
 -29  -3  -1  162.31   10.49
 -29  -1  -3  154.60   10.43
 -29  -1   3  162.39   10.61
 -29   3  -1  171.72   11.13
 -29  -3   1  154.64   10.17
 -29   1  -3  161.31   10.85
 -29  -3   3   22.20    4.83
 -29   3  -3   27.17    5.85
   5   5 -29   26.89    5.15
 -29  -5  -5   28.23    5.02
   5   3 -29   -2.45    3.80
 -29  -5  -3   -4.72    3.97
 -29   5   1   65.32    7.76
 -29  -5  -1   67.56    7.17
 -29  -1  -5   62.90    7.13
 -29  -1   5   68.33    6.85
 -29   5  -1   70.73    7.77
 -29  -5   1   59.70    6.55
 -29   1  -5   65.18    7.56
 -29  -3   5    4.69    3.67
 -29  -5   3   -3.03    3.88
 -29   5  -3    1.58    4.18
 -29   3  -5    0.24    4.04
 -29  -5   5   19.39    3.77
 -29   5  -5   22.41    5.02
 -29  -7  -7   20.18    4.80
   7   7 -29    5.99    3.40
  29   5  -7    5.49    3.46
 -29  -7  -5    0.78    3.73
 -29  -5  -7    4.37    4.34
   7   5 -29    0.61    3.42
  29   3  -7   28.82    4.41
 -29  -7  -3   21.83    4.93
 -29  -3  -7   21.65    5.24
   7   3 -29   31.09    5.39
 -29   7   1  223.35   12.23
 -29  -7  -1  203.60   10.85
 -29  -1  -7  210.53   11.59
   7   1 -29  202.08   11.30
 -29   7  -1  212.10   11.96
 -29  -7   1  204.75   10.73
 -29   1  -7  203.42   11.44
 -29  -7   3   25.86    4.22
 -29   7  -3   27.90    5.59
 -29   3  -7   29.77    5.54
 -29   7  -5   -5.25    4.18
 -29   5  -7    5.13    3.77
 -29   7  -7   12.21    4.18
   9   9 -29  331.46   12.11
  29   9  -9  342.33   13.08
 -29  -9  -7  111.84    7.60
   7   9 -29  117.21    7.39
   9   7 -29  120.95    8.11
  29   7  -9  112.49    7.79
  29   5  -9   44.77    5.26
 -29  -9  -5   48.34    5.67
   9   5 -29   51.26    5.81
 -29  -9  -3  186.04    9.91
   9   3 -29  173.22   10.17
  29   3  -9  194.55    9.69
 -29  -9  -1  487.29   15.96
 -29  -1  -9  505.05   17.05
   9   1 -29  499.47   17.29
 -29  -9   1  505.61   15.79
 -29   1  -9  496.92   16.93
   9  -1 -29  489.80   17.19
 -29   9  -3  189.24   10.65
 -29   3  -9  164.77    9.74
 -29   9  -5   58.09    6.19
 -29   5  -9   47.79    5.80
 -29   9  -7  103.79    7.23
 -29   7  -9  108.42    7.44
 -29   9  -9  298.19   11.09
  11  11 -29  290.87    9.79
  29  11 -11  301.65   11.20
 -29 -11  -9  312.74   11.19
   9  11 -29  307.93   10.55
  11   9 -29  342.76   11.95
  29   9 -11  346.60   12.43
  29  11  -9  343.32   12.55
 -29 -11  -7  130.51    7.51
  11   7 -29  147.22    8.33
  29   7 -11  139.75    8.16
 -29 -11  -5   81.44    6.20
  11   5 -29   82.26    7.00
  29   5 -11   73.99    6.29
 -29 -11  -3  203.49    9.41
  11   3 -29  213.45   10.80
  29   3 -11  219.37    9.89
 -29  -1 -11  514.24   16.34
  11   1 -29  524.46   17.10
 -29   1 -11  507.68   16.23
  11  -1 -29  526.57   17.08
 -29   3 -11  199.70    9.93
 -29   5 -11   76.63    6.26
 -29   7 -11  131.26    7.36
 -29   9 -11  287.74    9.63
  29  11 -13  119.98    6.52
  29  13 -11  106.19    6.26
 -29 -13  -9  102.99    5.61
  13   9 -29  106.81    6.28
  29   9 -13  107.60    6.56
  29   7 -13   18.37    3.48
  29  13  -7   22.48    4.21
 -29 -13  -7   10.77    2.60
  13   7 -29   17.20    3.85
  29   5 -13   -0.73    2.74
  13   5 -29   -1.47    2.91
  29   3 -13   40.08    4.46
  13   3 -29   38.83    4.86
 -29  -1 -13  192.17    9.27
  13   1 -29  211.68   10.22
 -29   1 -13  186.28    9.10
  13  -1 -29  208.37   10.03
 -29   3 -13   37.14    4.40
 -29   5 -13    0.76    2.32
 -29   7 -13   11.99    2.35
  29   9 -15   30.31    3.47
  29  15  -9   30.18    3.64
  15   9 -29   31.88    3.36
  29   7 -15   -5.63    2.64
  29  15  -7    1.28    2.47
  15   7 -29    0.76    2.11
  15   5 -29   13.83    3.13
  29   5 -15   20.86    3.31
 -29  -3 -15    1.15    2.35
  15   3 -29    4.88    3.03
  29   3 -15    1.68    1.98
 -29  -1 -15   68.96    5.15
  15   1 -29   72.88    5.78
 -29   1 -15   68.28    5.09
  15  -1 -29   78.48    5.96
 -29   3 -15    2.14    2.03
 -29   5 -15   12.35    2.40
  29  17  -7    4.30    2.04
  29  17  -5    3.01    2.31
 -29  -5 -17    1.75    1.83
  17   5 -29    5.94    2.31
 -29  -3 -17    5.43    2.16
  17   3 -29    7.12    2.43
 -29  -1 -17   64.08    4.22
  17   1 -29   80.72    5.26
 -29   1 -17   66.72    4.12
 -30   0   0  581.35   19.22
 -30   2   2  224.34   11.97
 -30  -2  -2  208.41   11.21
 -30   0   2  375.13   15.01
 -30   2   0  349.50   14.83
 -30  -2   0  355.13   14.62
 -30   0  -2  356.96   14.88
 -30  -2   2  213.99   11.27
 -30   2  -2  229.51   12.13
 -30  -4  -4   -0.36    3.53
 -30   4   2   54.51    6.96
 -30  -4  -2   46.57    5.71
 -30  -2  -4   38.72    5.91
 -30   0   4  112.44    8.33
 -30   4   0  102.51    8.31
 -30  -4   0  103.19    8.08
 -30   0  -4  110.52    8.50
 -30  -2   4   45.37    5.68
 -30  -4   2   47.19    5.50
 -30   4  -2   45.08    6.25
 -30   2  -4   43.01    5.97
 -30  -4   4   -5.71    3.74
 -30   4  -4   -5.78    3.95
  30   6  -6   10.97    3.56
 -30  -6  -6   10.02    3.46
  30   4  -6    0.01    2.91
 -30  -6  -4   -0.06    3.21
 -30  -4  -6   -1.49    3.89
 -30  -6  -2   59.80    6.00
 -30  -2  -6   48.52    6.11
 -30   6   0  123.78    8.94
 -30  -6   0  137.28    8.66
 -30   0  -6  134.66    9.00
 -30   6  -2   50.85    6.27
 -30  -6   2   62.66    5.98
 -30   2  -6   47.42    5.95
 -30   6  -4    1.39    3.53
 -30   4  -6    2.99    3.48
 -30   6  -6    4.93    3.51
 -30  -8  -8  144.52    7.91
  30   8  -8  148.42    8.13
  30   6  -8   17.95    3.57
  30   8  -6   26.56    4.39
   8   6 -30   25.95    4.31
 -30  -8  -6   25.73    4.54
 -30  -6  -8   27.86    4.51
  30   4  -8   47.85    4.86
   8   4 -30   46.20    5.38
 -30  -8  -4   48.09    5.35
 -30  -4  -8   51.57    5.72
 -30  -8  -2  263.10   11.16
 -30  -2  -8  245.93   11.37
 -30  -8   0  452.84   14.50
 -30   0  -8  397.21   14.58
 -30   2  -8  250.89   11.55
 -30   8  -4   39.18    5.00
 -30   4  -8   45.53    5.28
 -30   8  -6   22.80    4.13
 -30   6  -8   25.50    4.09
 -30   8  -8  129.82    7.30
 -30 -10 -10  404.48   11.81
  30  10 -10  443.92   12.94
 -30 -10  -8  276.59   10.20
 -30  -8 -10  284.20   10.62
  10   8 -30  278.22   10.28
  30   8 -10  288.45   10.64
  30  10  -8  315.63   11.44
 -30 -10  -6  112.81    6.75
 -30  -6 -10  115.79    7.16
  10   6 -30  112.89    7.07
  30   6 -10  118.15    7.01
 -30 -10  -4  155.41    7.90
 -30  -4 -10  160.38    8.68
  10   4 -30  173.79    9.10
  30   4 -10  155.21    7.80
 -30 -10  -2  438.28   13.23
 -30  -2 -10  431.75   14.39
  10   2 -30  441.71   14.84
 -30   0 -10  630.45   17.64
 -30   2 -10  423.69   14.14
 -30   4 -10  147.52    8.07
 -30   6 -10  109.60    6.65
 -30   8 -10  246.81    9.02
 -30 -10 -12  241.54    8.35
  30  10 -12  251.38    8.80
  30  12 -10  257.67    9.17
 -30 -12  -8  138.46    6.29
 -30  -8 -12  145.38    7.03
  12   8 -30  145.02    6.96
  30   8 -12  158.45    7.28
  30  12  -8  164.76    7.78
  30   6 -12   40.43    4.13
  30  12  -6   41.95    4.59
 -30  -6 -12   47.80    4.57
  12   6 -30   55.68    4.95
 -30  -4 -12   75.16    5.67
  12   4 -30   74.86    5.85
  30   4 -12   69.45    4.82
 -30  -2 -12  256.95   10.23
  12   2 -30  276.68   10.98
 -30   0 -12  405.22   12.97
 -30   2 -12  253.81   10.00
 -30   4 -12   63.58    5.03
 -30   6 -12   32.38    3.50
  30  14  -8   30.26    3.49
 -30  -8 -14   16.72    2.51
  30  14  -6    3.18    2.34
 -30  -6 -14   -2.27    1.98
  14   6 -30   -0.01    1.97
 -30  -4 -14   -2.49    2.30
  14   4 -30   -0.27    2.33
 -30  -2 -14   56.02    4.48
  14   2 -30   55.39    4.77
 -30   0 -14  127.32    6.58
 -30   2 -14   60.23    4.52
 -30   4 -14   -1.56    1.77
  30  16  -4   13.99    2.79
 -30  -4 -16   11.62    2.10
 -30  -2 -16    6.97    1.75
 -31   1   1  246.75   11.63
 -31  -1  -1  248.02   11.55
 -31  -1   1  251.66   11.51
 -31   1  -1  258.36   11.90
 -31  -3  -3    5.46    3.23
 -31   3   1   82.88    7.22
 -31  -3  -1   85.78    6.89
 -31  -1  -3   79.32    6.73
 -31   3  -1   88.91    7.44
 -31  -3   1   80.05    6.56
 -31   1  -3   84.74    7.01
 -31   3  -3    2.57    3.56
  31   5  -5   53.08    4.63
 -31  -5  -5   45.72    5.12
 -31  -5  -3    5.18    3.19
 -31  -3  -5    3.86    3.33
 -31  -5  -1   23.51    4.10
 -31  -1  -5   23.07    4.50
 -31   5  -1   22.48    4.76
 -31  -5   1   26.83    4.24
 -31   1  -5   25.65    4.39
 -31   5  -3    3.74    3.31
 -31   3  -5   -0.89    3.35
 -31   5  -5   43.24    5.11
  31   7  -7    0.65    2.52
 -31  -7  -7    2.49    2.60
  31   5  -7   -3.93    2.55
  31   7  -5   -1.10    2.80
 -31  -7  -5    5.79    2.99
 -31  -5  -7    0.42    2.55
 -31  -7  -3   18.23    3.64
 -31  -3  -7   13.79    3.54
 -31  -7  -1  128.62    7.37
 -31  -1  -7  116.87    7.53
 -31  -7   1  122.73    7.09
 -31   1  -7  123.20    7.92
 -31   3  -7   16.02    3.57
 -31   7  -5    0.96    2.62
 -31   5  -7    5.08    2.87
 -31   7  -7    1.17    2.59
 -31  -9  -9  206.76    7.92
  31   9  -9  236.82    8.48
 -31  -9  -7   77.91    5.15
 -31  -7  -9   77.40    5.49
  31   7  -9   82.07    5.25
  31   9  -7   89.81    5.72
  31   5  -9   31.82    3.70
  31   9  -5   35.07    4.11
 -31  -9  -5   28.04    3.44
 -31  -5  -9   35.00    4.18
 -31  -9  -3  137.37    7.00
 -31  -3  -9  142.08    7.81
 -31  -1  -9  367.49   12.62
 -31   1  -9  363.17   12.45
 -31   3  -9  143.79    7.69
 -31   5  -9   29.68    3.94
 -31   7  -9   77.85    5.03
 -31  -7 -11   83.15    5.18
  31  11  -7   97.66    5.64
  31  11  -5   39.95    4.17
 -31  -5 -11   37.82    3.98
 -31  -3 -11  144.29    7.29
 -31  -1 -11  353.73   11.47
 -31   1 -11  360.29   11.50
 -31   3 -11  142.45    7.02
 -31   5 -11   32.83    3.44
  31  13  -5   -2.03    1.93
 -31  -5 -13    0.45    1.69
 -31  -3 -13   17.29    2.74
 -31  -1 -13  121.55    5.98
 -31   1 -13  124.62    6.02
 -31   3 -13   21.05    2.70
 -32   0   0  114.23    7.38
 -32  -2  -2    9.40    3.11
 -32   2   0   47.77    5.16
 -32  -2   0   40.95    4.66
 -32   0  -2   39.48    4.62
 -32   2  -2    9.68    3.34
 -32  -4  -4   86.21    6.10
 -32  -4  -2    8.48    2.81
 -32  -2  -4   11.23    3.12
 -32  -4   0    0.06    2.55
 -32   0  -4    0.17    2.89
 -32   4  -2   17.59    3.86
 -32   2  -4   13.80    3.62
 -32   4  -4   82.56    6.12
 -32  -6  -6   57.00    4.60
 -32  -6  -4   68.60    5.21
 -32  -4  -6   64.95    5.28
 -32  -6  -2    2.87    2.38
 -32  -2  -6    1.69    2.45
 -32  -6   0    5.40    2.14
 -32   0  -6    5.59    2.92
 -32   2  -6    4.20    2.91
 -32   4  -6   65.18    5.27
 -32  -8  -6    0.73    1.84
 -32  -6  -8    0.69    1.88
  32   8  -4   -0.09    1.78
 -32  -8  -4   -3.39    2.38
 -32  -4  -8    0.89    2.24
  32   8  -2   41.70    3.71
 -32  -8  -2   46.54    3.96
 -32  -2  -8   38.30    4.15
 -32   0  -8  126.92    6.92
 -32   2  -8   40.68    4.24
 -32   4  -8   -2.22    2.24
 -32  -6 -10    8.38    2.00
 -32  -4 -10   14.69    2.67
 -32  -2 -10  128.44    6.43
  32  10  -2  134.91    6.18
 -32   0 -10  230.92    8.56
 -32   2 -10  115.20    5.95
 -32   4 -10   17.07    2.54
 -32  -2 -12   39.78    3.31
 -32   0 -12  102.63    5.09
 -33  -3  -3  110.63    6.15
 -33  -3  -1   13.80    2.74
 -33  -1  -3   19.94    3.28
 -33   1  -3   23.00    3.37
 -33  -5  -5  223.80    7.96
 -33  -5  -3  145.11    6.54
 -33  -3  -5  143.66    6.77
 -33  -1  -5   29.31    3.53
 -33   1  -5   35.24    3.81
 -33   3  -5  148.47    7.04
 -33  -5  -7  115.00    5.50
 -33  -3  -7   54.29    4.09
 -33  -1  -7   -0.09    1.92
 -33   1  -7    1.46    2.02
 -33   3  -7   52.88    4.06
 -33  -1  -9   40.18    3.43
 -33   1  -9   43.79    3.42

TITL GML198 in F-43m
REM F-43m (#216 in standard setting)
CELL 1.54184  27.577876  27.577876  27.577876  90.0000  90.0000  90.0000
ZERR  292.00   0.000272   0.000272   0.000272   0.0000   0.0000   0.0000
LATT -4
SYMM -x,-y, z
SYMM -x, y,-z
SYMM  x,-y,-z
SYMM  z, x, y
SYMM  z,-x,-y
SYMM -z,-x, y
SYMM -z, x,-y
SYMM  y, z, x
SYMM -y, z,-x
SYMM  y,-z,-x
SYMM -y,-z, x
SYMM  y, x, z
SYMM -y,-x, z
SYMM  y,-x,-z
SYMM -y, x,-z
SYMM  x, z, y
SYMM -x, z,-y
SYMM -x,-z, y
SYMM  x,-z,-y
SYMM  z, y, x
SYMM  z,-y,-x
SYMM -z, y,-x
SYMM -z,-y, x
SFAC C H N O Gd
UNIT 292.00 292.00 292.00 292.00 292.00
TREF
HKLF 4
END
_computing_structure_solution     'SHELXT 2014/4 (Sheldrick, 2014)'
;
_shelx_hkl_checksum              81751
_shelx_fab_file
;
    2    2    2   -452.06      0.00
    0    2    2    249.07      0.00
    1    1    3    -73.03      0.00
    3    3    3     40.60      0.00
    1    3    3    -42.01      0.00
    0    0    4   -493.54      0.00
    2    2    4    -58.29      0.00
    0    2    4    216.60      0.00
    4    4    4    112.39      0.00
    2    4    4     12.49      0.00
    0    4    4    342.23      0.00
    1    1    5     24.86      0.00
    3    3    5     99.47      0.00
    1    3    5     39.75      0.00
    5    5    5     14.13      0.00
    3    5    5     16.70      0.00
    1    5    5      6.32      0.00
    0    0    6    155.81      0.00
    2    2    6     19.54      0.00
    0    2    6    -58.78      0.00
    4    4    6     72.94      0.00
    2    4    6    -39.21      0.00
    0    4    6    -10.95      0.00
    6    6    6    -87.71      0.00
    4    6    6    -12.37      0.00
    2    6    6   -123.54      0.00
    0    6    6     51.87      0.00
    1    1    7    -17.18      0.00
    3    3    7    -57.51      0.00
    1    3    7      2.78      0.00
    5    5    7    -45.56      0.00
    3    5    7    -30.38      0.00
    1    5    7    -22.28      0.00
    7    7    7    -22.81      0.00
    5    7    7     30.64      0.00
    3    7    7     59.98      0.00
    1    7    7      0.73      0.00
    0    0    8    203.66      0.00
    2    2    8    -29.40      0.00
    0    2    8    -73.93      0.00
    4    4    8     83.75      0.00
    2    4    8    -29.86      0.00
    0    4    8    -24.33      0.00
    6    6    8      5.36      0.00
    4    6    8      1.49      0.00
    2    6    8    -18.05      0.00
    0    6    8     35.77      0.00
    8    8    8     61.99      0.00
    6    8    8    -10.01      0.00
    4    8    8     -3.55      0.00
    2    8    8     41.29      0.00
    0    8    8    105.27      0.00
    1    1    9    -58.55      0.00
    3    3    9    -38.46      0.00
    1    3    9     44.17      0.00
    5    5    9    -17.74      0.00
    3    5    9    -24.86      0.00
    1    5    9     11.15      0.00
    7    7    9      3.45      0.00
    5    7    9     12.32      0.00
    3    7    9     30.11      0.00
    1    7    9      6.73      0.00
    9    9    9    -17.70      0.00
    7    9    9      1.38      0.00
    5    9    9      0.28      0.00
    3    9    9      2.30      0.00
    1    9    9    -18.22      0.00
    0    0   10    -25.06      0.00
    2    2   10    -59.42      0.00
    0    2   10     40.62      0.00
    4    4   10    -16.74      0.00
    2    4   10     56.32      0.00
    0    4   10     50.92      0.00
    6    6   10     16.20      0.00
    4    6   10     -1.26      0.00
    2    6   10    -17.86      0.00
    0    6   10    -27.71      0.00
    8    8   10     13.68      0.00
    6    8   10      2.88      0.00
    4    8   10     17.30      0.00
    2    8   10    -17.26      0.00
    0    8   10      8.37      0.00
   10   10   10     -5.99      0.00
    8   10   10      2.20      0.00
    6   10   10    -21.76      0.00
    4   10   10      4.23      0.00
    2   10   10    -40.97      0.00
    0   10   10     30.39      0.00
    1    1   11      4.05      0.00
    3    3   11     64.48      0.00
    1    3   11      6.22      0.00
    5    5   11      1.25      0.00
    3    5   11      8.87      0.00
    1    5   11    -28.80      0.00
    7    7   11      5.66      0.00
    5    7   11     20.95      0.00
    3    7   11    -22.32      0.00
    1    7   11      0.42      0.00
    9    9   11     -5.94      0.00
    7    9   11     15.70      0.00
    5    9   11    -30.58      0.00
    3    9   11    -13.57      0.00
    1    9   11      7.22      0.00
   11   11   11      4.61      0.00
    9   11   11      1.77      0.00
    7   11   11     -2.99      0.00
    5   11   11     13.66      0.00
    3   11   11      2.82      0.00
    1   11   11      7.54      0.00
    0    0   12    -59.14      0.00
    2    2   12     33.20      0.00
    0    2   12    -20.54      0.00
    4    4   12    -14.20      0.00
    2    4   12    -18.87      0.00
    0    4   12     56.60      0.00
    6    6   12    -10.38      0.00
    4    6   12     -0.71      0.00
    2    6   12    -40.12      0.00
    0    6   12     -8.91      0.00
    8    8   12    -28.46      0.00
    6    8   12     -6.12      0.00
    4    8   12     50.54      0.00
    2    8   12    -17.95      0.00
    0    8   12    -16.64      0.00
   10   10   12     -6.07      0.00
    8   10   12     -2.21      0.00
    6   10   12    -21.45      0.00
    4   10   12     11.43      0.00
    2   10   12     -2.00      0.00
    0   10   12     11.28      0.00
   12   12   12     -3.44      0.00
   10   12   12      5.70      0.00
    8   12   12      8.38      0.00
    6   12   12     14.44      0.00
    4   12   12     -9.63      0.00
    2   12   12     -0.20      0.00
    0   12   12     31.18      0.00
    1    1   13     30.38      0.00
    3    3   13     43.71      0.00
    1    3   13      1.23      0.00
    5    5   13     -5.76      0.00
    3    5   13      6.93      0.00
    1    5   13    -17.55      0.00
    7    7   13     34.26      0.00
    5    7   13     -8.22      0.00
    3    7   13      9.16      0.00
    1    7   13     10.41      0.00
    9    9   13      8.44      0.00
    7    9   13    -37.96      0.00
    5    9   13      3.86      0.00
    3    9   13     -3.06      0.00
    1    9   13     12.58      0.00
   11   11   13    -11.88      0.00
    9   11   13     -7.97      0.00
    7   11   13     -1.15      0.00
    5   11   13     17.20      0.00
    3   11   13     14.51      0.00
    1   11   13     -8.31      0.00
   13   13   13      3.70      0.00
   11   13   13     14.37      0.00
    9   13   13     -2.88      0.00
    7   13   13     -0.61      0.00
    5   13   13      4.81      0.00
    3   13   13     -0.49      0.00
    1   13   13      3.69      0.00
    0    0   14     11.44      0.00
    2    2   14     21.62      0.00
    0    2   14     43.60      0.00
    4    4   14     11.40      0.00
    2    4   14      9.54      0.00
    0    4   14     15.36      0.00
    6    6   14    -11.86      0.00
    4    6   14     19.54      0.00
    2    6   14      3.04      0.00
    0    6   14      6.98      0.00
    8    8   14     -3.45      0.00
    6    8   14     -1.25      0.00
    4    8   14     20.44      0.00
    2    8   14     -2.91      0.00
    0    8   14     25.87      0.00
   10   10   14      5.72      0.00
    8   10   14     -3.12      0.00
    6   10   14     -5.72      0.00
    4   10   14     -2.28      0.00
    2   10   14     -5.52      0.00
    0   10   14      5.06      0.00
   12   12   14     -9.96      0.00
   10   12   14    -13.93      0.00
    8   12   14     10.90      0.00
    6   12   14      3.39      0.00
    4   12   14      1.72      0.00
    2   12   14     -1.81      0.00
    0   12   14      2.55      0.00
   14   14   14     -3.93      0.00
   12   14   14     12.69      0.00
   10   14   14     -7.62      0.00
    8   14   14     -7.13      0.00
    6   14   14     -7.57      0.00
    4   14   14      9.51      0.00
    2   14   14      5.26      0.00
    0   14   14     34.02      0.00
    1    1   15      3.61      0.00
    3    3   15      3.12      0.00
    1    3   15     10.50      0.00
    5    5   15    -11.01      0.00
    3    5   15    -21.10      0.00
    1    5   15      3.95      0.00
    7    7   15      0.63      0.00
    5    7   15      0.87      0.00
    3    7   15      5.70      0.00
    1    7   15      1.71      0.00
    9    9   15    -12.53      0.00
    7    9   15      0.82      0.00
    5    9   15      2.59      0.00
    3    9   15     -2.47      0.00
    1    9   15    -25.21      0.00
   11   11   15     -3.65      0.00
    9   11   15      3.12      0.00
    7   11   15     -7.77      0.00
    5   11   15     -3.29      0.00
    3   11   15     -2.84      0.00
    1   11   15     -3.51      0.00
   13   13   15    -15.40      0.00
   11   13   15     -3.93      0.00
    9   13   15      5.77      0.00
    7   13   15      5.85      0.00
    5   13   15    -13.84      0.00
    3   13   15    -11.70      0.00
    1   13   15     17.99      0.00
   15   15   15      2.06      0.00
   13   15   15      7.81      0.00
   11   15   15     -2.41      0.00
    9   15   15      0.41      0.00
    7   15   15      2.65      0.00
    5   15   15      3.12      0.00
    3   15   15     11.47      0.00
    1   15   15      8.77      0.00
    0    0   16     56.59      0.00
    2    2   16     -6.14      0.00
    0    2   16      0.37      0.00
    4    4   16      0.04      0.00
    2    4   16      2.02      0.00
    0    4   16    -28.54      0.00
    6    6   16     -3.74      0.00
    4    6   16      2.74      0.00
    2    6   16    -16.46      0.00
    0    6   16     -4.19      0.00
    8    8   16     10.85      0.00
    6    8   16     -5.99      0.00
    4    8   16    -19.25      0.00
    2    8   16     -8.31      0.00
    0    8   16     22.32      0.00
   10   10   16     -6.38      0.00
    8   10   16      4.60      0.00
    6   10   16     -0.67      0.00
    4   10   16     -9.32      0.00
    2   10   16     -8.99      0.00
    0   10   16      1.02      0.00
   12   12   16     10.09      0.00
   10   12   16     -3.78      0.00
    8   12   16     -4.63      0.00
    6   12   16     -0.60      0.00
    4   12   16     12.02      0.00
    2   12   16     -8.70      0.00
    0   12   16    -22.26      0.00
   14   14   16    -16.68      0.00
   12   14   16      8.29      0.00
   10   14   16     10.91      0.00
    8   14   16      5.41      0.00
    6   14   16     -7.20      0.00
    4   14   16      4.97      0.00
    2   14   16     -1.46      0.00
    0   14   16     -5.10      0.00
   16   16   16     25.83      0.00
   14   16   16      0.02      0.00
   12   16   16     -7.27      0.00
   10   16   16      3.84      0.00
    8   16   16     14.61      0.00
    6   16   16     -0.40      0.00
    4   16   16     -7.15      0.00
    2   16   16     -6.79      0.00
    0   16   16     25.09      0.00
    1    1   17     -5.15      0.00
    3    3   17    -16.43      0.00
    1    3   17     39.51      0.00
    5    5   17     24.66      0.00
    3    5   17     -9.80      0.00
    1    5   17      3.51      0.00
    7    7   17    -10.46      0.00
    5    7   17      7.13      0.00
    3    7   17     15.03      0.00
    1    7   17      2.78      0.00
    9    9   17      3.72      0.00
    7    9   17     -1.55      0.00
    5    9   17      4.62      0.00
    3    9   17      2.70      0.00
    1    9   17      0.25      0.00
   11   11   17      5.31      0.00
    9   11   17      7.24      0.00
    7   11   17      5.34      0.00
    5   11   17    -13.55      0.00
    3   11   17     -1.56      0.00
    1   11   17     19.25      0.00
   13   13   17     -1.92      0.00
   11   13   17     -4.48      0.00
    9   13   17      2.04      0.00
    7   13   17      8.51      0.00
    5   13   17      4.18      0.00
    3   13   17      3.07      0.00
    1   13   17    -26.24      0.00
   15   15   17     -3.54      0.00
   13   15   17     10.93      0.00
   11   15   17      4.19      0.00
    9   15   17    -12.85      0.00
    7   15   17     -5.02      0.00
    5   15   17      9.55      0.00
    3   15   17      4.28      0.00
    1   15   17     -8.01      0.00
   17   17   17     16.91      0.00
   15   17   17      0.38      0.00
   13   17   17    -14.48      0.00
   11   17   17     12.37      0.00
    9   17   17     -0.20      0.00
    7   17   17    -13.65      0.00
    5   17   17      1.61      0.00
    3   17   17     -3.34      0.00
    1   17   17      3.47      0.00
    0    0   18      9.50      0.00
    2    2   18     -5.04      0.00
    0    2   18     -3.43      0.00
    4    4   18     14.31      0.00
    2    4   18      6.51      0.00
    0    4   18     25.69      0.00
    6    6   18     -3.53      0.00
    4    6   18     -3.39      0.00
    2    6   18     16.90      0.00
    0    6   18     -1.74      0.00
    8    8   18      4.12      0.00
    6    8   18      9.32      0.00
    4    8   18     -0.34      0.00
    2    8   18      4.00      0.00
    0    8   18      0.11      0.00
   10   10   18     -6.15      0.00
    8   10   18    -10.82      0.00
    6   10   18      5.07      0.00
    4   10   18     17.85      0.00
    2   10   18      0.25      0.00
    0   10   18      7.46      0.00
   12   12   18      6.05      0.00
   10   12   18      4.10      0.00
    8   12   18     -0.42      0.00
    6   12   18     -8.04      0.00
    4   12   18      8.02      0.00
    2   12   18     -6.11      0.00
    0   12   18      2.20      0.00
   14   14   18      2.64      0.00
   12   14   18    -15.11      0.00
   10   14   18     -3.97      0.00
    8   14   18     -8.46      0.00
    6   14   18     -2.48      0.00
    4   14   18     -4.96      0.00
    2   14   18     -2.83      0.00
    0   14   18     -1.39      0.00
   16   16   18     -1.49      0.00
   14   16   18      6.07      0.00
   12   16   18      0.99      0.00
   10   16   18     -4.26      0.00
    8   16   18    -25.90      0.00
    6   16   18      4.08      0.00
    4   16   18      3.85      0.00
    2   16   18      6.62      0.00
    0   16   18     -3.16      0.00
   18   18   18      2.05      0.00
   16   18   18      2.09      0.00
   14   18   18     -4.13      0.00
   12   18   18      9.35      0.00
   10   18   18     -5.69      0.00
    8   18   18      2.63      0.00
    6   18   18      5.19      0.00
    4   18   18    -11.22      0.00
    2   18   18     -7.27      0.00
    0   18   18      8.19      0.00
    1    1   19    -14.79      0.00
    3    3   19     -0.61      0.00
    1    3   19     -8.46      0.00
    5    5   19     10.44      0.00
    3    5   19      1.56      0.00
    1    5   19      0.37      0.00
    7    7   19    -25.46      0.00
    5    7   19      1.22      0.00
    3    7   19      3.01      0.00
    1    7   19     -5.68      0.00
    9    9   19      0.26      0.00
    7    9   19      6.09      0.00
    5    9   19     -5.48      0.00
    3    9   19     -6.74      0.00
    1    9   19      1.92      0.00
   11   11   19    -10.25      0.00
    9   11   19     -8.03      0.00
    7   11   19      5.49      0.00
    5   11   19      7.53      0.00
    3   11   19      1.50      0.00
    1   11   19     -5.37      0.00
   13   13   19      7.94      0.00
   11   13   19      4.82      0.00
    9   13   19    -12.74      0.00
    7   13   19     -6.60      0.00
    5   13   19      1.21      0.00
    3   13   19     -9.37      0.00
    1   13   19     -0.99      0.00
   15   15   19     -2.59      0.00
   13   15   19    -12.00      0.00
   11   15   19      4.22      0.00
    9   15   19     -2.08      0.00
    7   15   19    -17.38      0.00
    5   15   19     -6.15      0.00
    3   15   19      2.14      0.00
    1   15   19     11.29      0.00
   17   17   19      6.56      0.00
   15   17   19     -0.37      0.00
   13   17   19      6.71      0.00
   11   17   19     -4.33      0.00
    9   17   19     -6.84      0.00
    7   17   19      2.90      0.00
    5   17   19     -1.95      0.00
    3   17   19     -4.91      0.00
    1   17   19      5.77      0.00
   19   19   19     14.75      0.00
   17   19   19     -8.25      0.00
   15   19   19      0.01      0.00
   13   19   19     -1.75      0.00
   11   19   19      0.36      0.00
    9   19   19      4.31      0.00
    7   19   19      1.21      0.00
    5   19   19     -2.54      0.00
    3   19   19      3.17      0.00
    1   19   19     -7.54      0.00
    0    0   20      7.46      0.00
    2    2   20    -13.35      0.00
    0    2   20      5.04      0.00
    4    4   20     21.73      0.00
    2    4   20      1.44      0.00
    0    4   20     -3.94      0.00
    6    6   20      7.19      0.00
    4    6   20     -9.43      0.00
    2    6   20     -2.83      0.00
    0    6   20      8.37      0.00
    8    8   20     -8.76      0.00
    6    8   20      4.63      0.00
    4    8   20      2.37      0.00
    2    8   20    -10.78      0.00
    0    8   20    -14.29      0.00
   10   10   20     10.65      0.00
    8   10   20      2.10      0.00
    6   10   20     -7.39      0.00
    4   10   20     -1.25      0.00
    2   10   20     -1.92      0.00
    0   10   20      6.99      0.00
   12   12   20     -4.50      0.00
   10   12   20      6.72      0.00
    8   12   20     12.87      0.00
    6   12   20      1.22      0.00
    4   12   20    -19.13      0.00
    2   12   20     -3.03      0.00
    0   12   20      7.13      0.00
   14   14   20      7.65      0.00
   12   14   20      1.23      0.00
   10   14   20    -13.80      0.00
    8   14   20     -4.60      0.00
    6   14   20      8.48      0.00
    4   14   20      0.34      0.00
    2   14   20     -4.59      0.00
    0   14   20     -2.65      0.00
   16   16   20     -5.76      0.00
   14   16   20      1.52      0.00
   12   16   20      4.54      0.00
   10   16   20      1.87      0.00
    8   16   20     -5.98      0.00
    6   16   20      1.69      0.00
    4   16   20      4.74      0.00
    2   16   20     -0.76      0.00
    0   16   20     -3.23      0.00
   18   18   20      0.04      0.00
   16   18   20     -8.76      0.00
   14   18   20      4.08      0.00
   12   18   20      3.51      0.00
   10   18   20      7.91      0.00
    8   18   20     -0.52      0.00
    6   18   20     -6.89      0.00
    4   18   20     -3.98      0.00
    2   18   20      5.40      0.00
    0   18   20     -4.91      0.00
   16   20   20      5.17      0.00
   14   20   20    -10.66      0.00
   12   20   20     -9.64      0.00
   10   20   20      4.77      0.00
    8   20   20      5.72      0.00
    6   20   20     -3.88      0.00
    4   20   20     -3.42      0.00
    2   20   20      2.68      0.00
    0   20   20      0.78      0.00
    1    1   21     21.81      0.00
    3    3   21      2.37      0.00
    1    3   21    -13.12      0.00
    5    5   21     -9.96      0.00
    3    5   21     25.55      0.00
    1    5   21     -6.90      0.00
    7    7   21     28.86      0.00
    5    7   21     -7.99      0.00
    3    7   21    -52.43      0.00
    1    7   21     20.94      0.00
    9    9   21     -1.20      0.00
    7    9   21      7.54      0.00
    5    9   21      1.41      0.00
    3    9   21     -2.11      0.00
    1    9   21     -2.96      0.00
   11   11   21     14.76      0.00
    9   11   21      2.12      0.00
    7   11   21     -4.08      0.00
    5   11   21     -1.18      0.00
    3   11   21      5.77      0.00
    1   11   21     -7.30      0.00
   13   13   21     -5.19      0.00
   11   13   21     -5.58      0.00
    9   13   21      7.93      0.00
    7   13   21     -2.28      0.00
    5   13   21      2.09      0.00
    3   13   21     -3.56      0.00
    1   13   21     -5.31      0.00
   15   15   21     -0.27      0.00
   13   15   21      0.77      0.00
   11   15   21     -7.94      0.00
    9   15   21     -0.39      0.00
    7   15   21      5.04      0.00
    5   15   21      3.75      0.00
    3   15   21     -9.15      0.00
    1   15   21     -0.04      0.00
   17   17   21     -8.48      0.00
   15   17   21      2.72      0.00
   13   17   21      6.51      0.00
   11   17   21      2.93      0.00
    9   17   21      4.47      0.00
    7   17   21      0.95      0.00
    5   17   21     -6.13      0.00
    3   17   21     -6.73      0.00
    1   17   21     -0.44      0.00
   17   19   21     -4.66      0.00
   15   19   21      3.79      0.00
   13   19   21      0.78      0.00
   11   19   21     -0.17      0.00
    9   19   21      0.32      0.00
    7   19   21      2.04      0.00
    5   19   21     -2.07      0.00
    3   19   21      2.05      0.00
    1   19   21     -1.57      0.00
   15   21   21     -2.75      0.00
   13   21   21      9.80      0.00
   11   21   21     -1.05      0.00
    9   21   21     -3.57      0.00
    7   21   21     -9.43      0.00
    5   21   21      3.90      0.00
    3   21   21     10.05      0.00
    1   21   21     -3.59      0.00
    0    0   22    -22.09      0.00
    2    2   22     -4.34      0.00
    0    2   22     -4.34      0.00
    4    4   22     -1.47      0.00
    2    4   22    -23.79      0.00
    0    4   22     11.56      0.00
    6    6   22    -11.78      0.00
    4    6   22     -6.94      0.00
    2    6   22    -14.21      0.00
    0    6   22     41.25      0.00
    8    8   22     12.42      0.00
    6    8   22     -6.37      0.00
    4    8   22     -4.45      0.00
    2    8   22      0.40      0.00
    0    8   22    -11.53      0.00
   10   10   22     -8.92      0.00
    8   10   22      2.16      0.00
    6   10   22      7.28      0.00
    4   10   22     -0.64      0.00
    2   10   22      4.63      0.00
    0   10   22      1.06      0.00
   12   12   22     -3.20      0.00
   10   12   22     -2.06      0.00
    8   12   22     -3.34      0.00
    6   12   22     10.50      0.00
    4   12   22     -5.01      0.00
    2   12   22     -5.84      0.00
    0   12   22     -6.17      0.00
   14   14   22     -4.16      0.00
   12   14   22     -4.62      0.00
   10   14   22     -0.47      0.00
    8   14   22     -3.45      0.00
    6   14   22     -2.85      0.00
    4   14   22     -3.89      0.00
    2   14   22      8.13      0.00
    0   14   22     -3.41      0.00
   16   16   22     -5.22      0.00
   14   16   22     -1.35      0.00
   12   16   22     -2.41      0.00
   10   16   22     -3.40      0.00
    8   16   22      4.75      0.00
    6   16   22     -5.74      0.00
    4   16   22     -5.29      0.00
    2   16   22     -2.42      0.00
    0   16   22     -0.41      0.00
   18   18   22     -7.40      0.00
   16   18   22     10.32      0.00
   14   18   22      1.90      0.00
   12   18   22     -1.47      0.00
   10   18   22     -0.22      0.00
    8   18   22      1.79      0.00
    6   18   22    -12.95      0.00
    4   18   22     10.62      0.00
    2   18   22      0.26      0.00
    0   18   22     -3.80      0.00
   16   20   22      2.06      0.00
   14   20   22     11.77      0.00
   12   20   22     -4.69      0.00
   10   20   22     -0.98      0.00
    8   20   22      2.07      0.00
    6   20   22      7.56      0.00
    4   20   22     -6.44      0.00
    2   20   22     -1.57      0.00
    0   20   22      1.46      0.00
   12   22   22     -2.33      0.00
   10   22   22     -5.38      0.00
    8   22   22      8.51      0.00
    6   22   22     -0.47      0.00
    4   22   22      1.91      0.00
    2   22   22     -1.93      0.00
    0   22   22      7.20      0.00
    1    1   23     -0.89      0.00
    3    3   23     -6.94      0.00
    1    3   23    -13.61      0.00
    5    5   23      6.64      0.00
    3    5   23    -10.67      0.00
    1    5   23     22.13      0.00
    7    7   23     -8.12      0.00
    5    7   23     -1.40      0.00
    3    7   23      6.50      0.00
    1    7   23      4.90      0.00
    9    9   23    -13.98      0.00
    7    9   23     -1.27      0.00
    5    9   23      9.85      0.00
    3    9   23     11.55      0.00
    1    9   23      7.31      0.00
   11   11   23     -8.64      0.00
    9   11   23      5.03      0.00
    7   11   23      4.76      0.00
    5   11   23     -0.54      0.00
    3   11   23     -2.53      0.00
    1   11   23      7.19      0.00
   13   13   23     -0.49      0.00
   11   13   23     -8.05      0.00
    9   13   23      3.54      0.00
    7   13   23      5.49      0.00
    5   13   23     -1.11      0.00
    3   13   23      1.49      0.00
    1   13   23     -0.35      0.00
   15   15   23      3.62      0.00
   13   15   23     -3.43      0.00
   11   15   23     -2.34      0.00
    9   15   23     -2.19      0.00
    7   15   23     -2.41      0.00
    5   15   23      0.06      0.00
    3   15   23      0.80      0.00
    1   15   23      6.54      0.00
   17   17   23      5.08      0.00
   15   17   23      2.62      0.00
   13   17   23      0.78      0.00
   11   17   23    -11.91      0.00
    9   17   23     -5.21      0.00
    7   17   23     -1.09      0.00
    5   17   23      6.41      0.00
    3   17   23      2.14      0.00
    1   17   23     -4.48      0.00
   15   19   23     -3.62      0.00
   13   19   23      1.37      0.00
   11   19   23      9.52      0.00
    9   19   23      4.75      0.00
    7   19   23    -14.79      0.00
    5   19   23     -0.60      0.00
    3   19   23      5.97      0.00
    1   19   23      2.82      0.00
   13   21   23     -8.04      0.00
   11   21   23      3.69      0.00
    9   21   23      9.63      0.00
    7   21   23      4.17      0.00
    5   21   23    -13.13      0.00
    3   21   23     -4.11      0.00
    1   21   23      3.29      0.00
    9   23   23     20.53      0.00
    7   23   23     10.89      0.00
    5   23   23     -1.70      0.00
    3   23   23      3.27      0.00
    1   23   23     -6.01      0.00
    0    0   24     15.59      0.00
    2    2   24     -9.36      0.00
    0    2   24      9.06      0.00
    4    4   24      8.68      0.00
    2    4   24      3.69      0.00
    0    4   24     -8.16      0.00
    6    6   24      4.71      0.00
    4    6   24     11.63      0.00
    2    6   24      0.37      0.00
    0    6   24      8.42      0.00
    8    8   24    -15.36      0.00
    6    8   24      8.71      0.00
    4    8   24      4.51      0.00
    2    8   24     -5.52      0.00
    0    8   24     19.40      0.00
   10   10   24     -2.16      0.00
    8   10   24     -4.41      0.00
    6   10   24     -4.78      0.00
    4   10   24     -4.57      0.00
    2   10   24     29.58      0.00
    0   10   24      1.71      0.00
   12   12   24     -8.01      0.00
   10   12   24     -4.78      0.00
    8   12   24      9.13      0.00
    6   12   24     -2.76      0.00
    4   12   24      4.94      0.00
    2   12   24      2.09      0.00
    0   12   24     -5.71      0.00
   14   14   24     -3.16      0.00
   12   14   24      0.79      0.00
   10   14   24      0.83      0.00
    8   14   24      3.24      0.00
    6   14   24      3.57      0.00
    4   14   24      7.58      0.00
    2   14   24     -3.17      0.00
    0   14   24      3.55      0.00
   16   16   24      3.04      0.00
   14   16   24      1.17      0.00
   12   16   24     -4.82      0.00
   10   16   24     -3.31      0.00
    8   16   24      5.01      0.00
    6   16   24     -0.23      0.00
    4   16   24     -0.13      0.00
    2   16   24     -4.16      0.00
    0   16   24      0.48      0.00
   16   18   24     -1.47      0.00
   14   18   24     -1.02      0.00
   12   18   24     -7.08      0.00
   10   18   24      6.32      0.00
    8   18   24      0.92      0.00
    6   18   24     -4.55      0.00
    4   18   24     -2.89      0.00
    2   18   24      6.41      0.00
    0   18   24      2.82      0.00
   12   20   24     14.63      0.00
   10   20   24     -6.87      0.00
    8   20   24      4.12      0.00
    6   20   24    -16.17      0.00
    4   20   24      6.10      0.00
    2   20   24     -8.78      0.00
    0   20   24      2.90      0.00
   10   22   24      5.35      0.00
    8   22   24      0.84      0.00
    6   22   24     -7.35      0.00
    4   22   24      4.38      0.00
    2   22   24      0.62      0.00
    0   22   24     -4.16      0.00
    1    1   25     -1.76      0.00
    3    3   25     -4.66      0.00
    1    3   25     -7.55      0.00
    5    5   25      5.82      0.00
    3    5   25     -9.44      0.00
    1    5   25      0.29      0.00
    7    7   25     -4.88      0.00
    5    7   25     -0.93      0.00
    3    7   25      2.81      0.00
    1    7   25    -15.49      0.00
    9    9   25     -0.63      0.00
    7    9   25     -8.39      0.00
    5    9   25     -0.31      0.00
    3    9   25      1.44      0.00
    1    9   25      2.94      0.00
   11   11   25     -0.23      0.00
    9   11   25     -0.11      0.00
    7   11   25     -5.66      0.00
    5   11   25     -5.37      0.00
    3   11   25     -4.83      0.00
    1   11   25     13.36      0.00
   13   13   25      2.15      0.00
   11   13   25     -0.57      0.00
    9   13   25      3.71      0.00
    7   13   25      4.16      0.00
    5   13   25     -3.82      0.00
    3   13   25     -0.26      0.00
    1   13   25     -3.10      0.00
   15   15   25     -5.42      0.00
   13   15   25     -2.20      0.00
   11   15   25      1.92      0.00
    9   15   25      5.42      0.00
    7   15   25     -3.44      0.00
    5   15   25      2.19      0.00
    3   15   25      1.18      0.00
    1   15   25     -6.34      0.00
   15   17   25     -0.65      0.00
   13   17   25     -1.71      0.00
   11   17   25     -1.40      0.00
    9   17   25      3.24      0.00
    7   17   25     -5.64      0.00
    5   17   25     -0.38      0.00
    3   17   25      1.45      0.00
    1   17   25     -7.56      0.00
   13   19   25     -1.82      0.00
   11   19   25     -8.40      0.00
    9   19   25      0.55      0.00
    7   19   25      9.31      0.00
    5   19   25     -3.37      0.00
    3   19   25     -5.36      0.00
    1   19   25     -0.34      0.00
    9   21   25     12.25      0.00
    7   21   25     -5.44      0.00
    5   21   25     -2.75      0.00
    3   21   25     -4.92      0.00
    1   21   25      2.05      0.00
    0    0   26      0.92      0.00
    2    2   26     -3.63      0.00
    0    2   26    -10.17      0.00
    4    4   26     -6.97      0.00
    2    4   26      2.29      0.00
    0    4   26      1.23      0.00
    6    6   26     -4.58      0.00
    4    6   26     -7.57      0.00
    2    6   26      1.35      0.00
    0    6   26      0.05      0.00
    8    8   26      3.75      0.00
    6    8   26     -2.47      0.00
    4    8   26     -5.47      0.00
    2    8   26      4.61      0.00
    0    8   26      0.14      0.00
   10   10   26      1.74      0.00
    8   10   26     -0.81      0.00
    6   10   26      4.82      0.00
    4   10   26      9.33      0.00
    2   10   26     -1.85      0.00
    0   10   26      0.50      0.00
   12   12   26      0.93      0.00
   10   12   26     12.38      0.00
    8   12   26      4.85      0.00
    6   12   26     -4.01      0.00
    4   12   26     -1.96      0.00
    2   12   26      3.40      0.00
    0   12   26     -0.08      0.00
   14   14   26     -0.38      0.00
   12   14   26      5.45      0.00
   10   14   26      7.30      0.00
    8   14   26      5.50      0.00
    6   14   26     -3.30      0.00
    4   14   26     -6.36      0.00
    2   14   26     -2.68      0.00
    0   14   26      1.72      0.00
   14   16   26     -6.40      0.00
   12   16   26      1.51      0.00
   10   16   26     -3.10      0.00
    8   16   26     -3.18      0.00
    6   16   26     -5.53      0.00
    4   16   26      0.32      0.00
    2   16   26      4.15      0.00
    0   16   26    -12.93      0.00
   12   18   26     -2.06      0.00
   10   18   26    -10.17      0.00
    8   18   26     18.50      0.00
    6   18   26      3.72      0.00
    4   18   26      5.39      0.00
    2   18   26    -15.13      0.00
    0   18   26      2.71      0.00
   10   20   26     -6.45      0.00
    8   20   26     -9.52      0.00
    6   20   26     -2.53      0.00
    4   20   26     12.94      0.00
    2   20   26     -0.90      0.00
    0   20   26     -5.57      0.00
    1    1   27      5.38      0.00
    3    3   27     10.72      0.00
    1    3   27      8.34      0.00
    5    5   27      4.14      0.00
    3    5   27      5.74      0.00
    1    5   27      6.38      0.00
    7    7   27      0.93      0.00
    5    7   27      1.20      0.00
    3    7   27     -1.22      0.00
    1    7   27     20.82      0.00
    9    9   27      4.12      0.00
    7    9   27      9.43      0.00
    5    9   27     12.29      0.00
    3    9   27      3.00      0.00
    1    9   27      6.87      0.00
   11   11   27      5.47      0.00
    9   11   27     10.09      0.00
    7   11   27      0.27      0.00
    5   11   27     -1.28      0.00
    3   11   27     20.09      0.00
    1   11   27     -0.35      0.00
   13   13   27     -2.79      0.00
   11   13   27      4.89      0.00
    9   13   27      6.13      0.00
    7   13   27      1.91      0.00
    5   13   27      8.26      0.00
    3   13   27      1.63      0.00
    1   13   27     -6.35      0.00
   13   15   27      9.18      0.00
   11   15   27     -1.76      0.00
    9   15   27     -4.19      0.00
    7   15   27      7.80      0.00
    5   15   27      1.93      0.00
    3   15   27     -3.77      0.00
    1   15   27     -2.63      0.00
   11   17   27      6.42      0.00
    9   17   27     12.06      0.00
    7   17   27     -6.19      0.00
    5   17   27     -1.21      0.00
    3   17   27     -3.31      0.00
    1   17   27      3.37      0.00
    9   19   27      5.68      0.00
    7   19   27     -3.72      0.00
    5   19   27     10.31      0.00
    3   19   27     -0.21      0.00
    1   19   27     -1.18      0.00
    0    0   28     10.07      0.00
    2    2   28      2.19      0.00
    0    2   28     -1.05      0.00
    4    4   28      1.04      0.00
    2    4   28      3.45      0.00
    0    4   28     -1.31      0.00
    6    6   28      3.58      0.00
    4    6   28      0.31      0.00
    2    6   28      7.93      0.00
    0    6   28     -4.72      0.00
    8    8   28      3.99      0.00
    6    8   28      2.08      0.00
    4    8   28      3.75      0.00
    2    8   28      5.86      0.00
    0    8   28      2.97      0.00
   10   10   28      0.48      0.00
    8   10   28     -2.75      0.00
    6   10   28     -0.93      0.00
    4   10   28      2.01      0.00
    2   10   28      0.40      0.00
    0   10   28      1.58      0.00
   12   12   28     -3.31      0.00
   10   12   28      8.68      0.00
    8   12   28     -2.98      0.00
    6   12   28     -1.67      0.00
    4   12   28      1.83      0.00
    2   12   28      4.14      0.00
    0   12   28      3.96      0.00
   14   14   28    -11.28      0.00
   12   14   28     -8.94      0.00
   10   14   28     -6.84      0.00
    8   14   28      8.25      0.00
    6   14   28      4.09      0.00
    4   14   28      1.68      0.00
    2   14   28     -7.94      0.00
    0   14   28     -5.92      0.00
   10   16   28     -9.61      0.00
    8   16   28     -4.94      0.00
    6   16   28     -2.25      0.00
    4   16   28      3.81      0.00
    2   16   28      6.79      0.00
    0   16   28     -5.55      0.00
    8   18   28     -4.97      0.00
    6   18   28     10.91      0.00
    4   18   28      8.07      0.00
    2   18   28     -7.54      0.00
    0   18   28     -1.35      0.00
    1    1   29     -5.32      0.00
    3    3   29     -7.89      0.00
    1    3   29     -4.84      0.00
    5    5   29    -14.20      0.00
    3    5   29      5.61      0.00
    1    5   29     -4.96      0.00
    7    7   29    -12.79      0.00
    5    7   29      8.01      0.00
    3    7   29      2.57      0.00
    1    7   29     -7.13      0.00
    9    9   29     -6.20      0.00
    7    9   29     -4.30      0.00
    5    9   29     -2.19      0.00
    3    9   29     -2.40      0.00
    1    9   29     -6.88      0.00
   11   11   29      0.20      0.00
    9   11   29     -0.54      0.00
    7   11   29     -3.33      0.00
    5   11   29     -4.44      0.00
    3   11   29     -2.80      0.00
    1   11   29     -3.03      0.00
   11   13   29     -1.79      0.00
    9   13   29     -1.23      0.00
    7   13   29     -2.36      0.00
    5   13   29      1.09      0.00
    3   13   29     -4.53      0.00
    1   13   29     -2.42      0.00
    9   15   29      3.25      0.00
    7   15   29      0.20      0.00
    5   15   29     -4.82      0.00
    3   15   29     -9.15      0.00
    1   15   29      8.78      0.00
    7   17   29      0.86      0.00
    5   17   29      9.57      0.00
    3   17   29     -2.20      0.00
    1   17   29      8.44      0.00
    0    0   30      8.30      0.00
    2    2   30     10.46      0.00
    0    2   30      4.97      0.00
    4    4   30     17.28      0.00
    2    4   30      4.96      0.00
    0    4   30     -4.00      0.00
    6    6   30     -3.75      0.00
    4    6   30      7.57      0.00
    2    6   30      3.99      0.00
    0    6   30      4.57      0.00
    8    8   30      8.21      0.00
    6    8   30      3.00      0.00
    4    8   30     -1.08      0.00
    2    8   30      5.28      0.00
    0    8   30      6.32      0.00
   10   10   30     -3.83      0.00
    8   10   30     -1.11      0.00
    6   10   30      6.08      0.00
    4   10   30      1.25      0.00
    2   10   30     -0.98      0.00
    0   10   30     -8.90      0.00
   10   12   30     -6.45      0.00
    8   12   30     -4.26      0.00
    6   12   30     -1.70      0.00
    4   12   30      7.64      0.00
    2   12   30      4.45      0.00
    0   12   30    -12.51      0.00
    8   14   30      5.57      0.00
    6   14   30     10.48      0.00
    4   14   30     -2.10      0.00
    2   14   30     -0.03      0.00
    0   14   30    -25.31      0.00
    4   16   30    -20.87      0.00
    2   16   30    -25.52      0.00
    1    1   31      7.48      0.00
    3    3   31     18.48      0.00
    1    3   31      0.67      0.00
    5    5   31     12.25      0.00
    3    5   31      7.34      0.00
    1    5   31      1.44      0.00
    7    7   31     11.84      0.00
    5    7   31     -5.81      0.00
    3    7   31      5.02      0.00
    1    7   31      8.17      0.00
    9    9   31     23.70      0.00
    7    9   31      4.56      0.00
    5    9   31      6.23      0.00
    3    9   31      3.95      0.00
    1    9   31      4.87      0.00
    7   11   31      5.37      0.00
    5   11   31     10.78      0.00
    3   11   31     -1.58      0.00
    1   11   31      1.67      0.00
    5   13   31     -7.38      0.00
    3   13   31     -8.20      0.00
    1   13   31      0.74      0.00
    0    0   32    -27.78      0.00
    2    2   32     -1.34      0.00
    0    2   32    -14.46      0.00
    4    4   32     -6.06      0.00
    2    4   32     -5.47      0.00
    0    4   32     -6.23      0.00
    6    6   32      0.32      0.00
    4    6   32     -5.65      0.00
    2    6   32     -9.04      0.00
    0    6   32     -7.87      0.00
    6    8   32      5.34      0.00
    4    8   32      4.36      0.00
    2    8   32     -3.93      0.00
    0    8   32     -1.03      0.00
    6   10   32    -10.98      0.00
    4   10   32     -2.00      0.00
    2   10   32      2.33      0.00
    0   10   32     -1.07      0.00
    2   12   32      7.12      0.00
    0   12   32      8.32      0.00
    3    3   33     -0.40      0.00
    1    3   33     -1.69      0.00
    5    5   33     -0.24      0.00
    3    5   33     -3.81      0.00
    1    5   33    -10.52      0.00
    5    7   33     -5.55      0.00
    3    7   33     -4.71      0.00
    1    7   33     -3.89      0.00
    1    9   33     -2.75      0.00
    1    1    1    393.66      0.00
    0    0    2   -450.98      0.00
   18   20   20     10.17      0.00
   20   20   20      8.70      0.00
   19   19   21      2.18      0.00
   17   21   21      3.28      0.00
   19   21   21      7.90      0.00
   18   20   22     -1.54      0.00
   20   20   22     -2.74      0.00
   14   22   22      4.20      0.00
   16   22   22     -5.04      0.00
   18   22   22      3.74      0.00
   17   19   23      4.14      0.00
   19   19   23      2.69      0.00
   15   21   23      6.98      0.00
   17   21   23      0.14      0.00
   11   23   23    -31.71      0.00
   13   23   23      3.54      0.00
   15   23   23     -2.07      0.00
   18   18   24      9.79      0.00
   14   20   24      3.09      0.00
   16   20   24     -3.18      0.00
   12   22   24      4.91      0.00
   14   22   24     -9.93      0.00
    0   24   24      0.49      0.00
    2   24   24      2.05      0.00
    4   24   24    -14.12      0.00
    6   24   24     12.34      0.00
    8   24   24      5.39      0.00
   10   24   24      3.08      0.00
   12   24   24    -14.97      0.00
   17   17   25     -7.00      0.00
   15   19   25     -3.02      0.00
   17   19   25      0.26      0.00
   11   21   25    -17.99      0.00
   13   21   25      2.46      0.00
   15   21   25      5.61      0.00
    1   23   25      0.12      0.00
    3   23   25     -0.74      0.00
    5   23   25     16.34      0.00
    7   23   25    -11.29      0.00
    9   23   25    -13.49      0.00
   11   23   25     19.67      0.00
    1   25   25     -1.64      0.00
    3   25   25      3.57      0.00
    5   25   25     -3.25      0.00
   16   16   26      6.89      0.00
   14   18   26     -3.10      0.00
   16   18   26     -9.24      0.00
   12   20   26     -8.57      0.00
   14   20   26     -7.20      0.00
    0   22   26     14.81      0.00
    2   22   26      5.06      0.00
    4   22   26      1.88      0.00
    6   22   26      1.68      0.00
    8   22   26     -3.85      0.00
   10   22   26     -2.43      0.00
    0   24   26      2.44      0.00
    2   24   26     -2.43      0.00
    4   24   26      3.18      0.00
    6   24   26      1.05      0.00
   15   15   27    -13.67      0.00
   13   17   27     -4.32      0.00
   15   17   27     -7.02      0.00
   11   19   27     -7.11      0.00
   13   19   27      0.06      0.00
    1   21   27      7.28      0.00
    3   21   27     10.58      0.00
    5   21   27     12.13      0.00
    7   21   27     -7.45      0.00
    9   21   27    -21.65      0.00
   11   21   27      0.39      0.00
    1   23   27     16.50      0.00
    3   23   27     -6.19      0.00
    5   23   27     -1.84      0.00
   12   16   28      5.51      0.00
   14   16   28     -2.40      0.00
   16   16   28    -11.99      0.00
   10   18   28      4.14      0.00
   12   18   28     15.49      0.00
    0   20   28     14.67      0.00
    2   20   28      3.77      0.00
    4   20   28     -3.00      0.00
    6   20   28     -8.55      0.00
    8   20   28      1.44      0.00
   10   20   28     -0.55      0.00
    0   22   28     13.73      0.00
    2   22   28      2.39      0.00
    4   22   28      4.18      0.00
   13   13   29      0.40      0.00
   11   15   29     -7.18      0.00
   13   15   29    -13.34      0.00
   15   15   29     -7.92      0.00
    9   17   29    -16.00      0.00
   11   17   29     -6.02      0.00
    1   19   29     -9.90      0.00
    3   19   29      2.56      0.00
    5   19   29     11.04      0.00
    7   19   29     -5.78      0.00
    9   19   29      6.38      0.00
    1   21   29      3.81      0.00
    3   21   29     -5.99      0.00
   12   12   30     28.42      0.00
   10   14   30      1.28      0.00
   12   14   30      0.53      0.00
   14   14   30     -5.57      0.00
    0   16   30     76.82      0.00
    6   16   30      5.01      0.00
    8   16   30     10.35      0.00
   10   16   30      3.30      0.00
    0   18   30    -13.73      0.00
    2   18   30     13.38      0.00
    4   18   30      9.43      0.00
    6   18   30     -1.37      0.00
    8   18   30     -0.76      0.00
    9   11   31    -27.93      0.00
   11   11   31      8.72      0.00
    7   13   31      7.02      0.00
    9   13   31      4.10      0.00
   11   13   31     15.66      0.00
    1   15   31     -7.99      0.00
    3   15   31    -14.60      0.00
    5   15   31     13.67      0.00
    7   15   31      5.49      0.00
    9   15   31     11.20      0.00
    1   17   31      6.15      0.00
    3   17   31     -3.05      0.00
    5   17   31      2.18      0.00
    8    8   32      0.87      0.00
    8   10   32      7.38      0.00
   10   10   32     -8.83      0.00
    4   12   32    -23.45      0.00
    6   12   32     -4.61      0.00
    8   12   32      0.49      0.00
   10   12   32     -3.71      0.00
    0   14   32     19.35      0.00
    2   14   32    -24.26      0.00
    4   14   32     -6.51      0.00
    6   14   32      6.08      0.00
    8   14   32     -0.14      0.00
    0   16   32    -36.83      0.00
    2   16   32      3.46      0.00
    4   16   32     10.53      0.00
    1    1   33    -13.32      0.00
    7    7   33     11.34      0.00
    3    9   33     -2.47      0.00
    5    9   33      4.90      0.00
    7    9   33     10.41      0.00
    9    9   33    -14.20      0.00
    1   11   33     12.67      0.00
    3   11   33     -7.60      0.00
    5   11   33    -12.38      0.00
    7   11   33    -19.21      0.00
    9   11   33     13.87      0.00
    1   13   33     -0.74      0.00
    3   13   33    -10.07      0.00
    5   13   33      3.10      0.00
    0    0    0      0.00      0.00
# SQUEEZE RESULTS (Version = 301115)
# Note: Data are Listed for all Voids in the P1 Unit Cell
# i.e. Centre of Gravity, Solvent Accessible Volume,
# Recovered number of Electrons in the Void and
# Details about the Squeezed Material
loop_
  _platon_squeeze_void_nr
  _platon_squeeze_void_average_x
  _platon_squeeze_void_average_y
  _platon_squeeze_void_average_z
  _platon_squeeze_void_volume
  _platon_squeeze_void_count_electrons
  _platon_squeeze_void_content
   1 -0.003 -0.006 -0.003     14513      3157 ' '
# Missing Reflections Below sin(th)/lambda = 0.25
loop_
  _platon_missing_refln_index_h
  _platon_missing_refln_index_k
  _platon_missing_refln_index_l
  _platon_missing_refln_theta
    1    1    1     1.280
    0    0    2     1.478
_platon_squeeze_void_probe_radius                  1.20
_platon_squeeze_details
)
TITL 1_a.res in Fm-3m
CELL   27.5460   27.5460   27.5460     90.00     90.00     90.00
SPGR Fm-3m
# Solvent Accessible Volume =     14665
# Electrons Found in S.A.V. =      3110
# Note: Atoms in Void as Cxxx and Qxxx all others
Q101 0.547 0.047 0.047 !       7.76 eA-3
C102 0.197 0.500 0.000 !       3.62 eA-3
C103 0.875 0.375 0.125 !       2.69 eA-3
C104 0.500 0.501 0.227 !       1.64 eA-3
C105 0.239 0.500 0.000 !       1.57 eA-3
C106 0.154 0.154 0.154 !       1.30 eA-3
C107 0.654 0.154 0.654 !       1.30 eA-3
C108 0.140 0.141 0.859 !       1.25 eA-3
Q109 0.816 0.467 0.244 !       1.06 eA-3
Q110 0.728 0.021 0.237 !       1.06 eA-3
Q111 0.646 0.212 0.019 !       1.00 eA-3
C112 0.221 0.221 0.221 !       1.00 eA-3
C113 0.779 0.279 0.279 !       1.00 eA-3
C114 0.279 0.279 0.779 !       1.00 eA-3
Q115 0.661 0.155 0.024 !       0.95 eA-3
C116 0.193 0.036 0.048 !       0.94 eA-3
Q117 0.009 0.899 0.369 !       0.92 eA-3
Q118 0.491 0.101 0.131 !       0.92 eA-3
C119 0.163 0.382 0.162 !       0.88 eA-3
C120 0.126 0.337 0.121 !       0.86 eA-3
C121 0.132 0.133-0.001 !       0.83 eA-3
C122 0.827 0.317 0.183 !       0.81 eA-3
C123 0.136 0.187 0.166 !       0.80 eA-3
C124 0.104 0.252 0.099 !       0.78 eA-3
C125 0.338 0.164 0.139 !       0.78 eA-3
C126 0.764 0.329 0.234 !       0.78 eA-3
C127 0.635 0.401 0.132 !       0.75 eA-3
C128 0.626 0.204 0.126 !       0.74 eA-3
C129 0.874 0.296 0.874 !       0.74 eA-3
C130 0.283 0.154 0.154 !       0.74 eA-3
C131 0.960 0.140 0.140 !       0.73 eA-3
C132 0.313 0.324 0.163 !       0.72 eA-3
C133 1.000 0.031 0.001 !       0.71 eA-3
C134 0.304 0.142 0.181 !       0.70 eA-3
C135 0.315 0.143 0.643 !       0.69 eA-3
C136 0.815 0.143 0.143 !       0.69 eA-3
Q137 0.442 0.156 0.004 !       0.68 eA-3
C138 0.214 0.039-0.004 !       0.67 eA-3
C139 0.254 0.166 0.166 !       0.67 eA-3
C140 0.200 0.134 0.192 !       0.67 eA-3
C141 0.344 0.288 0.216 !       0.66 eA-3
C142 0.695 0.195 0.109 !       0.66 eA-3
Q143 0.500 0.156-0.005 !       0.66 eA-3
C144 0.154 0.091 0.151 !       0.65 eA-3
C145 0.674 0.262 0.179 !       0.65 eA-3
C146 0.117 0.289 0.888 !       0.65 eA-3
C147 0.309 0.633 0.867 !       0.63 eA-3
C148 0.500 0.500 0.000 !       0.63 eA-3
C149 0.221 0.354 0.217 !       0.62 eA-3
C150 0.809 0.330 0.235 !       0.62 eA-3
C151 0.064 0.173 0.065 !       0.62 eA-3
C152 0.750 0.203 0.252 !       0.62 eA-3
C153 0.952 0.120 0.164 !       0.61 eA-3
C154 0.865 0.260 0.133 !       0.60 eA-3
C155 0.808 0.302 0.198 !       0.59 eA-3
C156 0.653 0.281 0.156 !       0.58 eA-3
C157 0.750 0.249 0.141 !       0.57 eA-3
C158 0.110 0.178 0.178 !       0.57 eA-3
C159 0.643 0.247 0.172 !       0.57 eA-3
C160 0.114 0.161 0.117 !       0.56 eA-3
C161 0.289 0.340 0.117 !       0.56 eA-3
C162 0.850 0.212 0.247 !       0.56 eA-3
C163 0.112 0.110 0.119 !       0.56 eA-3
C164 0.772 0.047 0.035 !       0.56 eA-3
C165 0.595 0.216 0.110 !       0.55 eA-3
C166 0.684 0.282 0.158 !       0.54 eA-3
C167 0.884 0.264 0.119 !       0.54 eA-3
C168 0.943 0.059 0.059 !       0.53 eA-3
C169 0.536 0.386 0.131 !       0.53 eA-3
C170 0.370 0.263 0.129 !       0.53 eA-3
Q171 0.516 0.118 0.014 !       0.52 eA-3
C172 0.578 0.318 0.039 !       0.51 eA-3
C173 0.487 0.427 0.016 !       0.51 eA-3
)
;
_shelx_fab_checksum              25330
loop_
_space_group_symop_operation_xyz
'x, y, z'
'-y, x, z'
'-x, -y, z'
'y, -x, z'
'x, -z, y'
'x, -y, -z'
'x, z, -y'
'z, y, -x'
'-x, y, -z'
'-z, y, x'
'z, x, y'
'y, z, x'
'-y, -z, x'
'z, -x, -y'
'-y, z, -x'
'-z, -x, y'
'-z, x, -y'
'y, -z, -x'
'y, x, -z'
'-y, -x, -z'
'-x, z, y'
'-x, -z, -y'
'z, -y, x'
'-z, -y, -x'
'x, y+1/2, z+1/2'
'-y, x+1/2, z+1/2'
'-x, -y+1/2, z+1/2'
'y, -x+1/2, z+1/2'
'x, -z+1/2, y+1/2'
'x, -y+1/2, -z+1/2'
'x, z+1/2, -y+1/2'
'z, y+1/2, -x+1/2'
'-x, y+1/2, -z+1/2'
'-z, y+1/2, x+1/2'
'z, x+1/2, y+1/2'
'y, z+1/2, x+1/2'
'-y, -z+1/2, x+1/2'
'z, -x+1/2, -y+1/2'
'-y, z+1/2, -x+1/2'
'-z, -x+1/2, y+1/2'
'-z, x+1/2, -y+1/2'
'y, -z+1/2, -x+1/2'
'y, x+1/2, -z+1/2'
'-y, -x+1/2, -z+1/2'
'-x, z+1/2, y+1/2'
'-x, -z+1/2, -y+1/2'
'z, -y+1/2, x+1/2'
'-z, -y+1/2, -x+1/2'
'x+1/2, y, z+1/2'
'-y+1/2, x, z+1/2'
'-x+1/2, -y, z+1/2'
'y+1/2, -x, z+1/2'
'x+1/2, -z, y+1/2'
'x+1/2, -y, -z+1/2'
'x+1/2, z, -y+1/2'
'z+1/2, y, -x+1/2'
'-x+1/2, y, -z+1/2'
'-z+1/2, y, x+1/2'
'z+1/2, x, y+1/2'
'y+1/2, z, x+1/2'
'-y+1/2, -z, x+1/2'
'z+1/2, -x, -y+1/2'
'-y+1/2, z, -x+1/2'
'-z+1/2, -x, y+1/2'
'-z+1/2, x, -y+1/2'
'y+1/2, -z, -x+1/2'
'y+1/2, x, -z+1/2'
'-y+1/2, -x, -z+1/2'
'-x+1/2, z, y+1/2'
'-x+1/2, -z, -y+1/2'
'z+1/2, -y, x+1/2'
'-z+1/2, -y, -x+1/2'
'x+1/2, y+1/2, z'
'-y+1/2, x+1/2, z'
'-x+1/2, -y+1/2, z'
'y+1/2, -x+1/2, z'
'x+1/2, -z+1/2, y'
'x+1/2, -y+1/2, -z'
'x+1/2, z+1/2, -y'
'z+1/2, y+1/2, -x'
'-x+1/2, y+1/2, -z'
'-z+1/2, y+1/2, x'
'z+1/2, x+1/2, y'
'y+1/2, z+1/2, x'
'-y+1/2, -z+1/2, x'
'z+1/2, -x+1/2, -y'
'-y+1/2, z+1/2, -x'
'-z+1/2, -x+1/2, y'
'-z+1/2, x+1/2, -y'
'y+1/2, -z+1/2, -x'
'y+1/2, x+1/2, -z'
'-y+1/2, -x+1/2, -z'
'-x+1/2, z+1/2, y'
'-x+1/2, -z+1/2, -y'
'z+1/2, -y+1/2, x'
'-z+1/2, -y+1/2, -x'
'-x, -y, -z'
'y, -x, -z'
'x, y, -z'
'-y, x, -z'
'-x, z, -y'
'-x, y, z'
'-x, -z, y'
'-z, -y, x'
'x, -y, z'
'z, -y, -x'
'-z, -x, -y'
'-y, -z, -x'
'y, z, -x'
'-z, x, y'
'y, -z, x'
'z, x, -y'
'z, -x, y'
'-y, z, x'
'-y, -x, z'
'y, x, z'
'x, -z, -y'
'x, z, y'
'-z, y, -x'
'z, y, x'
'-x, -y+1/2, -z+1/2'
'y, -x+1/2, -z+1/2'
'x, y+1/2, -z+1/2'
'-y, x+1/2, -z+1/2'
'-x, z+1/2, -y+1/2'
'-x, y+1/2, z+1/2'
'-x, -z+1/2, y+1/2'
'-z, -y+1/2, x+1/2'
'x, -y+1/2, z+1/2'
'z, -y+1/2, -x+1/2'
'-z, -x+1/2, -y+1/2'
'-y, -z+1/2, -x+1/2'
'y, z+1/2, -x+1/2'
'-z, x+1/2, y+1/2'
'y, -z+1/2, x+1/2'
'z, x+1/2, -y+1/2'
'z, -x+1/2, y+1/2'
'-y, z+1/2, x+1/2'
'-y, -x+1/2, z+1/2'
'y, x+1/2, z+1/2'
'x, -z+1/2, -y+1/2'
'x, z+1/2, y+1/2'
'-z, y+1/2, -x+1/2'
'z, y+1/2, x+1/2'
'-x+1/2, -y, -z+1/2'
'y+1/2, -x, -z+1/2'
'x+1/2, y, -z+1/2'
'-y+1/2, x, -z+1/2'
'-x+1/2, z, -y+1/2'
'-x+1/2, y, z+1/2'
'-x+1/2, -z, y+1/2'
'-z+1/2, -y, x+1/2'
'x+1/2, -y, z+1/2'
'z+1/2, -y, -x+1/2'
'-z+1/2, -x, -y+1/2'
'-y+1/2, -z, -x+1/2'
'y+1/2, z, -x+1/2'
'-z+1/2, x, y+1/2'
'y+1/2, -z, x+1/2'
'z+1/2, x, -y+1/2'
'z+1/2, -x, y+1/2'
'-y+1/2, z, x+1/2'
'-y+1/2, -x, z+1/2'
'y+1/2, x, z+1/2'
'x+1/2, -z, -y+1/2'
'x+1/2, z, y+1/2'
'-z+1/2, y, -x+1/2'
'z+1/2, y, x+1/2'
'-x+1/2, -y+1/2, -z'
'y+1/2, -x+1/2, -z'
'x+1/2, y+1/2, -z'
'-y+1/2, x+1/2, -z'
'-x+1/2, z+1/2, -y'
'-x+1/2, y+1/2, z'
'-x+1/2, -z+1/2, y'
'-z+1/2, -y+1/2, x'
'x+1/2, -y+1/2, z'
'z+1/2, -y+1/2, -x'
'-z+1/2, -x+1/2, -y'
'-y+1/2, -z+1/2, -x'
'y+1/2, z+1/2, -x'
'-z+1/2, x+1/2, y'
'y+1/2, -z+1/2, x'
'z+1/2, x+1/2, -y'
'z+1/2, -x+1/2, y'
'-y+1/2, z+1/2, x'
'-y+1/2, -x+1/2, z'
'y+1/2, x+1/2, z'
'x+1/2, -z+1/2, -y'
'x+1/2, z+1/2, y'
'-z+1/2, y+1/2, -x'
'z+1/2, y+1/2, x'
loop_
_atom_site_label
_atom_site_type_symbol
_atom_site_fract_x
_atom_site_fract_y
_atom_site_fract_z
_atom_site_U_iso_or_equiv
_atom_site_adp_type
_atom_site_occupancy
_atom_site_site_symmetry_order
_atom_site_calc_flag
_atom_site_refinement_flags_posn
_atom_site_refinement_flags_adp
_atom_site_refinement_flags_occupancy
Eu1 Eu 0.39914(2) 0.5000 0.5000 0.0182(3) Uani 1 8 d S T P
O1 O 0.3638(2) 0.4222(2) 0.5000 0.0394(11) Uani 1 2 d S TU P
O2 O 0.4541(2) 0.4541(2) 0.4541(2) 0.0394(11) Uani 1 6 d S TU P
H2 H 0.4363 0.4363 0.4363 0.047 Uiso 1 6 d R U P
C1 C 0.3792(4) 0.3792(4) 0.5000 0.065(4) Uani 1 4 d S TU P
C2 C 0.3401(5) 0.3401(5) 0.5000 0.092(5) Uani 1 4 d DS TU P
C5 C 0.2698(6) 0.2698(6) 0.5000 0.112(6) Uani 1 4 d DS TU P
C4 C 0.2579(6) 0.3171(5) 0.4856(6) 0.083(6) Uani 0.5 1 d D U P
H4A H 0.2256 0.3240 0.4744 0.100 Uiso 0.5 1 d R U P
C3 C 0.2923(5) 0.3539(6) 0.4854(6) 0.079(5) Uani 0.5 1 d D U P
H3A H 0.2841 0.3868 0.4772 0.094 Uiso 0.5 1 d R U P
loop_
_atom_site_aniso_label
_atom_site_aniso_U_11
_atom_site_aniso_U_22
_atom_site_aniso_U_33
_atom_site_aniso_U_23
_atom_site_aniso_U_13
_atom_site_aniso_U_12
Eu1 0.0069(4) 0.0239(4) 0.0239(4) 0.000 0.000 0.000
O1 0.0359(17) 0.0390(18) 0.0434(18) 0.000 0.000 -0.0129(15)
O2 0.0359(17) 0.0390(18) 0.0434(18) 0.000 0.000 -0.0129(15)
C1 0.062(4) 0.062(4) 0.071(5) 0.000 0.000 -0.014(4)
C2 0.089(5) 0.089(5) 0.098(7) 0.000 0.000 -0.008(5)
C5 0.109(6) 0.109(6) 0.118(8) 0.000 0.000 -0.007(5)
C4 0.081(7) 0.078(6) 0.090(7) 0.002(4) -0.003(4) -0.010(4)
C3 0.076(6) 0.078(6) 0.083(7) 0.000(4) -0.005(4) -0.016(4)
loop_
_atom_type_symbol
_atom_type_description
_atom_type_scat_dispersion_real
_atom_type_scat_dispersion_imag
_atom_type_scat_source
C C 0.0181 0.0091 'International Tables Vol C Tables 4.2.6.8 and 6.1.1.4'
H H 0.0000 0.0000 'International Tables Vol C Tables 4.2.6.8 and 6.1.1.4'
O O 0.0492 0.0322 'International Tables Vol C Tables 4.2.6.8 and 6.1.1.4'
Eu Eu -8.9294 11.1857 'International Tables Vol C Tables 4.2.6.8 and 6.1.1.4'
loop_
_geom_angle_atom_site_label_1
_geom_angle_atom_site_label_2
_geom_angle_atom_site_label_3
_geom_angle
_geom_angle_site_symmetry_1
_geom_angle_site_symmetry_3
O2 Eu1 O2 99.6(5) . 98_566
O2 Eu1 O2 65.4(3) . 4_565
O2 Eu1 O2 65.4(3) 98_566 4_565
O2 Eu1 O2 65.4(3) . 99_556
O2 Eu1 O2 65.4(3) 98_566 99_556
O2 Eu1 O2 99.6(5) 4_565 99_556
O2 Eu1 O1 77.0(2) . .
O2 Eu1 O1 139.37(9) 98_566 .
O2 Eu1 O1 139.37(9) 4_565 .
O2 Eu1 O1 77.0(2) 99_556 .
O2 Eu1 O1 77.0(2) . 5_565
O2 Eu1 O1 139.37(9) 98_566 5_565
O2 Eu1 O1 77.0(2) 4_565 5_565
O2 Eu1 O1 139.37(9) 99_556 5_565
O1 Eu1 O1 80.12(11) . 5_565
O2 Eu1 O1 139.37(9) . 7_556
O2 Eu1 O1 77.0(2) 98_566 7_556
O2 Eu1 O1 139.37(9) 4_565 7_556
O2 Eu1 O1 77.0(2) 99_556 7_556
O1 Eu1 O1 80.12(11) . 7_556
O1 Eu1 O1 131.1(3) 5_565 7_556
O2 Eu1 O1 139.37(9) . 6_566
O2 Eu1 O1 77.0(2) 98_566 6_566
O2 Eu1 O1 77.0(2) 4_565 6_566
O2 Eu1 O1 139.37(9) 99_556 6_566
O1 Eu1 O1 131.1(3) . 6_566
O1 Eu1 O1 80.12(11) 5_565 6_566
O1 Eu1 O1 80.12(11) 7_556 6_566
O2 Eu1 Eu1 85.7(2) . 98_566
O2 Eu1 Eu1 85.7(2) 99_556 98_566
O1 Eu1 Eu1 159.47(14) . 98_566
O1 Eu1 Eu1 107.03(10) 5_565 98_566
O1 Eu1 Eu1 107.03(10) 7_556 98_566
O1 Eu1 Eu1 69.47(14) 6_566 98_566
O2 Eu1 Eu1 85.7(2) . 8_556
O2 Eu1 Eu1 85.7(2) 4_565 8_556
O1 Eu1 Eu1 107.03(10) . 8_556
O1 Eu1 Eu1 159.47(14) 5_565 8_556
O1 Eu1 Eu1 69.47(14) 7_556 8_556
O1 Eu1 Eu1 107.03(10) 6_566 8_556
Eu1 Eu1 Eu1 60.0 98_566 8_556
O2 Eu1 Eu1 33.04(9) . 2_655
O2 Eu1 Eu1 85.7(2) 98_566 2_655
O2 Eu1 Eu1 85.7(2) 4_565 2_655
O1 Eu1 Eu1 69.47(14) . 2_655
O1 Eu1 Eu1 107.03(10) 5_565 2_655
O1 Eu1 Eu1 107.03(10) 7_556 2_655
O1 Eu1 Eu1 159.47(14) 6_566 2_655
Eu1 Eu1 Eu1 90.0 98_566 2_655
Eu1 Eu1 Eu1 60.0 8_556 2_655
O2 Eu1 Eu1 85.7(2) 98_566 104_665
O2 Eu1 Eu1 85.7(2) 99_556 104_665
O1 Eu1 Eu1 107.03(10) . 104_665
O1 Eu1 Eu1 69.47(14) 5_565 104_665
O1 Eu1 Eu1 159.47(14) 7_556 104_665
O1 Eu1 Eu1 107.03(10) 6_566 104_665
Eu1 Eu1 Eu1 60.0 98_566 104_665
Eu1 Eu1 Eu1 90.000(1) 8_556 104_665
Eu1 Eu1 Eu1 60.0 2_655 104_665
O2 Eu1 H2 17.8 . .
O2 Eu1 H2 117.4 98_566 .
O2 Eu1 H2 75.8 4_565 .
O2 Eu1 H2 75.8 99_556 .
O1 Eu1 H2 64.1 . .
O1 Eu1 H2 64.1 5_565 .
O1 Eu1 H2 138.8 7_556 .
O1 Eu1 H2 138.8 6_566 .
Eu1 Eu1 H2 101.1 98_566 .
Eu1 Eu1 H2 101.1 8_556 .
C1 O1 Eu1 135.7(8) . .
Eu1 O2 Eu1 113.92(19) . 104_665
Eu1 O2 Eu1 113.92(19) . 2_655
Eu1 O2 Eu1 113.92(19) 104_665 2_655
Eu1 O2 H2 104.5 . .
Eu1 O2 H2 104.5 104_665 .
Eu1 O2 H2 104.5 2_655 .
O1 C1 O1 129.6(15) 19_556 .
O1 C1 C2 115.2(7) 19_556 .
O1 C1 C2 115.2(7) . .
C3 C2 C3 114.2(18) . 116
C3 C2 C3 125(2) . 19_556
C3 C2 C3 125(2) 116 99_556
C3 C2 C3 114.2(18) 19_556 99_556
C3 C2 C1 117.6(10) . .
C3 C2 C1 117.6(10) 116 .
C3 C2 C1 117.6(10) 19_556 .
C3 C2 C1 117.6(10) 99_556 .
C4 C5 C4 121(2) . 19_556
C4 C5 C4 111(2) 19_556 99_556
C4 C5 C4 111(2) . 116
C4 C5 C4 121(2) 99_556 116
C4 C5 C5 119.5(11) . 169_556
C4 C5 C5 119.5(11) 19_556 169_556
C4 C5 C5 119.5(11) 99_556 169_556
C4 C5 C5 119.5(11) 116 169_556
C4 C4 C3 90.2(10) 99_556 .
C4 C4 C5 73.5(7) 99_556 .
C3 C4 C5 121.4(17) . .
C4 C4 C3 60.1(8) 99_556 99_556
C5 C4 C3 108.0(15) . 99_556
C4 C4 H4A 108.7 99_556 .
C3 C4 H4A 119.0 . .
C5 C4 H4A 119.5 . .
C3 C4 H4A 125.6 99_556 .
C3 C3 C4 89.8(10) 99_556 .
C3 C3 C2 73.6(7) 99_556 .
C4 C3 C2 115.7(16) . .
C3 C3 C4 60.0(8) 99_556 99_556
C2 C3 C4 103.6(14) . 99_556
C3 C3 H3A 103.6 99_556 .
C4 C3 H3A 121.9 . .
C2 C3 H3A 122.3 . .
C4 C3 H3A 125.1 99_556 .
loop_
_geom_bond_atom_site_label_1
_geom_bond_atom_site_label_2
_geom_bond_distance
_geom_bond_site_symmetry_2
Eu1 O2 2.343(3) .
Eu1 O1 2.353(5) .
Eu1 Eu1 3.9291(9) 2_655
O1 C1 1.259(9) .
O2 H2 0.8493 .
C1 O1 1.259(9) 19_556
C1 C2 1.52(3) .
C2 C3 1.429(14) .
C2 C3 1.429(14) 116
C2 C3 1.429(14) 19_556
C2 C3 1.429(14) 99_556
C5 C4 1.400(14) .
C5 C4 1.400(14) 19_556
C5 C4 1.400(14) 99_556
C5 C4 1.400(14) 116
C5 C5 1.54(4) 169_556
C4 C4 0.80(3) 99_556
C4 C3 1.390(15) .
C4 C3 1.604(18) 99_556
C4 H4A 0.9600 .
C3 C3 0.81(3) 99_556
C3 C4 1.604(18) 99_556
C3 H3A 0.9602 .
loop_
_platon_squeeze_void_nr
_platon_squeeze_void_average_x
_platon_squeeze_void_average_y
_platon_squeeze_void_average_z
_platon_squeeze_void_volume
_platon_squeeze_void_count_electrons
_platon_squeeze_void_content
1 -0.003 -0.006 -0.003 14513 3157 ' '
