#------------------------------------------------------------------------------
#$Date: 2019-11-25 02:38:54 +0200 (Mon, 25 Nov 2019) $
#$Revision: 239977 $
#$URL: file:///home/coder/svn-repositories/cod/cif/4/35/06/4350645.cif $
#------------------------------------------------------------------------------
#
# This file is available in the Crystallography Open Database (COD),
# http://www.crystallography.net/
#
# All data on this site have been placed in the public domain by the
# contributors.
#
data_4350645
loop_
_publ_author_name
'Huang, Xiao-feng'
'Ma, Jing-xin'
'Liu, Wei-sheng'
_publ_section_title
;
 Lanthanide metalloligand strategy toward d-f heterometallic metal-organic
 frameworks: magnetism and symmetric-dependent luminescent properties.
;
_journal_issue                   12
_journal_name_full               'Inorganic chemistry'
_journal_page_first              5922
_journal_page_last               5930
_journal_paper_doi               10.1021/ic403080n
_journal_volume                  53
_journal_year                    2014
_chemical_formula_sum            'C24 H30 Co3 Dy2 O42'
_chemical_formula_weight         1492.27
_space_group_crystal_system      cubic
_space_group_IT_number           228
_space_group_name_Hall           '-F 4ud 2vw 3'
_space_group_name_H-M_alt        'F d -3 c :2'
_atom_sites_solution_hydrogens   geom
_audit_creation_method           SHELXL-2013
_cell_angle_alpha                90
_cell_angle_beta                 90
_cell_angle_gamma                90
_cell_formula_units_Z            16
_cell_length_a                   25.6617(5)
_cell_length_b                   25.6617(5)
_cell_length_c                   25.6617(5)
_cell_measurement_temperature    296(2)
_cell_volume                     16898.8(6)
_computing_structure_refinement  'SHELXL-2013 (Sheldrick, 2013)'
_diffrn_ambient_temperature      296(2)
_diffrn_measured_fraction_theta_full 0.995
_diffrn_measured_fraction_theta_max 0.996
_diffrn_radiation_type           MoK\a
_diffrn_radiation_wavelength     0.71073
_diffrn_reflns_av_R_equivalents  0.0396
_diffrn_reflns_av_unetI/netI     0.0102
_diffrn_reflns_Laue_measured_fraction_full 0.995
_diffrn_reflns_Laue_measured_fraction_max 0.996
_diffrn_reflns_limit_h_max       28
_diffrn_reflns_limit_h_min       -31
_diffrn_reflns_limit_k_max       31
_diffrn_reflns_limit_k_min       -29
_diffrn_reflns_limit_l_max       31
_diffrn_reflns_limit_l_min       -31
_diffrn_reflns_number            20654
_diffrn_reflns_point_group_measured_fraction_full 0.995
_diffrn_reflns_point_group_measured_fraction_max 0.996
_diffrn_reflns_theta_full        25.242
_diffrn_reflns_theta_max         25.971
_diffrn_reflns_theta_min         2.245
_exptl_absorpt_coefficient_mu    4.780
_exptl_absorpt_correction_T_max  0.427
_exptl_absorpt_correction_T_min  0.351
_exptl_absorpt_correction_type   multi-scan
_exptl_absorpt_process_details   SADABS
_exptl_crystal_colour            red
_exptl_crystal_density_diffrn    2.346
_exptl_crystal_description       block
_exptl_crystal_F_000             11568
_exptl_crystal_size_max          0.230
_exptl_crystal_size_mid          0.200
_exptl_crystal_size_min          0.180
_refine_diff_density_max         1.745
_refine_diff_density_min         -1.025
_refine_diff_density_rms         0.145
_refine_ls_extinction_method     none
_refine_ls_goodness_of_fit_ref   1.003
_refine_ls_hydrogen_treatment    constr
_refine_ls_matrix_type           full
_refine_ls_number_parameters     58
_refine_ls_number_reflns         701
_refine_ls_number_restraints     0
_refine_ls_restrained_S_all      1.003
_refine_ls_R_factor_all          0.0524
_refine_ls_R_factor_gt           0.0398
_refine_ls_shift/su_max          0.000
_refine_ls_shift/su_mean         0.000
_refine_ls_structure_factor_coef Fsqd
_refine_ls_weighting_details
'w=1/[\s^2^(Fo^2^)+(0.0693P)^2^+435.3207P] where P=(Fo^2^+2Fc^2^)/3'
_refine_ls_weighting_scheme      calc
_refine_ls_wR_factor_gt          0.1175
_refine_ls_wR_factor_ref         0.1368
_reflns_Friedel_coverage         0.000
_reflns_number_gt                504
_reflns_number_total             701
_reflns_threshold_expression     'I > 2\s(I)'
_cod_data_source_file            ic403080n_si_002.cif
_cod_data_source_block           1b
_cod_original_cell_volume        16898.8(10)
_cod_original_sg_symbol_Hall     '-F 4cvw 2vw 3'
_cod_original_sg_symbol_H-M      'F d -3 c'
_cod_database_code               4350645
_shelx_space_group_comment
;
The symmetry employed for this shelxl refinement is uniquely defined
by the following loop, which should always be used as a source of
symmetry information in preference to the above space-group names.
They are only intended as comments.
;
_shelx_estimated_absorpt_t_min   0.406
_shelx_estimated_absorpt_t_max   0.480
_shelxl_version_number           2013-4
_shelx_res_file
;
TITL Fd-3c in Fd-3c
CELL 0.71073  25.6617  25.6617  25.6617  90.000  90.000  90.000
ZERR  32.00   0.0005   0.0005   0.0005   0.000   0.000   0.000
LATT 4
SYMM 0.25-X, 0.75-Y, 0.5+Z
SYMM 0.75-X, 0.5+Y, 0.25-Z
SYMM 0.5+X, 0.25-Y, 0.75-Z
SYMM Z, X, Y
SYMM 0.5+Z, 0.25-X, 0.75-Y
SYMM 0.25-Z, 0.75-X, 0.5+Y
SYMM 0.75-Z, 0.5+X, 0.25-Y
SYMM Y, Z, X
SYMM 0.75-Y, 0.5+Z, 0.25-X
SYMM 0.5+Y, 0.25-Z, 0.75-X
SYMM 0.25-Y, 0.75-Z, 0.5+X
SYMM 0.75+Y, 0.25+X, -Z
SYMM 0.5-Y, 0.5-X, 0.5-Z
SYMM 0.25+Y, -X, 0.75+Z
SYMM -Y, 0.75+X, 0.25+Z
SYMM 0.75+X, 0.25+Z, -Y
SYMM -X, 0.75+Z, 0.25+Y
SYMM 0.5-X, 0.5-Z, 0.5-Y
SYMM 0.25+X, -Z, 0.75+Y
SYMM 0.75+Z, 0.25+Y, -X
SYMM 0.25+Z, -Y, 0.75+X
SYMM -Z, 0.75+Y, 0.25+X
SYMM 0.5-Z, 0.5-Y, 0.5-X
SFAC C  H  O  Co Dy
UNIT 384  480  672  48  32
OMIT 2 2 8
OMIT 0 6 6
OMIT 2 6 8
OMIT -3 52
L.S. 10
BOND $H
ACTA
FMAP 2
PLAN 20
SIZE 0.20 0.23 0.18
HTAb
CONF
TEMP 23.000
WGHT    0.069300  435.320740
FVAR       0.00718
MOLE 1
DY1   5    0.500000    0.250000    0.500000    10.16667    0.02730    0.02730 =
         0.02730   -0.00914    0.00914   -0.00914
CO1   4    0.500000    0.250000    0.250000    10.16667    0.02405    0.02405 =
         0.02405    0.00293   -0.00293   -0.00293
MOLE 2
CO2   4    0.625000    0.125000    0.125000    10.08333    0.05052    0.05052 =
         0.05052    0.00000    0.00000    0.00000
MOLE 1
C3    1    0.497439    0.241536    0.372292    11.00000    0.04521    0.02697 =
         0.03943   -0.00976    0.00616   -0.00434
O3    3    0.478499    0.236806    0.327886    11.00000    0.04427    0.04255 =
         0.03639   -0.00558    0.00266   -0.00147
O2    3    0.469723    0.241526    0.413131    11.00000    0.03931    0.05833 =
         0.03559   -0.01175    0.00869   -0.01088
C4    1    0.555559    0.247413    0.379315    11.00000    0.03819    0.06517 =
         0.03656   -0.00934    0.01123   -0.01135
AFIX  23
H4A   2    0.573409    0.217944    0.363766    11.00000   -1.20000
H4B   2    0.567446    0.278898    0.362105    11.00000   -1.20000
AFIX   0
O4    3    0.625000    0.206295    0.125000    10.50000    0.05009    0.05498 =
         0.08800    0.00000   -0.00017    0.00000
AFIX 147
H4    2    0.602242    0.216946    0.144741    10.50000   -1.50000
AFIX   0
O1    3    0.567067    0.250000    0.432933    10.50000    0.03144    0.05310 =
         0.03144   -0.01062    0.00621   -0.01062
O1W   3    0.625000    0.327742    0.125000    10.50000    0.15426    0.30843 =
         0.21626    0.00000    0.02733    0.00000
HKLF 4

REM  Fd-3c in Fd-3c
REM R1 =  0.0398 for     504 Fo > 4sig(Fo)  and  0.0524 for all     701 data
REM     58 parameters refined using      0 restraints

END

WGHT      0.0759    184.0665

REM Instructions for potential hydrogen bonds
EQIV $1 z+1/4, x-1/4, -y+1/2
HTAB C4 O3_$1
EQIV $2 y+1/4, -z+1/2, x-1/4
HTAB C4 O1W_$2
EQIV $3 -x+1, -y+1/2, -z+1/2
HTAB O4 O3_$3

REM Highest difference peak  1.745,  deepest hole -1.025,  1-sigma level  0.145
Q1    1   0.5229  0.2271  0.5229  10.33333  0.05    1.00
Q2    1   0.5021  0.2496  0.3750  11.00000  0.05    0.41
Q3    1   0.5639  0.1861  0.1861  10.33333  0.05    0.35
Q4    1   0.4918  0.2361  0.3205  11.00000  0.05    0.32
Q5    1   0.5394  0.2300  0.3782  11.00000  0.05    0.28
Q6    1   0.5871  0.2255  0.1114  11.00000  0.05    0.27
Q7    1   0.4867  0.2286  0.3980  11.00000  0.05    0.26
Q8    1   0.4882  0.2232  0.4096  11.00000  0.05    0.26
Q9    1   0.5015  0.2194  0.3415  11.00000  0.05    0.25
Q10   1   0.5790  0.1824  0.1253  11.00000  0.05    0.24
Q11   1   0.4951  0.2489  0.4408  11.00000  0.05    0.24
Q12   1   0.4352  0.3148  0.4352  10.33333  0.05    0.23
Q13   1   0.4976  0.2659  0.3233  11.00000  0.05    0.23
Q14   1   0.5636  0.1871  0.1218  11.00000  0.05    0.23
Q15   1   0.4629  0.2759  0.4417  11.00000  0.05    0.23
Q16   1   0.5000  0.1837  0.4337  10.50000  0.05    0.22
Q17   1   0.5936  0.0936  0.0936  10.33333  0.05    0.22
Q18   1   0.4807  0.2421  0.4225  11.00000  0.05    0.22
Q19   1   0.5905  0.2738  0.1613  11.00000  0.05    0.21
Q20   1   0.4510  0.2588  0.4411  11.00000  0.05    0.21
;
_shelx_res_checksum              71616
_shelx_hkl_file
;
  -2   0   0    0.97    0.05
  -4   0   0  612.10    7.75
  -6   0   0    0.43    0.07
  -6   0   0    0.29    0.08
  -8   0   0  975.01   12.88
  -8   0   0  948.11   12.07
 -10   0   0    0.03    0.08
 -10   0   0    0.06    0.06
 -12   0   0  285.00    3.95
 -12   0   0  286.11    4.30
 -14   0   0    0.05    0.11
 -14   0   0    0.01    0.07
 -16   0   0  363.40    5.02
 -16   0   0  358.69    5.49
 -18   0   0    0.17    0.11
 -18   0   0    0.03    0.13
 -20   0   0   37.09    1.18
 -20   0   0   37.27    0.99
 -22   0   0    0.01    0.20
 -22   0   0   -0.02    0.15
 -24   0   0  100.31    2.36
 -26   0   0    0.01    0.23
 -28   0   0   24.16    1.15
 -30   0   0    0.39    0.30
 -32   0   0   29.18    1.36
 -34   0   0   -0.09    0.36
 -34   2   0    0.01    0.35
 -32   2   0    0.17    0.32
 -30   2   0    0.53    0.34
 -28   2   0    0.06    0.24
 -26   2   0    0.28    0.26
 -24   2   0    0.16    0.24
 -22   2   0    5.45    0.51
 -20   2   0   -0.15    0.15
 -20   2   0    0.14    0.12
 -18   2   0    0.28    0.13
 -18   2   0   -0.04    0.14
 -16   2   0    0.09    0.09
 -16   2   0    0.08    0.14
 -14   2   0    5.67    0.38
 -14   2   0    5.78    0.28
 -12   2   0    0.00    0.07
 -12   2   0    0.06    0.10
 -10   2   0   23.23    0.68
 -10   2   0   22.69    0.52
  -8   2   0    0.04    0.04
  -8   2   0    0.21    0.09
  -6   2   0   15.59    0.33
  -6   2   0   16.86    0.45
  -2  -2   0   14.64    0.30
  -4  -2   0    0.21    0.05
  -6  -2   0   16.11    0.41
  -6  -2   0   15.97    0.42
  -8  -2   0   -0.06    0.06
  -8  -2   0    0.02    0.05
 -10  -2   0   21.61    0.58
 -10  -2   0   21.86    0.63
 -12  -2   0    0.09    0.10
 -12  -2   0    0.05    0.10
 -14  -2   0    5.88    0.33
 -14  -2   0    5.28    0.36
 -16  -2   0    0.07    0.10
 -16  -2   0    0.12    0.16
 -18  -2   0    0.29    0.15
 -18  -2   0    0.07    0.15
 -20  -2   0   -0.07    0.13
 -20  -2   0    0.04    0.16
 -22  -2   0    3.83    0.36
 -22  -2   0    4.88    0.46
 -24  -2   0    0.04    0.17
 -24  -2   0    0.01    0.24
 -26  -2   0    0.11    0.23
 -28  -2   0    0.18    0.26
 -30  -2   0    0.71    0.34
 -32  -2   0    0.00    0.30
 -34  -2   0    0.19    0.39
 -32   4   0   17.83    1.11
 -30   4   0    0.04    0.28
 -28   4   0   29.16    1.29
 -26   4   0   -0.06    0.23
 -24   4   0   52.78    1.63
 -22   4   0    0.11    0.19
 -20   4   0   62.19    1.64
 -18   4   0   -0.01    0.14
 -18   4   0    0.10    0.10
 -16   4   0  115.93    1.84
 -16   4   0  115.82    2.28
 -14   4   0    0.05    0.07
 -14   4   0    0.00    0.12
 -12   4   0  359.98    5.39
 -12   4   0  367.80    4.76
 -10   4   0    0.10    0.05
 -10   4   0    0.12    0.09
  -8   4   0  209.89    2.74
  -8   4   0  205.59    3.15
  -6   4   0    0.15    0.07
  -6   4   0    0.19    0.03
  -4   4   0  330.77    4.57
   2  -4   0    0.21    0.03
   0  -4   0  636.95    8.07
  -2  -4   0    0.24    0.05
  -4  -4   0  322.08    4.25
  -6  -4   0    0.16    0.07
  -6  -4   0    0.19    0.07
  -8  -4   0  205.22    2.97
  -8  -4   0  207.40    3.05
 -10  -4   0   -0.01    0.06
 -10  -4   0    0.06    0.07
 -12  -4   0  355.31    4.92
 -12  -4   0  350.39    5.14
 -14  -4   0    0.05    0.12
 -14  -4   0   -0.03    0.09
 -16  -4   0  112.37    2.04
 -16  -4   0  112.22    2.15
 -18  -4   0   -0.02    0.12
 -18  -4   0    0.02    0.12
 -20  -4   0   63.34    1.58
 -20  -4   0   59.08    1.43
 -22  -4   0   -0.05    0.17
 -22  -4   0    0.05    0.15
 -24  -4   0   52.06    1.55
 -24  -4   0   50.28    1.39
 -26  -4   0    0.03    0.21
 -26  -4   0    0.09    0.17
 -28  -4   0   30.40    1.27
 -30  -4   0   -0.29    0.27
 -32  -4   0   15.93    1.01
 -32   6   0    0.10    0.35
 -30   6   0    0.21    0.33
 -28   6   0    0.05    0.26
 -26   6   0    0.08    0.23
 -24   6   0   -0.15    0.22
 -22   6   0    2.06    0.36
 -20   6   0   -0.08    0.19
 -18   6   0    2.67    0.35
 -16   6   0   -0.07    0.14
 -14   6   0    6.51    0.43
 -14   6   0    6.66    0.25
 -12   6   0    0.07    0.06
 -12   6   0   -0.07    0.09
 -10   6   0   30.93    0.51
 -10   6   0   30.18    0.83
  -8   6   0    0.07    0.02
  -8   6   0    0.06    0.08
  -6   6   0    5.74    0.28
  -4   6   0    0.00    0.05
   2  -6   0   16.61    0.32
  -2   6   0   16.23    0.41
   0  -6   0    0.30    0.06
  -2  -6   0   16.70    0.42
   2   6   0   16.88    0.41
  -4  -6   0    0.02    0.05
  -6  -6   0    4.94    0.22
  -6  -6   0    5.22    0.27
  -8  -6   0    0.02    0.06
  -8  -6   0    0.01    0.07
 -10  -6   0   29.74    0.75
 -10  -6   0   30.57    0.79
 -12  -6   0    0.09    0.10
 -12  -6   0    0.06    0.10
 -14  -6   0    7.04    0.40
 -14  -6   0    6.32    0.39
 -16  -6   0    0.02    0.13
 -16  -6   0   -0.02    0.12
 -18  -6   0    1.93    0.28
 -18  -6   0    1.49    0.25
 -20  -6   0    0.02    0.16
 -20  -6   0   -0.10    0.11
 -22  -6   0    2.31    0.36
 -22  -6   0    2.02    0.32
 -24  -6   0    0.04    0.21
 -24  -6   0   -0.03    0.16
 -26  -6   0    0.23    0.20
 -26  -6   0    0.16    0.24
 -28  -6   0    0.24    0.23
 -28  -6   0   -0.37    0.24
 -30  -6   0    0.09    0.29
 -32  -6   0   -0.14    0.33
 -32   8   0   20.16    1.21
 -30   8   0   -0.24    0.29
 -28   8   0   19.13    1.07
 -26   8   0   -0.03    0.21
 -24   8   0   77.34    2.09
 -22   8   0    0.14    0.23
 -20   8   0   59.36    1.66
 -18   8   0   -0.22    0.15
 -16   8   0  173.15    3.16
 -14   8   0    0.19    0.14
 -12   8   0  144.75    2.57
 -12   8   0  142.26    1.91
 -10   8   0   -0.02    0.08
  -8   8   0  275.03    4.11
  -6   8   0    0.10    0.07
   4  -8   0  207.28    2.70
  -4   8   0  204.10    3.06
   2  -8   0    0.06    0.04
  -2   8   0    0.08    0.06
   0  -8   0 1000.00   12.46
   0   8   0  986.13   13.19
  -2  -8   0    0.13    0.07
   2   8   0    0.23    0.08
  -4  -8   0  205.92    2.96
   4   8   0  208.05    2.97
  -6  -8   0    0.04    0.07
   6   8   0    0.02    0.06
  -8  -8   0  272.88    3.94
  -8  -8   0  267.27    3.91
   8   8   0  278.25    3.80
 -10  -8   0    0.01    0.08
 -10  -8   0    0.02    0.09
  10   8   0    0.09    0.07
 -12  -8   0  139.24    2.37
 -12  -8   0  136.64    2.33
 -14  -8   0   -0.02    0.11
 -14  -8   0    0.07    0.11
 -16  -8   0  170.47    2.92
 -16  -8   0  169.71    2.93
 -18  -8   0   -0.03    0.13
 -18  -8   0    0.05    0.12
 -20  -8   0   57.14    1.49
 -20  -8   0   58.80    1.51
 -22  -8   0   -0.08    0.15
 -22  -8   0   -0.03    0.17
 -24  -8   0   81.45    2.01
 -24  -8   0   75.85    1.90
 -26  -8   0    0.28    0.19
 -26  -8   0   -0.18    0.21
 -28  -8   0   20.29    0.96
 -28  -8   0   22.02    1.06
 -30  -8   0    0.36    0.25
 -32  10   0    0.30    0.35
 -30  10   0    0.35    0.31
 -28  10   0   -0.12    0.26
 -26  10   0    2.07    0.44
 -24  10   0   -0.04    0.24
 -22  10   0    0.60    0.27
 -20  10   0   -0.06    0.16
 -18  10   0    2.51    0.36
 -16  10   0   -0.09    0.14
 -14  10   0    9.27    0.55
 -12  10   0   -0.03    0.11
 -10  10   0    0.53    0.16
  -8  10   0   -0.03    0.08
  -6  10   0   31.69    0.50
  -6  10   0   32.91    0.83
   4 -10   0    0.05    0.04
  -4  10   0   -0.06    0.06
   2 -10   0   23.12    0.50
  -2  10   0   22.13    0.59
   0 -10   0   -0.01    0.05
   0  10   0    0.00    0.06
  -2 -10   0   21.70    0.57
   2  10   0   21.99    0.60
  -4 -10   0    0.08    0.08
   4  10   0    0.14    0.08
  -6 -10   0   29.65    0.78
   6  10   0   30.19    0.68
  -8 -10   0    0.03    0.09
   8  10   0    0.13    0.08
 -10 -10   0    0.19    0.12
 -10 -10   0    0.16    0.09
  10  10   0    0.30    0.10
 -12 -10   0    0.06    0.10
 -12 -10   0   -0.07    0.09
  12  10   0   -0.05    0.08
 -14 -10   0    8.17    0.44
 -14 -10   0    9.31    0.50
 -16 -10   0   -0.04    0.12
 -16 -10   0    0.13    0.15
 -18 -10   0    2.00    0.30
 -18 -10   0    1.78    0.28
 -20 -10   0    0.06    0.15
 -20 -10   0   -0.12    0.15
 -22 -10   0    0.66    0.25
 -22 -10   0    0.11    0.20
 -24 -10   0   -0.02    0.21
 -24 -10   0    0.19    0.19
 -26 -10   0    1.57    0.36
 -28 -10   0   -0.08    0.22
 -30 -10   0    0.13    0.24
 -30  12   0   -0.06    0.34
 -28  12   0   28.61    1.34
 -26  12   0    0.18    0.25
 -24  12   0   26.49    1.19
 -22  12   0   -0.06    0.17
 -20  12   0   48.26    1.53
 -18  12   0   -0.01    0.14
 -16  12   0   67.35    1.70
 -14  12   0   -0.02    0.14
 -12  12   0  173.74    3.06
 -10  12   0    0.06    0.11
  -8  12   0  138.40    2.42
  -6  12   0   -0.04    0.08
  -6  12   0    0.04    0.05
   4 -12   0  366.91    4.76
  -4  12   0  367.53    5.30
   2 -12   0    0.08    0.07
  -2  12   0    0.14    0.09
   0 -12   0  310.01    4.16
   0  12   0  298.46    4.39
  -2 -12   0   -0.10    0.07
   2  12   0    0.04    0.10
  -4 -12   0  375.90    5.14
   4  12   0  368.67    5.28
  -6 -12   0    0.09    0.10
   6  12   0    0.03    0.08
  -8 -12   0  139.58    2.40
   8  12   0  143.60    2.26
 -10 -12   0    0.07    0.12
  10  12   0   -0.04    0.08
 -12 -12   0  165.21    2.88
 -12 -12   0  172.88    2.80
  12  12   0  168.00    2.58
 -14 -12   0    0.11    0.13
 -14 -12   0   -0.09    0.11
 -16 -12   0   66.18    1.50
 -16 -12   0   65.69    1.60
 -18 -12   0   -0.04    0.12
 -18 -12   0    0.01    0.12
 -20 -12   0   48.57    1.43
 -20 -12   0   48.77    1.35
 -22 -12   0   -0.10    0.14
 -24 -12   0   24.92    1.06
 -26 -12   0   -0.10    0.20
 -28 -12   0   28.56    1.22
 -30 -12   0    0.43    0.29
 -30  14   0    0.46    0.34
 -28  14   0   -0.08    0.24
 -26  14   0    0.09    0.24
 -24  14   0    0.69    0.30
 -22  14   0    2.07    0.40
 -20  14   0    0.09    0.18
 -18  14   0    0.65    0.24
 -16  14   0   -0.10    0.15
 -14  14   0    2.18    0.32
 -12  14   0   -0.08    0.14
 -10  14   0    8.85    0.51
  -8  14   0    0.02    0.10
  -6  14   0    6.76    0.23
  -6  14   0    6.56    0.39
   4 -14   0   -0.06    0.05
  -4  14   0   -0.13    0.08
   2 -14   0    6.08    0.29
  -2  14   0    6.48    0.35
   0 -14   0    0.14    0.07
   0  14   0    0.16    0.11
   0  14   0    0.04    0.09
  -2 -14   0    6.05    0.33
   2  14   0    6.41    0.34
   2  14   0    4.84    0.33
  -4 -14   0    0.00    0.08
   4  14   0    0.04    0.10
  -6 -14   0    6.51    0.38
   6  14   0    6.09    0.35
  -8 -14   0    0.05    0.10
   8  14   0    0.13    0.10
 -10 -14   0    8.25    0.48
  10  14   0    8.78    0.40
 -12 -14   0   -0.11    0.12
 -14 -14   0    2.48    0.32
 -16 -14   0    0.01    0.14
 -16 -14   0    0.05    0.14
 -18 -14   0    0.22    0.18
 -20 -14   0   -0.08    0.15
 -22 -14   0    1.03    0.29
 -24 -14   0   -0.16    0.18
 -26 -14   0   -0.21    0.21
 -28 -14   0    0.39    0.29
 -30  16   0   -0.08    0.29
 -28  16   0   19.88    1.16
 -26  16   0   -0.24    0.25
 -24  16   0   44.43    1.64
 -22  16   0   -0.17    0.22
 -20  16   0   43.44    1.51
 -18  16   0    0.43    0.24
 -16  16   0  132.82    2.78
 -14  16   0    0.20    0.19
 -12  16   0   65.67    1.63
 -10  16   0   -0.05    0.14
  -8  16   0  171.06    2.99
  -6  16   0    0.19    0.13
   4 -16   0  116.34    1.78
  -4  16   0  112.93    2.11
   2 -16   0    0.02    0.09
  -2  16   0   -0.10    0.12
   0 -16   0  380.99    5.17
   0  16   0  374.92    5.48
   0  16   0  371.01    5.57
  -2 -16   0    0.05    0.10
   2  16   0   -0.05    0.10
   2  16   0    0.14    0.12
  -4 -16   0  113.73    2.06
   4  16   0  115.11    2.11
  -6 -16   0    0.34    0.15
   6  16   0    0.16    0.13
  -8 -16   0  169.05    2.90
   8  16   0  171.90    2.81
 -10 -16   0   -0.02    0.14
  10  16   0    0.02    0.14
 -12 -16   0   70.30    1.68
 -14 -16   0    0.10    0.15
 -16 -16   0  146.88    2.88
 -18 -16   0    0.11    0.15
 -20 -16   0   45.01    1.47
 -22 -16   0    0.22    0.20
 -24 -16   0   48.21    1.62
 -26 -16   0   -0.11    0.24
 -28 -16   0   17.67    1.03
 -28  18   0    0.76    0.37
 -26  18   0    1.16    0.39
 -24  18   0    0.22    0.27
 -22  18   0    0.21    0.26
 -20  18   0   -0.04    0.20
 -18  18   0    0.44    0.24
 -16  18   0   -0.06    0.21
 -14  18   0    0.30    0.20
 -12  18   0   -0.22    0.16
 -10  18   0    2.51    0.32
  -8  18   0   -0.05    0.13
  -6  18   0    1.85    0.27
  -4  18   0   -0.05    0.13
   2 -18   0    0.25    0.12
  -2  18   0    0.21    0.13
  -2  18   0    0.64    0.19
   0 -18   0    0.08    0.11
   0  18   0    0.05    0.12
   0  18   0   -0.01    0.13
  -2 -18   0    0.35    0.15
   2  18   0    0.14    0.15
   2  18   0    0.38    0.15
  -4 -18   0    0.03    0.10
   4  18   0   -0.03    0.11
   4  18   0   -0.04    0.13
  -6 -18   0    2.21    0.28
   6  18   0    1.95    0.27
  -8 -18   0   -0.03    0.13
   8  18   0   -0.01    0.13
 -10 -18   0    2.23    0.32
  10  18   0    2.17    0.28
 -12 -18   0   -0.10    0.12
 -14 -18   0    0.38    0.22
 -16 -18   0    0.04    0.18
 -18 -18   0    0.63    0.27
 -20 -18   0    0.30    0.19
 -22 -18   0    0.43    0.24
 -24 -18   0   -0.09    0.17
 -26 -18   0    0.73    0.32
 -26  20   0    0.12    0.33
 -24  20   0   25.02    1.28
 -22  20   0   -0.20    0.23
 -20  20   0   36.29    1.42
 -18  20   0    0.17    0.23
 -16  20   0   41.95    1.43
 -14  20   0    0.05    0.20
 -12  20   0   47.36    1.42
 -10  20   0    0.01    0.15
  -8  20   0   56.79    1.48
  -6  20   0    0.05    0.15
  -4  20   0   63.74    1.62
  -4  20   0   62.37    1.49
  -2  20   0    0.15    0.17
  -2  20   0    0.18    0.14
   0 -20   0   38.73    0.99
   0  20   0   38.47    1.04
   0  20   0   39.16    1.18
  -2 -20   0    0.21    0.15
   2  20   0   -0.18    0.12
   2  20   0    0.23    0.17
  -4 -20   0   63.08    1.47
   4  20   0   65.43    1.56
  -6 -20   0   -0.12    0.12
   6  20   0   -0.07    0.13
  -8 -20   0   58.55    1.48
   8  20   0   56.29    1.39
 -10 -20   0   -0.20    0.13
 -12 -20   0   46.54    1.39
 -14 -20   0    0.21    0.19
 -16 -20   0   41.36    1.39
 -18 -20   0   -0.05    0.20
 -20 -20   0   33.30    1.32
 -22 -20   0   -0.24    0.17
 -24 -20   0   21.44    1.12
 -26  22   0   -0.01    0.31
 -24  22   0   -0.09    0.28
 -22  22   0    5.92    0.68
 -20  22   0    0.34    0.27
 -18  22   0    0.43    0.27
 -16  22   0    0.05    0.23
 -14  22   0    1.51    0.35
 -12  22   0    0.07    0.21
 -10  22   0    0.54    0.23
  -8  22   0    0.06    0.19
  -6  22   0    2.45    0.34
  -6  22   0    2.30    0.36
  -4  22   0   -0.09    0.17
  -4  22   0   -0.01    0.16
  -2  22   0    4.82    0.45
  -2  22   0    5.72    0.43
   0  22   0    0.23    0.19
  -2 -22   0    4.27    0.38
   2  22   0    5.60    0.47
  -4 -22   0    0.11    0.15
   4  22   0    0.02    0.16
  -6 -22   0    1.79    0.30
   6  22   0    1.90    0.31
  -8 -22   0   -0.02    0.15
   8  22   0   -0.03    0.18
 -10 -22   0    0.32    0.20
 -12 -22   0    0.09    0.17
 -14 -22   0    1.23    0.32
 -16 -22   0   -0.23    0.20
 -18 -22   0    0.17    0.25
 -20 -22   0   -0.01    0.22
 -22 -22   0    5.40    0.63
 -24  24   0   21.08    1.24
 -22  24   0    0.40    0.33
 -20  24   0   22.48    1.16
 -18  24   0   -0.16    0.24
 -16  24   0   47.38    1.62
 -14  24   0    0.09    0.21
 -12  24   0   26.72    1.11
 -10  24   0    0.12    0.20
 -10  24   0    0.07    0.21
  -8  24   0   75.87    1.87
  -8  24   0   74.69    1.99
  -6  24   0   -0.16    0.17
  -6  24   0    0.15    0.22
  -4  24   0   51.62    1.55
  -2  24   0    0.12    0.21
   0  24   0  103.23    2.31
   2  24   0    0.19    0.20
  -4 -24   0   54.91    1.44
   4  24   0   55.85    1.54
  -6 -24   0    0.24    0.21
   6  24   0   -0.19    0.19
  -8 -24   0   78.57    1.91
 -10 -24   0   -0.15    0.19
 -12 -24   0   24.62    1.06
 -14 -24   0    0.23    0.21
 -16 -24   0   46.25    1.59
 -18 -24   0   -0.01    0.25
 -20 -24   0   24.64    1.24
 -22  26   0    0.45    0.36
 -22  26   0    0.64    0.40
 -20  26   0    0.29    0.35
 -20  26   0   -0.11    0.29
 -18  26   0    1.63    0.41
 -18  26   0    0.68    0.36
 -16  26   0   -0.09    0.25
 -16  26   0   -0.36    0.23
 -14  26   0    0.22    0.30
 -14  26   0    0.50    0.29
 -12  26   0    0.07    0.24
 -12  26   0    0.01    0.22
 -10  26   0    1.77    0.39
 -10  26   0    1.71    0.35
  -8  26   0   -0.03    0.19
  -6  26   0    0.28    0.21
  -4  26   0   -0.07    0.20
  -2  26   0    0.14    0.21
   0  26   0   -0.33    0.17
   2  26   0    0.03    0.20
   4  26   0    0.24    0.22
  -6 -26   0   -0.08    0.16
   6  26   0   -0.08    0.19
  -8 -26   0   -0.18    0.17
 -10 -26   0    1.35    0.34
 -12 -26   0   -0.10    0.23
 -14 -26   0   -0.03    0.25
 -16 -26   0    0.00    0.24
 -18 -26   0    0.42    0.33
 -18  28   0    0.44    0.37
 -18  28   0    0.16    0.32
 -16  28   0   17.25    1.07
 -16  28   0   19.33    1.08
 -14  28   0   -0.12    0.26
 -12  28   0   24.75    1.19
 -10  28   0    0.02    0.25
  -8  28   0   21.66    1.07
  -6  28   0   -0.11    0.21
  -4  28   0   29.82    1.23
  -2  28   0   -0.20    0.19
   0  28   0   20.93    1.01
   2  28   0   -0.15    0.16
   4  28   0   29.14    1.16
  -8 -28   0   19.94    0.95
 -10 -28   0    0.34    0.27
 -12 -28   0   25.90    1.16
 -14 -28   0    0.35    0.29
 -16 -28   0   20.01    1.11
 -16  30   0    0.24    0.34
 -14  30   0    0.46    0.36
 -12  30   0   -0.11    0.24
 -10  30   0   -0.29    0.19
  -8  30   0    0.30    0.23
  -6  30   0    0.37    0.28
  -4  30   0    0.01    0.21
  -2  30   0    0.16    0.27
   0  30   0    0.19    0.25
   2  30   0    0.35    0.28
   4  30   0    0.03    0.24
 -12 -30   0   -0.05    0.29
 -14 -30   0    0.68    0.38
 -10  32   0    0.39    0.34
  -8  32   0   19.04    1.10
  -6  32   0    0.20    0.28
  -4  32   0   16.45    1.01
  -2  32   0    0.15    0.27
   0  32   0   29.17    1.30
   2  32   0    0.08    0.29
  -2  34   0    0.21    0.28
   0  34   0    0.33    0.32
   3  33  -1    0.44    0.33
   1  33  -1    0.03    0.28
  -1  33  -1    0.18    0.27
  -3  33  -1    0.38    0.30
  -5  33  -1    0.32    0.30
  -7  33  -1   -0.05    0.25
   3  31  -1   -0.01    0.24
   1  31  -1    0.08    0.22
  -1  31  -1    0.05    0.25
  -3  31  -1    0.46    0.28
  -5  31  -1    0.62    0.33
  -7  31  -1   -0.21    0.24
  -9  31  -1    0.02    0.25
 -11  31  -1   -0.22    0.25
 -13  31  -1    0.55    0.35
 -15 -29   1   -0.27    0.26
 -13 -29   1   -0.20    0.27
 -11 -29   1    0.14    0.28
  -9 -29   1    0.09    0.26
   5  29  -1   -0.01    0.23
   3  29  -1   -0.05    0.21
   1  29  -1   -0.01    0.23
  -1  29  -1    0.26    0.22
  -3  29  -1    0.07    0.23
  -5  29  -1   -0.25    0.21
  -7  29  -1    0.06    0.23
  -9  29  -1    0.09    0.24
 -11  29  -1    0.21    0.27
 -13  29  -1    0.52    0.34
 -15  29  -1   -0.06    0.30
 -17  29  -1    0.26    0.33
 -17 -27   1    0.04    0.28
 -15 -27   1    0.24    0.26
 -13 -27   1    0.30    0.29
 -11 -27   1    0.03    0.24
  -9 -27   1    0.06    0.22
  -7 -27   1    0.07    0.22
   5  27  -1    0.30    0.22
   3  27  -1    0.10    0.21
   1  27  -1    0.10    0.20
  -1  27  -1    0.00    0.20
  -3  27  -1    0.13    0.23
  -5  27  -1    0.29    0.23
  -7  27  -1    0.07    0.19
  -9  27  -1    0.13    0.23
 -11  27  -1    0.11    0.25
 -13  27  -1    0.16    0.24
 -15  27  -1    0.30    0.29
 -15  27  -1    0.23    0.29
 -17  27  -1   -0.05    0.29
 -17  27  -1    0.19    0.31
 -19  27  -1    0.22    0.35
 -19  27  -1   -0.07    0.30
 -19 -25   1   -0.08    0.27
 -17 -25   1    0.38    0.27
 -15 -25   1    0.35    0.27
 -13 -25   1    0.21    0.22
 -11 -25   1   -0.02    0.21
  -9 -25   1   -0.25    0.15
   7  25  -1    0.23    0.23
  -7 -25   1    0.23    0.21
   5  25  -1   -0.03    0.16
  -5 -25   1   -0.03    0.19
   3  25  -1   -0.19    0.17
   1  25  -1   -0.08    0.14
  -1  25  -1    0.01    0.18
  -3  25  -1   -0.04    0.19
  -5  25  -1    0.00    0.18
  -7  25  -1   -0.12    0.17
  -9  25  -1    0.04    0.19
  -9  25  -1    0.31    0.21
 -11  25  -1    0.36    0.24
 -11  25  -1    0.39    0.24
 -13  25  -1   -0.06    0.21
 -13  25  -1   -0.03    0.20
 -15  25  -1    0.31    0.27
 -15  25  -1    0.07    0.26
 -17  25  -1    0.13    0.28
 -17  25  -1    0.12    0.30
 -19  25  -1   -0.21    0.30
 -19  25  -1    0.28    0.28
 -21  25  -1    0.03    0.31
 -21  25  -1    0.05    0.32
 -23  25  -1    0.45    0.39
 -23  25  -1    0.37    0.36
 -21 -23   1   -0.09    0.24
 -19 -23   1   -0.15    0.24
 -17 -23   1    0.40    0.26
 -15 -23   1   -0.08    0.19
 -13 -23   1    0.01    0.18
 -11 -23   1   -0.03    0.19
  -9 -23   1    0.06    0.15
   7  23  -1    0.28    0.22
  -7 -23   1    0.80    0.25
   5  23  -1    0.04    0.20
  -5 -23   1    0.13    0.16
   3  23  -1    1.75    0.31
  -3 -23   1    1.54    0.27
   1  23  -1    0.03    0.18
  -1  23  -1   -0.06    0.16
  -3  23  -1    1.20    0.28
  -5  23  -1   -0.09    0.14
  -5  23  -1   -0.15    0.17
  -7  23  -1    0.73    0.25
  -7  23  -1    0.30    0.21
  -9  23  -1   -0.11    0.17
  -9  23  -1   -0.33    0.19
 -11  23  -1   -0.14    0.20
 -11  23  -1   -0.06    0.19
 -13  23  -1    0.24    0.23
 -15  23  -1   -0.27    0.20
 -17  23  -1    0.04    0.26
 -19  23  -1    0.08    0.25
 -21  23  -1    0.04    0.31
 -23  23  -1   -0.44    0.31
 -23  23  -1    0.34    0.34
 -25  23  -1    0.17    0.38
 -25  23  -1   -0.19    0.36
 -23 -21   1    0.25    0.24
 -21 -21   1    0.04    0.25
 -19 -21   1    0.19    0.22
 -17 -21   1   -0.07    0.19
 -15 -21   1   -0.18    0.17
 -13 -21   1   -0.01    0.18
 -11 -21   1    0.48    0.21
   9  21  -1    0.11    0.17
  -9 -21   1    0.03    0.17
   7  21  -1    0.24    0.18
  -7 -21   1    0.35    0.19
   5  21  -1    0.04    0.15
  -5 -21   1    0.09    0.14
   3  21  -1    0.16    0.19
  -3 -21   1    0.32    0.16
   1  21  -1   -0.17    0.12
  -1 -21   1   -0.14    0.12
  -1  21  -1   -0.10    0.15
  -1  21  -1   -0.11    0.13
  -3  21  -1    0.33    0.20
  -3  21  -1    0.28    0.18
  -5  21  -1    0.04    0.14
  -5  21  -1    0.03    0.15
  -7  21  -1    0.13    0.19
  -7  21  -1    0.14    0.19
  -9  21  -1   -0.07    0.17
 -11  21  -1    0.37    0.22
 -13  21  -1    0.19    0.22
 -15  21  -1   -0.08    0.19
 -17  21  -1    0.05    0.21
 -19  21  -1    0.29    0.26
 -21  21  -1    0.02    0.27
 -23  21  -1   -0.08    0.30
 -25  21  -1    0.02    0.30
 -25 -19   1    0.12    0.24
 -23 -19   1   -0.12    0.16
 -21 -19   1    0.12    0.18
 -19 -19   1   -0.19    0.18
 -17 -19   1   -0.13    0.18
 -15 -19   1    0.13    0.17
 -13 -19   1    0.04    0.17
 -11 -19   1    1.63    0.30
   9  19  -1    0.43    0.19
  -9 -19   1    0.57    0.22
   7  19  -1    0.92    0.22
  -7 -19   1    0.71    0.21
   5  19  -1    0.05    0.14
  -5 -19   1   -0.03    0.10
   3  19  -1    1.39    0.25
   3  19  -1    1.32    0.21
  -3 -19   1    1.20    0.22
   1  19  -1    0.04    0.13
   1  19  -1   -0.14    0.11
  -1 -19   1    0.00    0.11
  -1  19  -1   -0.12    0.14
  -1  19  -1    0.04    0.12
   1 -19   1   -0.10    0.09
  -3  19  -1    1.63    0.28
  -3  19  -1    1.41    0.23
  -5  19  -1    0.04    0.14
  -5  19  -1    0.12    0.16
  -7  19  -1    0.74    0.21
  -9  19  -1    0.24    0.20
 -11  19  -1    2.16    0.32
 -13  19  -1   -0.10    0.17
 -15  19  -1   -0.18    0.17
 -17  19  -1   -0.06    0.23
 -19  19  -1   -0.05    0.21
 -21  19  -1   -0.13    0.23
 -23  19  -1    0.39    0.33
 -25  19  -1    0.42    0.34
 -27  19  -1    0.30    0.29
 -27 -17   1    0.19    0.26
 -25 -17   1    0.08    0.23
 -23 -17   1    0.21    0.21
 -21 -17   1   -0.03    0.17
 -19 -17   1    0.31    0.19
 -17 -17   1   -0.08    0.17
 -15 -17   1    0.01    0.18
 -13 -17   1    0.73    0.23
 -11 -17   1    0.07    0.15
   9  17  -1   -0.08    0.12
  -9 -17   1    0.14    0.15
   7  17  -1    0.40    0.15
  -7 -17   1    0.06    0.12
   5  17  -1    0.06    0.13
  -5 -17   1    0.10    0.12
   3  17  -1    0.52    0.15
   3  17  -1    0.14    0.14
  -3 -17   1    0.20    0.13
   1  17  -1   -0.04    0.13
   1  17  -1   -0.13    0.09
  -1 -17   1   -0.03    0.09
  -1  17  -1    0.11    0.12
  -1  17  -1    0.00    0.09
   1 -17   1    0.08    0.09
  -3  17  -1    0.36    0.15
  -3  17  -1    0.55    0.19
   3 -17   1    0.39    0.12
  -5  17  -1    0.10    0.13
  -7  17  -1    0.10    0.14
  -9  17  -1    0.06    0.15
 -11  17  -1    0.40    0.20
 -13  17  -1    0.45    0.23
 -15  17  -1   -0.07    0.18
 -17  17  -1   -0.11    0.17
 -19  17  -1    0.02    0.21
 -21  17  -1   -0.14    0.21
 -23  17  -1    0.09    0.23
 -25  17  -1    0.01    0.25
 -27  17  -1    0.16    0.31
 -29  17  -1   -0.09    0.29
 -27 -15   1    0.20    0.25
 -25 -15   1    0.52    0.25
 -23 -15   1   -0.10    0.15
 -21 -15   1   -0.04    0.15
 -19 -15   1    0.13    0.17
 -17 -15   1    0.11    0.14
 -15 -15   1    0.31    0.18
 -13 -15   1   -0.08    0.12
  11  15  -1    1.14    0.20
 -11 -15   1    1.06    0.23
   9  15  -1    3.83    0.30
  -9 -15   1    3.19    0.32
   7  15  -1    0.40    0.14
  -7 -15   1    0.01    0.10
   5  15  -1    2.44    0.26
  -5 -15   1    2.68    0.26
   3  15  -1    3.81    0.31
   3  15  -1    3.60    0.26
  -3 -15   1    3.80    0.29
   1  15  -1    0.00    0.09
   1  15  -1    0.18    0.12
  -1 -15   1    0.02    0.08
  -1  15  -1    0.10    0.11
  -1  15  -1    0.06    0.11
   1 -15   1    0.06    0.08
  -3  15  -1    3.44    0.28
   3 -15   1    3.80    0.22
  -5  15  -1    2.81    0.27
   5 -15   1    2.58    0.17
  -7  15  -1    0.18    0.14
  -9  15  -1    3.68    0.34
 -11  15  -1    0.86    0.22
 -13  15  -1   -0.02    0.16
 -15  15  -1    0.16    0.20
 -17  15  -1   -0.07    0.20
 -19  15  -1    0.00    0.17
 -21  15  -1    0.07    0.23
 -23  15  -1    0.10    0.22
 -25  15  -1   -0.15    0.23
 -27  15  -1    0.41    0.31
 -29  15  -1   -0.11    0.29
 -29 -13   1   -0.18    0.24
 -27 -13   1    0.55    0.28
 -25 -13   1   -0.11    0.20
 -23 -13   1    0.18    0.21
 -21 -13   1    0.00    0.15
 -19 -13   1   -0.08    0.12
 -17 -13   1    0.47    0.19
 -15 -13   1   -0.02    0.10
 -15 -13   1    0.07    0.12
 -13 -13   1    0.05    0.11
 -13 -13   1   -0.08    0.10
  11  13  -1    0.13    0.11
 -11 -13   1   -0.07    0.10
   9  13  -1    0.49    0.13
  -9 -13   1    0.42    0.16
   7  13  -1    0.83    0.15
  -7 -13   1    0.71    0.17
   5  13  -1    3.61    0.27
  -5 -13   1    3.89    0.29
   3  13  -1    0.51    0.13
  -3 -13   1    0.63    0.14
   1  13  -1    0.06    0.10
   1  13  -1    0.10    0.08
  -1 -13   1   -0.04    0.07
  -1  13  -1    0.09    0.08
  -1  13  -1   -0.11    0.08
   1 -13   1   -0.03    0.06
  -3  13  -1    0.72    0.13
   3 -13   1    0.65    0.10
  -5  13  -1    3.37    0.27
   5 -13   1    3.48    0.17
  -7  13  -1    0.99    0.07
  -7  13  -1    0.70    0.16
  -9  13  -1    0.25    0.13
 -11  13  -1    0.09    0.14
 -13  13  -1    0.03    0.14
 -15  13  -1    0.04    0.15
 -17  13  -1    0.50    0.22
 -19  13  -1   -0.21    0.17
 -21  13  -1    0.02    0.18
 -23  13  -1    0.17    0.24
 -25  13  -1   -0.12    0.22
 -27  13  -1    0.20    0.24
 -29  13  -1    0.45    0.32
 -31  13  -1    0.17    0.34
 -31 -11   1    0.53    0.30
 -29 -11   1   -0.16    0.21
 -27 -11   1    0.28    0.22
 -25 -11   1   -0.05    0.19
 -23 -11   1   -0.07    0.15
 -21 -11   1    0.40    0.24
 -21 -11   1    0.14    0.16
 -19 -11   1    1.43    0.28
 -19 -11   1    1.29    0.27
 -17 -11   1    0.03    0.13
 -17 -11   1    0.17    0.13
 -15 -11   1    1.32    0.25
 -15 -11   1    1.17    0.21
  13  11  -1   -0.07    0.11
 -13 -11   1    0.13    0.12
 -13 -11   1    0.14    0.11
  11  11  -1    0.05    0.09
 -11 -11   1   -0.07    0.10
 -11 -11   1   -0.08    0.08
   9  11  -1    3.20    0.24
  -9 -11   1    3.86    0.31
   7  11  -1    3.72    0.25
  -7 -11   1    4.29    0.30
   5  11  -1    3.28    0.24
  -5 -11   1    3.12    0.25
   3  11  -1   41.96    0.93
  -3 -11   1   39.87    0.90
   1  11  -1    0.09    0.08
   1  11  -1   -0.03    0.06
  -1 -11   1   -0.04    0.06
  -1  11  -1    0.05    0.07
   1 -11   1    0.01    0.05
  -3  11  -1   41.63    0.91
   3 -11   1   42.80    0.76
  -5  11  -1    3.35    0.26
   5 -11   1    3.36    0.14
  -7  11  -1    3.87    0.29
  -9  11  -1    2.97    0.28
 -11  11  -1   -0.25    0.09
 -13  11  -1   -0.15    0.13
 -15  11  -1    1.37    0.26
 -17  11  -1   -0.12    0.15
 -19  11  -1    1.51    0.32
 -21  11  -1   -0.12    0.18
 -23  11  -1    0.23    0.21
 -25  11  -1   -0.02    0.21
 -27  11  -1    0.50    0.31
 -29  11  -1   -0.44    0.29
 -31  11  -1    0.10    0.35
 -29  -9   1    0.01    0.24
 -27  -9   1    0.52    0.23
 -25  -9   1   -0.12    0.22
 -25  -9   1   -0.03    0.18
 -23  -9   1    0.24    0.23
 -23  -9   1    0.24    0.19
 -21  -9   1   -0.04    0.15
 -21  -9   1    0.07    0.17
 -19  -9   1    0.46    0.19
 -19  -9   1    0.59    0.20
 -17  -9   1    0.15    0.14
 -17  -9   1   -0.11    0.11
 -15  -9   1    4.24    0.36
 -15  -9   1    3.79    0.32
 -13  -9   1    0.29    0.12
 -13  -9   1    0.37    0.15
  11   9  -1    3.50    0.23
 -11  -9   1    3.40    0.25
 -11  -9   1    2.73    0.28
   9   9  -1    0.01    0.07
  -9  -9   1   -0.03    0.08
  -9  -9   1    0.07    0.07
   7   9  -1   10.09    0.35
  -7  -9   1    9.71    0.42
   5   9  -1    1.10    0.13
  -5  -9   1    0.82    0.14
   3   9  -1    0.25    0.09
  -3  -9   1    0.30    0.09
   1   9  -1    0.09    0.06
   1   9  -1   -0.02    0.06
  -1  -9   1    0.04    0.05
  -1   9  -1   -0.05    0.04
   1  -9   1    0.06    0.05
  -3   9  -1    0.37    0.09
   3  -9   1    0.25    0.06
  -5   9  -1    1.05    0.14
   5  -9   1    0.85    0.06
  -7   9  -1   11.02    0.44
  -9   9  -1    0.02    0.10
 -11   9  -1    3.61    0.32
 -13   9  -1    0.35    0.15
 -15   9  -1    3.30    0.37
 -17   9  -1   -0.04    0.17
 -19   9  -1    0.23    0.21
 -21   9  -1    0.12    0.19
 -23   9  -1    0.18    0.21
 -25   9  -1    0.28    0.27
 -27   9  -1    0.01    0.26
 -29   9  -1    0.38    0.32
 -31   9  -1    0.57    0.38
 -29  -7   1   -0.22    0.20
 -29  -7   1    0.19    0.29
 -27  -7   1    0.18    0.20
 -27  -7   1    0.15    0.26
 -25  -7   1    0.03    0.21
 -25  -7   1    0.17    0.18
 -23  -7   1    0.29    0.23
 -23  -7   1    0.52    0.21
 -21  -7   1    0.08    0.16
 -21  -7   1    0.14    0.15
 -19  -7   1    1.32    0.25
 -19  -7   1    0.73    0.22
 -17  -7   1    0.14    0.14
 -17  -7   1    0.31    0.16
 -15  -7   1    0.13    0.13
 -15  -7   1    0.21    0.13
 -13  -7   1    1.29    0.20
 -13  -7   1    1.23    0.18
 -11  -7   1    4.46    0.31
 -11  -7   1    4.57    0.28
   9   7  -1    9.84    0.33
  -9  -7   1    9.53    0.37
  -9  -7   1   10.09    0.43
   7   7  -1    0.06    0.06
  -7  -7   1   -0.04    0.05
  -7  -7   1    0.04    0.05
   5   7  -1    5.11    0.22
  -5  -7   1    4.69    0.25
   3   7  -1   25.74    0.57
  -3  -7   1   25.80    0.60
   1   7  -1    0.03    0.06
  -1  -7   1    0.02    0.05
  -1   7  -1    0.04    0.05
   1  -7   1    0.08    0.04
  -3   7  -1   24.56    0.57
   3  -7   1   24.73    0.43
  -5   7  -1    5.09    0.26
  -7   7  -1    0.10    0.07
  -9   7  -1    9.83    0.44
 -11   7  -1    3.75    0.12
 -11   7  -1    3.53    0.30
 -13   7  -1    0.92    0.08
 -13   7  -1    0.80    0.20
 -15   7  -1    0.13    0.16
 -17   7  -1    0.08    0.16
 -19   7  -1    0.59    0.24
 -21   7  -1   -0.05    0.19
 -23   7  -1    0.36    0.27
 -25   7  -1   -0.16    0.22
 -27   7  -1    0.41    0.28
 -29   7  -1   -0.01    0.28
 -31   7  -1    0.10    0.34
 -33   7  -1    0.03    0.33
 -33  -5   1   -0.03    0.36
 -31  -5   1    0.04    0.30
 -29  -5   1   -0.18    0.25
 -27  -5   1    0.02    0.23
 -27  -5   1    0.06    0.19
 -25  -5   1    0.05    0.21
 -25  -5   1    0.14    0.17
 -23  -5   1   -0.04    0.14
 -23  -5   1    0.00    0.20
 -21  -5   1   -0.04    0.12
 -21  -5   1    0.01    0.14
 -19  -5   1    0.14    0.15
 -19  -5   1    0.00    0.12
 -17  -5   1    0.06    0.13
 -17  -5   1    0.12    0.12
 -15  -5   1    3.23    0.30
 -15  -5   1    2.53    0.27
 -13  -5   1    3.40    0.28
 -13  -5   1    3.44    0.27
 -11  -5   1    3.12    0.24
 -11  -5   1    3.54    0.26
  -9  -5   1    1.17    0.14
  -9  -5   1    0.86    0.14
  -7  -5   1    5.17    0.26
  -7  -5   1    5.14    0.23
  -5  -5   1    0.01    0.05
  -3  -5   1    1.67    0.13
   1   5  -1    0.11    0.05
  -1  -5   1    0.06    0.04
   1  -5   1    0.07    0.03
  -3   5  -1    2.17    0.14
   3  -5   1    2.13    0.07
  -5   5  -1   -0.03    0.06
  -7   5  -1    4.86    0.27
  -9   5  -1    0.99    0.07
  -9   5  -1    0.81    0.15
 -11   5  -1    3.17    0.28
 -11   5  -1    3.46    0.16
 -13   5  -1    3.65    0.32
 -13   5  -1    3.86    0.19
 -15   5  -1    2.88    0.19
 -15   5  -1    2.47    0.30
 -17   5  -1   -0.04    0.13
 -17   5  -1   -0.01    0.08
 -19   5  -1    0.05    0.17
 -21   5  -1    0.06    0.20
 -23   5  -1   -0.09    0.19
 -25   5  -1    0.13    0.27
 -27   5  -1    0.53    0.30
 -29   5  -1    0.08    0.30
 -31   5  -1    0.22    0.29
 -33   5  -1    0.00    0.35
 -33  -3   1   -0.09    0.31
 -31  -3   1    0.43    0.34
 -29  -3   1   -0.10    0.26
 -27  -3   1    0.15    0.26
 -25  -3   1   -0.10    0.15
 -25  -3   1    0.03    0.22
 -23  -3   1    1.24    0.31
 -23  -3   1    0.96    0.24
 -21  -3   1    0.24    0.19
 -21  -3   1    0.61    0.19
 -19  -3   1    1.25    0.26
 -19  -3   1    1.01    0.21
 -17  -3   1    0.54    0.18
 -17  -3   1    0.55    0.17
 -15  -3   1    4.46    0.34
 -15  -3   1    3.74    0.30
 -13  -3   1    0.59    0.14
 -13  -3   1    0.44    0.13
 -11  -3   1   40.14    0.91
 -11  -3   1   40.70    0.94
  -9  -3   1    0.28    0.09
  -9  -3   1    0.23    0.09
  -7  -3   1   23.88    0.57
  -7  -3   1   23.93    0.56
  -5  -3   1    1.89    0.13
  -3  -3   1    0.38    0.06
  -1  -3   1    0.06    0.03
   1  -3   1    0.05    0.02
  -5   3  -1    2.16    0.07
  -5   3  -1    1.84    0.14
  -7   3  -1   25.00    0.44
  -7   3  -1   23.35    0.61
  -9   3  -1    0.25    0.11
  -9   3  -1    0.29    0.06
 -11   3  -1   40.84    1.01
 -11   3  -1   42.66    0.77
 -13   3  -1    0.67    0.17
 -13   3  -1    0.62    0.11
 -15   3  -1    3.86    0.35
 -15   3  -1    4.11    0.25
 -17   3  -1    0.41    0.19
 -17   3  -1    0.66    0.14
 -19   3  -1    1.55    0.29
 -19   3  -1    1.70    0.20
 -21   3  -1    0.16    0.20
 -23   3  -1    1.05    0.30
 -25   3  -1   -0.03    0.23
 -27   3  -1   -0.05    0.23
 -29   3  -1   -0.11    0.24
 -31   3  -1    0.46    0.33
 -33   3  -1    0.30    0.37
 -33  -1   1    0.15    0.36
 -31  -1   1    0.27    0.32
 -29  -1   1    0.31    0.31
 -27  -1   1    0.25    0.25
 -25  -1   1    0.01    0.22
 -23  -1   1    0.28    0.16
 -23  -1   1    0.13    0.20
 -21  -1   1    0.06    0.14
 -21  -1   1    0.10    0.17
 -19  -1   1    0.19    0.13
 -19  -1   1   -0.04    0.15
 -17  -1   1   -0.06    0.09
 -17  -1   1    0.00    0.12
 -15  -1   1   -0.06    0.09
 -15  -1   1    0.00    0.10
 -13  -1   1   -0.01    0.08
 -13  -1   1    0.00    0.08
 -11  -1   1   -0.01    0.08
 -11  -1   1    0.07    0.07
  -9  -1   1   -0.01    0.05
  -9  -1   1   -0.03    0.07
  -7  -1   1   -0.02    0.04
  -7  -1   1    0.05    0.06
  -5  -1   1    0.03    0.04
  -3  -1   1    0.01    0.02
  -1  -1   1    0.09    0.02
   1  -1   1    0.10    0.02
  -3   1  -1    0.05    0.02
  -5   1  -1    0.02    0.03
  -5   1  -1    0.03    0.05
  -7   1  -1    0.05    0.04
  -7   1  -1    0.15    0.08
  -9   1  -1   -0.04    0.07
  -9   1  -1    0.01    0.05
 -11   1  -1    0.10    0.09
 -11   1  -1    0.02    0.06
 -13   1  -1    0.00    0.07
 -13   1  -1   -0.09    0.09
 -15   1  -1    0.04    0.12
 -15   1  -1   -0.01    0.08
 -17   1  -1   -0.10    0.11
 -17   1  -1    0.20    0.11
 -19   1  -1   -0.02    0.14
 -19   1  -1    0.03    0.11
 -21   1  -1    0.12    0.19
 -21   1  -1    0.03    0.13
 -23   1  -1    0.14    0.20
 -25   1  -1   -0.31    0.21
 -27   1  -1    0.11    0.24
 -29   1  -1    0.14    0.28
 -31   1  -1   -0.27    0.28
 -33   1  -1   -0.05    0.31
 -33   1   1   -0.17    0.33
 -31   1   1   -0.04    0.30
 -29   1   1   -0.27    0.24
 -27   1   1    0.24    0.26
 -25   1   1   -0.17    0.19
 -23   1   1    0.01    0.19
 -21   1   1   -0.03    0.12
 -21   1   1    0.19    0.20
 -19   1   1    0.00    0.11
 -19   1   1    0.06    0.15
 -17   1   1   -0.04    0.14
 -17   1   1    0.02    0.09
 -15   1   1   -0.06    0.11
 -15   1   1    0.13    0.09
 -13   1   1   -0.13    0.08
 -13   1   1    0.09    0.07
 -11   1   1    0.04    0.06
 -11   1   1    0.01    0.08
  -9   1   1    0.29    0.10
  -9   1   1    0.03    0.05
  -7   1   1   -0.06    0.05
  -7   1   1    0.01    0.04
  -5   1   1    0.06    0.05
  -5   1   1    0.03    0.03
  -3   1   1    0.02    0.02
  -1   1   1    0.07    0.02
  -1  -1  -1    0.05    0.02
  -3  -1  -1    0.09    0.03
  -5  -1  -1    0.07    0.04
  -5  -1  -1    0.03    0.04
  -7  -1  -1    0.06    0.05
  -7  -1  -1   -0.02    0.05
  -9  -1  -1   -0.01    0.06
  -9  -1  -1    0.00    0.05
 -11  -1  -1    0.05    0.08
 -11  -1  -1    0.06    0.07
 -13  -1  -1   -0.01    0.07
 -13  -1  -1   -0.04    0.08
 -15  -1  -1   -0.12    0.08
 -15  -1  -1   -0.06    0.11
 -17  -1  -1   -0.02    0.10
 -17  -1  -1   -0.15    0.12
 -19  -1  -1   -0.02    0.12
 -19  -1  -1   -0.08    0.13
 -21  -1  -1    0.02    0.13
 -21  -1  -1    0.00    0.17
 -23  -1  -1   -0.08    0.20
 -23  -1  -1   -0.02    0.15
 -25  -1  -1   -0.39    0.18
 -27  -1  -1    0.00    0.25
 -29  -1  -1    0.16    0.26
 -31  -1  -1    0.16    0.31
 -33  -1  -1   -0.09    0.34
 -33   3   1   -0.16    0.30
 -31   3   1    0.04    0.29
 -29   3   1    0.19    0.27
 -27   3   1   -0.19    0.24
 -25   3   1   -0.10    0.22
 -23   3   1    0.88    0.29
 -21   3   1    0.18    0.18
 -19   3   1    1.71    0.30
 -19   3   1    1.04    0.18
 -17   3   1    0.56    0.21
 -17   3   1    0.45    0.13
 -15   3   1    3.52    0.24
 -15   3   1    3.85    0.34
 -13   3   1    0.75    0.18
 -13   3   1    0.47    0.10
 -11   3   1   39.41    0.96
 -11   3   1   38.72    0.75
  -9   3   1    0.17    0.09
  -9   3   1    0.13    0.05
  -7   3   1   24.54    0.45
  -7   3   1   24.22    0.61
  -5   3   1    2.16    0.16
  -5   3   1    2.19    0.09
  -3   3   1    0.10    0.02
   1  -3  -1    0.06    0.02
  -1  -3  -1    0.01    0.02
  -3  -3  -1    0.13    0.04
  -5  -3  -1    2.38    0.15
  -5  -3  -1    1.96    0.14
  -7  -3  -1   24.12    0.57
  -7  -3  -1   24.35    0.58
  -9  -3  -1    0.13    0.08
  -9  -3  -1    0.36    0.10
 -11  -3  -1   39.35    0.89
 -11  -3  -1   40.17    0.95
 -13  -3  -1    0.50    0.13
 -13  -3  -1    0.45    0.15
 -15  -3  -1    3.87    0.33
 -15  -3  -1    3.56    0.29
 -17  -3  -1    0.13    0.12
 -17  -3  -1    0.28    0.15
 -19  -3  -1    1.68    0.24
 -19  -3  -1    0.99    0.25
 -21  -3  -1    0.28    0.19
 -21  -3  -1    0.19    0.14
 -23  -3  -1    1.55    0.27
 -23  -3  -1    1.26    0.32
 -25  -3  -1   -0.08    0.16
 -25  -3  -1   -0.15    0.19
 -27  -3  -1    0.14    0.23
 -29  -3  -1   -0.01    0.25
 -31  -3  -1    0.08    0.28
 -33  -3  -1    0.38    0.38
 -33   5   1   -0.04    0.34
 -31   5   1   -0.02    0.32
 -29   5   1    0.23    0.28
 -27   5   1    0.32    0.29
 -25   5   1   -0.02    0.23
 -23   5   1   -0.23    0.20
 -21   5   1    0.22    0.23
 -19   5   1    0.10    0.17
 -17   5   1    0.01    0.09
 -17   5   1    0.08    0.15
 -15   5   1    2.83    0.32
 -15   5   1    2.77    0.20
 -13   5   1    3.52    0.19
 -13   5   1    3.69    0.32
 -11   5   1    3.17    0.16
 -11   5   1    3.17    0.27
  -9   5   1    0.88    0.08
  -9   5   1    1.14    0.16
  -7   5   1    5.49    0.28
  -7   5   1    5.32    0.15
  -5   5   1    0.08    0.06
  -5   5   1    0.04    0.02
  -3   5   1    2.01    0.14
  -3   5   1    2.17    0.08
   1  -5  -1    0.03    0.03
  -1  -5  -1    0.11    0.05
  -3  -5  -1    2.61    0.16
  -5  -5  -1    0.02    0.05
  -5  -5  -1   -0.01    0.04
  -7  -5  -1    5.05    0.25
  -7  -5  -1    4.86    0.26
  -9  -5  -1    0.73    0.12
  -9  -5  -1    0.86    0.14
 -11  -5  -1    3.07    0.25
 -11  -5  -1    3.14    0.25
 -13  -5  -1    4.32    0.30
 -13  -5  -1    3.46    0.28
 -15  -5  -1    2.47    0.27
 -15  -5  -1    2.51    0.26
 -17  -5  -1    0.05    0.12
 -17  -5  -1   -0.06    0.11
 -19  -5  -1    0.29    0.15
 -19  -5  -1    0.10    0.16
 -21  -5  -1   -0.03    0.15
 -21  -5  -1    0.09    0.11
 -23  -5  -1    0.42    0.19
 -23  -5  -1    0.03    0.19
 -25  -5  -1   -0.01    0.23
 -25  -5  -1    0.15    0.19
 -27  -5  -1    0.20    0.21
 -27  -5  -1    0.41    0.27
 -29  -5  -1   -0.02    0.28
 -31  -5  -1    0.24    0.32
 -33  -5  -1    0.04    0.35
 -33   7   1    0.03    0.30
 -31   7   1    0.53    0.36
 -29   7   1    0.20    0.30
 -27   7   1    0.14    0.28
 -25   7   1   -0.16    0.23
 -23   7   1    0.74    0.28
 -21   7   1   -0.09    0.20
 -19   7   1    0.79    0.25
 -17   7   1    0.15    0.18
 -15   7   1    0.13    0.14
 -13   7   1    0.86    0.19
 -13   7   1    0.81    0.09
 -11   7   1    3.97    0.15
 -11   7   1    3.88    0.31
  -9   7   1   10.35    0.44
  -9   7   1   10.24    0.21
  -7   7   1    0.05    0.07
  -7   7   1    0.00    0.02
  -5   7   1    5.58    0.28
  -5   7   1    5.01    0.14
   3  -7  -1   24.62    0.44
  -3   7   1   24.88    0.60
   1  -7  -1   -0.02    0.03
  -1   7   1   -0.02    0.05
  -1  -7  -1    0.05    0.05
  -3  -7  -1   25.85    0.60
   3   7   1   25.66    0.55
  -5  -7  -1    5.00    0.26
   5   7   1    5.20    0.20
  -7  -7  -1    0.05    0.06
  -7  -7  -1    0.04    0.06
  -9  -7  -1    9.00    0.40
  -9  -7  -1    9.40    0.38
 -11  -7  -1    3.62    0.27
 -11  -7  -1    4.06    0.30
 -13  -7  -1    0.53    0.15
 -13  -7  -1    1.21    0.19
 -15  -7  -1    0.12    0.13
 -15  -7  -1    0.11    0.12
 -17  -7  -1    0.14    0.14
 -17  -7  -1    0.33    0.14
 -19  -7  -1    0.44    0.17
 -19  -7  -1    1.17    0.25
 -21  -7  -1    0.04    0.13
 -21  -7  -1    0.12    0.18
 -23  -7  -1    0.32    0.22
 -23  -7  -1    0.54    0.22
 -25  -7  -1   -0.16    0.21
 -25  -7  -1    0.05    0.17
 -27  -7  -1    0.31    0.21
 -27  -7  -1    0.02    0.25
 -29  -7  -1    0.17    0.25
 -29  -7  -1    0.04    0.29
 -31  -7  -1   -0.13    0.29
 -31   9   1    0.36    0.38
 -29   9   1    0.24    0.31
 -27   9   1    0.16    0.27
 -25   9   1    0.14    0.24
 -23   9   1   -0.27    0.21
 -21   9   1    0.06    0.19
 -19   9   1    0.52    0.25
 -17   9   1   -0.08    0.15
 -15   9   1    2.95    0.33
 -13   9   1    0.40    0.17
 -11   9   1    3.02    0.29
  -9   9   1    0.01    0.09
  -7   9   1   10.49    0.45
  -5   9   1    0.86    0.14
  -5   9   1    0.98    0.07
   3  -9  -1    0.27    0.06
  -3   9   1    0.29    0.09
   1  -9  -1   -0.03    0.04
  -1   9   1   -0.04    0.05
  -1  -9  -1    0.03    0.06
  -3  -9  -1    0.19    0.08
   3   9   1    0.25    0.08
  -5  -9  -1    0.67    0.13
   5   9   1    0.82    0.11
  -7  -9  -1   10.59    0.43
   7   9   1   10.01    0.33
  -9  -9  -1   -0.05    0.07
  -9  -9  -1    0.09    0.08
   9   9   1    0.00    0.06
 -11  -9  -1    2.57    0.24
 -11  -9  -1    2.98    0.28
  11   9   1    3.33    0.19
 -13  -9  -1    0.58    0.16
 -13  -9  -1    0.43    0.14
 -15  -9  -1    3.31    0.31
 -15  -9  -1    3.42    0.33
 -17  -9  -1   -0.10    0.12
 -17  -9  -1    0.11    0.12
 -19  -9  -1    0.32    0.21
 -19  -9  -1    0.17    0.15
 -21  -9  -1   -0.18    0.12
 -21  -9  -1   -0.05    0.18
 -23  -9  -1    0.03    0.23
 -23  -9  -1    0.29    0.20
 -25  -9  -1    0.25    0.27
 -25  -9  -1   -0.23    0.15
 -27  -9  -1    0.01    0.24
 -27  -9  -1    0.18    0.20
 -29  -9  -1    0.42    0.27
 -29  -9  -1   -0.05    0.28
 -31  11   1   -0.37    0.27
 -29  11   1   -0.12    0.26
 -27  11   1    0.27    0.33
 -25  11   1   -0.16    0.25
 -23  11   1   -0.03    0.22
 -21  11   1    0.08    0.17
 -19  11   1    2.13    0.35
 -17  11   1    0.13    0.18
 -15  11   1    0.99    0.25
 -13  11   1    0.18    0.15
 -11  11   1   -0.19    0.08
  -9  11   1    2.92    0.28
  -7  11   1    3.60    0.13
  -7  11   1    4.13    0.31
  -5  11   1    3.39    0.26
  -5  11   1    3.43    0.16
   3 -11  -1   39.15    0.72
  -3  11   1   39.16    0.90
   1 -11  -1    0.05    0.06
  -1  11   1    0.01    0.07
  -1 -11  -1   -0.02    0.06
  -3 -11  -1   41.05    0.91
   3  11   1   42.32    0.91
  -5 -11  -1    3.38    0.25
   5  11   1    2.89    0.22
  -7 -11  -1    4.14    0.29
   7  11   1    4.40    0.25
  -9 -11  -1    3.35    0.29
   9  11   1    3.34    0.22
 -11 -11  -1   -0.02    0.09
 -11 -11  -1    0.02    0.10
  11  11   1    0.10    0.09
 -13 -11  -1    0.06    0.11
 -13 -11  -1    0.16    0.11
 -15 -11  -1    1.29    0.22
 -15 -11  -1    1.57    0.26
 -17 -11  -1    0.09    0.14
 -17 -11  -1    0.02    0.13
 -19 -11  -1    1.05    0.25
 -19 -11  -1    1.58    0.29
 -21 -11  -1    0.12    0.20
 -21 -11  -1    0.27    0.17
 -23 -11  -1    0.23    0.21
 -23 -11  -1   -0.04    0.21
 -25 -11  -1    0.09    0.23
 -25 -11  -1    0.10    0.22
 -27 -11  -1    0.63    0.26
 -29 -11  -1    0.18    0.25
 -31 -11  -1   -0.01    0.24
 -31  13   1   -0.04    0.38
 -29  13   1    0.26    0.31
 -27  13   1    0.29    0.31
 -25  13   1   -0.02    0.22
 -23  13   1    0.10    0.22
 -21  13   1   -0.01    0.19
 -19  13   1   -0.14    0.16
 -17  13   1    1.09    0.29
 -15  13   1   -0.11    0.15
 -13  13   1   -0.01    0.14
 -11  13   1    0.15    0.13
  -9  13   1    0.51    0.16
  -7  13   1    0.82    0.18
  -7  13   1    1.00    0.09
  -5  13   1    3.72    0.18
  -5  13   1    4.00    0.30
   3 -13  -1    0.54    0.10
  -3  13   1    0.46    0.13
   1 -13  -1   -0.06    0.05
  -1  13   1   -0.01    0.09
  -1 -13  -1    0.07    0.08
   1  13   1    0.00    0.08
  -3 -13  -1    0.53    0.13
   3  13   1    0.57    0.14
  -5 -13  -1    3.90    0.30
   5  13   1    3.24    0.25
  -7 -13  -1    1.07    0.19
   7  13   1    0.93    0.15
  -9 -13  -1    0.65    0.18
   9  13   1    0.46    0.12
 -11 -13  -1    0.00    0.11
  11  13   1   -0.06    0.09
 -13 -13  -1    0.01    0.12
 -15 -13  -1    0.29    0.14
 -15 -13  -1    0.02    0.15
 -17 -13  -1    1.03    0.23
 -17 -13  -1    1.03    0.25
 -19 -13  -1   -0.04    0.12
 -19 -13  -1    0.14    0.17
 -21 -13  -1   -0.07    0.19
 -21 -13  -1    0.01    0.15
 -23 -13  -1    0.01    0.20
 -25 -13  -1    0.04    0.20
 -27 -13  -1    0.14    0.23
 -29 -13  -1   -0.03    0.25
 -29  15   1   -0.30    0.25
 -27  15   1    0.35    0.31
 -25  15   1    0.35    0.28
 -23  15   1   -0.21    0.19
 -21  15   1    0.02    0.21
 -19  15   1   -0.01    0.17
 -17  15   1    0.14    0.20
 -15  15   1   -0.05    0.15
 -13  15   1   -0.11    0.15
 -11  15   1    1.32    0.25
  -9  15   1    3.05    0.33
  -7  15   1    0.15    0.13
   5 -15  -1    2.88    0.18
  -5  15   1    2.94    0.28
   3 -15  -1    3.92    0.23
  -3  15   1    3.86    0.30
   1 -15  -1    0.07    0.08
  -1  15   1    0.07    0.09
  -1 -15  -1   -0.07    0.07
   1  15   1   -0.01    0.09
  -3 -15  -1    4.51    0.31
   3  15   1    4.21    0.32
  -5 -15  -1    2.36    0.25
   5  15   1    2.23    0.24
  -7 -15  -1    0.29    0.14
   7  15   1    0.09    0.11
  -9 -15  -1    3.40    0.34
   9  15   1    3.71    0.28
 -11 -15  -1    1.51    0.26
 -13 -15  -1   -0.05    0.13
 -15 -15  -1   -0.01    0.14
 -17 -15  -1    0.16    0.15
 -19 -15  -1   -0.12    0.11
 -21 -15  -1    0.16    0.18
 -23 -15  -1    0.39    0.23
 -25 -15  -1    0.38    0.24
 -27 -15  -1   -0.04    0.22
 -29  17   1    0.20    0.29
 -27  17   1   -0.13    0.26
 -25  17   1    0.40    0.30
 -23  17   1   -0.20    0.21
 -21  17   1    0.13    0.21
 -19  17   1    0.18    0.20
 -17  17   1    0.00    0.19
 -15  17   1   -0.04    0.19
 -13  17   1    0.94    0.25
 -11  17   1    0.06    0.14
  -9  17   1    0.05    0.13
  -7  17   1    0.14    0.14
  -5  17   1    0.14    0.13
   3 -17  -1    0.43    0.12
  -3  17   1    0.21    0.14
   1 -17  -1   -0.11    0.08
  -1  17   1   -0.02    0.10
  -1 -17  -1   -0.07    0.09
   1  17   1   -0.12    0.12
   1  17   1   -0.06    0.10
  -3 -17  -1    0.44    0.14
   3  17   1    0.46    0.17
  -5 -17  -1    0.00    0.10
   5  17   1    0.09    0.14
  -7 -17  -1    0.15    0.14
   7  17   1    0.35    0.15
  -9 -17  -1    0.06    0.12
   9  17   1   -0.08    0.12
 -11 -17  -1    0.10    0.16
 -13 -17  -1    0.77    0.24
 -15 -17  -1    0.05    0.16
 -17 -17  -1   -0.05    0.18
 -19 -17  -1   -0.03    0.15
 -21 -17  -1    0.04    0.18
 -23 -17  -1    0.25    0.24
 -25 -17  -1   -0.04    0.20
 -27 -17  -1    0.44    0.31
 -27  19   1    0.14    0.33
 -25  19   1   -0.28    0.24
 -23  19   1   -0.10    0.22
 -21  19   1    0.20    0.25
 -19  19   1   -0.25    0.19
 -17  19   1   -0.07    0.19
 -15  19   1    0.00    0.20
 -13  19   1    0.06    0.18
 -11  19   1    0.93    0.27
  -9  19   1    0.37    0.20
  -7  19   1    0.68    0.21
  -5  19   1    0.07    0.16
  -3  19   1    1.61    0.25
   1 -19  -1    0.03    0.08
  -1  19   1    0.07    0.13
  -1  19   1   -0.06    0.12
  -1 -19  -1    0.24    0.13
   1  19   1   -0.19    0.12
   1  19   1    0.06    0.15
  -3 -19  -1    1.07    0.20
   3  19   1    2.80    0.29
   3  19   1    1.29    0.24
  -5 -19  -1    0.09    0.13
   5  19   1    0.02    0.13
  -7 -19  -1    0.98    0.24
   7  19   1    1.40    0.24
  -9 -19  -1    0.07    0.15
   9  19   1    0.22    0.18
 -11 -19  -1    1.54    0.28
 -13 -19  -1   -0.10    0.14
 -15 -19  -1   -0.08    0.15
 -17 -19  -1   -0.04    0.20
 -19 -19  -1   -0.14    0.16
 -21 -19  -1   -0.08    0.17
 -23 -19  -1    0.27    0.25
 -25 -19  -1    0.32    0.26
 -25  21   1    0.20    0.32
 -23  21   1   -0.02    0.29
 -21  21   1    0.23    0.27
 -19  21   1    0.38    0.26
 -17  21   1    0.09    0.23
 -15  21   1    0.00    0.22
 -13  21   1   -0.07    0.20
 -11  21   1    0.28    0.20
  -9  21   1    0.11    0.19
  -7  21   1    0.13    0.18
  -5  21   1    0.00    0.15
  -3  21   1    0.20    0.17
  -1  21   1    0.02    0.16
  -1  21   1    0.13    0.14
  -1 -21  -1   -0.03    0.12
   1  21   1   -0.11    0.16
   1  21   1    0.13    0.15
  -3 -21  -1    0.33    0.17
   3  21   1    0.08    0.15
   3  21   1    0.46    0.18
  -5 -21  -1    0.11    0.14
   5  21   1   -0.08    0.14
  -7 -21  -1    0.16    0.15
   7  21   1    0.24    0.19
  -9 -21  -1    0.02    0.14
 -11 -21  -1   -0.02    0.15
 -13 -21  -1    0.00    0.18
 -15 -21  -1    0.19    0.19
 -17 -21  -1   -0.07    0.19
 -19 -21  -1   -0.09    0.19
 -21 -21  -1    0.37    0.28
 -23 -21  -1    0.17    0.26
 -25  23   1    0.22    0.36
 -23  23   1   -0.18    0.26
 -21  23   1    0.21    0.29
 -19  23   1    0.07    0.25
 -17  23   1    0.04    0.24
 -15  23   1    0.27    0.26
 -13  23   1   -0.03    0.21
 -11  23   1    0.04    0.21
  -9  23   1   -0.01    0.19
  -7  23   1    0.58    0.25
  -5  23   1    0.48    0.22
  -5  23   1    0.06    0.20
  -3  23   1    0.79    0.26
  -3  23   1    1.47    0.30
  -1  23   1    0.13    0.18
  -1  23   1    0.05    0.18
   1  23   1   -0.08    0.16
  -3 -23  -1    1.37    0.26
   3  23   1    1.24    0.29
  -5 -23  -1   -0.01    0.14
   5  23   1    0.15    0.22
  -7 -23  -1    0.14    0.19
   7  23   1    0.61    0.23
  -9 -23  -1    0.07    0.17
 -11 -23  -1   -0.16    0.17
 -13 -23  -1    0.11    0.21
 -15 -23  -1    0.10    0.22
 -17 -23  -1    0.50    0.29
 -19 -23  -1    0.31    0.25
 -21 -23  -1    0.11    0.28
 -23  25   1   -0.74    0.26
 -21  25   1    0.15    0.29
 -19  25   1    0.37    0.32
 -17  25   1    0.09    0.25
 -15  25   1    0.11    0.27
 -13  25   1   -0.08    0.21
 -11  25   1    0.42    0.24
  -9  25   1    0.02    0.19
  -7  25   1   -0.03    0.20
  -7  25   1    0.10    0.21
  -5  25   1   -0.08    0.21
  -5  25   1    0.05    0.17
  -3  25   1   -0.11    0.17
  -1  25   1    0.17    0.19
   1  25   1   -0.02    0.18
   3  25   1   -0.15    0.18
  -5 -25  -1    0.03    0.17
   5  25   1    0.02    0.18
  -7 -25  -1    0.20    0.20
  -9 -25  -1    0.27    0.22
 -11 -25  -1   -0.16    0.18
 -13 -25  -1    0.12    0.24
 -15 -25  -1    0.02    0.24
 -17 -25  -1   -0.07    0.23
 -19 -25  -1   -0.48    0.27
 -19  27   1   -0.12    0.32
 -19  27   1   -0.49    0.28
 -17  27   1   -0.07    0.30
 -17  27   1    0.01    0.29
 -15  27   1    0.42    0.31
 -15  27   1   -0.04    0.27
 -13  27   1    0.19    0.28
 -13  27   1   -0.11    0.27
 -11  27   1   -0.09    0.23
 -11  27   1    0.06    0.21
  -9  27   1    0.06    0.18
  -7  27   1    0.40    0.25
  -5  27   1    0.21    0.23
  -3  27   1   -0.04    0.18
  -1  27   1    0.06    0.20
   1  27   1   -0.22    0.18
   3  27   1    0.16    0.21
   5  27   1    0.37    0.24
  -7 -27  -1    0.26    0.21
  -9 -27  -1    0.42    0.24
 -11 -27  -1   -0.01    0.23
 -13 -27  -1    0.49    0.30
 -15 -27  -1    0.46    0.27
 -17 -27  -1   -0.04    0.30
 -17  29   1   -0.06    0.30
 -17  29   1   -0.24    0.30
 -15  29   1    0.54    0.37
 -13  29   1    0.22    0.26
 -11  29   1    0.24    0.26
  -9  29   1    0.49    0.27
  -7  29   1    0.02    0.22
  -5  29   1    0.30    0.25
  -3  29   1   -0.25    0.21
  -1  29   1    0.01    0.23
   1  29   1   -0.14    0.21
   3  29   1    0.19    0.23
  -9 -29  -1    0.51    0.30
 -11 -29  -1   -0.02    0.25
 -13 -29  -1   -0.16    0.27
 -15 -29  -1   -0.17    0.28
 -13  31   1    0.36    0.31
 -11  31   1    0.16    0.27
  -9  31   1    0.00    0.22
  -7  31   1    0.78    0.34
  -5  31   1    0.30    0.27
  -3  31   1   -0.05    0.28
  -1  31   1   -0.14    0.23
   1  31   1    0.23    0.27
   3  31   1    0.24    0.25
  -7  33   1   -0.23    0.26
  -5  33   1    0.54    0.32
  -3  33   1    0.07    0.25
  -1  33   1    0.20    0.29
   1  33   1    0.39    0.32
   2  34  -2    6.07    0.68
   0  34  -2    0.09    0.31
  -2  34  -2    5.81    0.65
   4  32  -2   -0.47    0.26
   2  32  -2   -0.40    0.25
   0  32  -2   -0.08    0.28
  -2  32  -2   -0.25    0.26
  -4  32  -2    0.31    0.31
  -6  32  -2   -0.20    0.28
  -8  32  -2   -0.09    0.25
 -10  32  -2   -0.07    0.28
 -14 -30   2    7.55    0.73
 -12 -30   2    0.19    0.31
   4  30  -2    0.22    0.27
   2  30  -2   11.05    0.76
   0  30  -2    0.13    0.24
  -2  30  -2    9.76    0.75
  -4  30  -2   -0.17    0.19
  -6  30  -2    4.67    0.58
  -8  30  -2    0.26    0.25
 -10  30  -2    5.94    0.65
 -12  30  -2    0.12    0.27
 -14  30  -2    6.02    0.70
 -16  30  -2   -0.02    0.33
 -16 -28   2    0.57    0.37
 -14 -28   2    0.08    0.23
 -12 -28   2   -0.11    0.25
 -10 -28   2    0.06    0.24
  -8 -28   2    0.11    0.24
   6  28  -2   -0.22    0.24
   4  28  -2   -0.39    0.20
   2  28  -2    0.45    0.29
   0  28  -2    0.01    0.21
  -2  28  -2    0.08    0.24
  -4  28  -2    0.05    0.24
  -6  28  -2   -0.22    0.21
  -8  28  -2    0.61    0.27
 -10  28  -2   -0.03    0.22
 -12  28  -2    0.08    0.27
 -14  28  -2   -0.09    0.26
 -16  28  -2    0.41    0.39
 -18  28  -2    0.11    0.36
 -18 -26   2    4.36    0.59
 -16 -26   2    0.14    0.24
 -14 -26   2    8.45    0.69
 -12 -26   2    0.31    0.26
 -10 -26   2    6.02    0.56
  -8 -26   2    0.43    0.25
   6  26  -2    5.58    0.52
  -6 -26   2    6.30    0.52
   4  26  -2    0.72    0.26
   2  26  -2   10.62    0.69
   0  26  -2    0.24    0.22
  -2  26  -2   10.36    0.69
  -4  26  -2    0.84    0.29
  -6  26  -2    3.75    0.46
  -8  26  -2    0.50    0.23
 -10  26  -2    6.07    0.58
 -12  26  -2    0.23    0.27
 -14  26  -2    9.31    0.76
 -14  26  -2    9.89    0.74
 -16  26  -2    0.37    0.32
 -16  26  -2    0.05    0.26
 -18  26  -2    4.72    0.62
 -18  26  -2    4.22    0.58
 -20  26  -2    0.12    0.34
 -20  26  -2   -0.02    0.33
 -22  26  -2    4.51    0.65
 -22  26  -2    3.47    0.60
 -20 -24   2    0.49    0.37
 -18 -24   2    0.20    0.27
 -16 -24   2    0.79    0.36
 -14 -24   2   -0.15    0.18
 -12 -24   2    0.29    0.25
 -10 -24   2    0.92    0.29
   8  24  -2    1.31    0.33
  -8 -24   2    1.19    0.31
   6  24  -2    0.93    0.29
  -6 -24   2    0.83    0.27
   4  24  -2    0.48    0.24
  -4 -24   2    0.08    0.21
   2  24  -2    0.88    0.28
   0  24  -2   -0.06    0.20
  -2  24  -2    0.74    0.28
  -4  24  -2    0.48    0.27
  -6  24  -2    1.01    0.32
  -8  24  -2    1.13    0.34
 -10  24  -2    0.75    0.28
 -10  24  -2    0.61    0.28
 -12  24  -2   -0.13    0.25
 -12  24  -2    0.23    0.23
 -14  24  -2    0.14    0.27
 -14  24  -2    0.19    0.26
 -16  24  -2    0.61    0.29
 -16  24  -2    0.55    0.33
 -18  24  -2   -0.09    0.23
 -18  24  -2    0.32    0.31
 -20  24  -2    0.36    0.31
 -20  24  -2    0.95    0.34
 -22  24  -2    0.36    0.31
 -22  24  -2   -0.31    0.28
 -24  24  -2   -0.09    0.33
 -24  24  -2    0.08    0.32
 -22 -22   2    7.43    0.72
 -20 -22   2    0.19    0.27
 -18 -22   2    5.23    0.57
 -16 -22   2    0.41    0.25
 -14 -22   2   10.31    0.70
 -12 -22   2    0.10    0.18
 -10 -22   2   15.43    0.78
   8  22  -2    0.41    0.23
  -8 -22   2    0.82    0.24
   6  22  -2   17.22    0.77
  -6 -22   2   17.07    0.76
   4  22  -2   -0.01    0.17
  -4 -22   2    0.01    0.14
   2  22  -2   22.00    0.90
  -2 -22   2   20.96    0.78
   0  22  -2    5.20    0.47
  -2  22  -2   21.32    0.91
  -4  22  -2    0.18    0.17
  -6  22  -2   16.21    0.81
  -6  22  -2   16.97    0.74
  -8  22  -2    1.06    0.27
  -8  22  -2    0.42    0.21
 -10  22  -2   13.72    0.79
 -10  22  -2   14.48    0.74
 -12  22  -2    0.27    0.24
 -12  22  -2   -0.14    0.18
 -14  22  -2   10.70    0.74
 -14  22  -2    9.60    0.68
 -16  22  -2    0.47    0.26
 -16  22  -2    0.23    0.26
 -18  22  -2    4.45    0.56
 -18  22  -2    5.36    0.59
 -20  22  -2    0.05    0.27
 -20  22  -2    0.17    0.29
 -22  22  -2    7.46    0.71
 -22  22  -2    6.18    0.69
 -24  22  -2    0.50    0.37
 -24  22  -2    0.43    0.37
 -26  22  -2    5.73    0.69
 -26  22  -2    5.46    0.71
 -24 -20   2    0.90    0.32
 -22 -20   2    0.39    0.24
 -20 -20   2    0.79    0.34
 -18 -20   2    0.12    0.20
 -16 -20   2    1.02    0.33
 -14 -20   2    2.58    0.38
 -12 -20   2    0.32    0.21
  10  20  -2   -0.04    0.17
 -10 -20   2    0.04    0.17
   8  20  -2    0.84    0.24
  -8 -20   2    0.28    0.21
   6  20  -2    0.54    0.20
  -6 -20   2    0.85    0.22
   4  20  -2    1.01    0.24
  -4 -20   2    0.45    0.19
   2  20  -2    1.08    0.25
  -2 -20   2    0.85    0.19
   0  20  -2   -0.21    0.16
   0 -20   2   -0.01    0.13
  -2  20  -2    0.76    0.20
  -2  20  -2    0.96    0.25
  -4  20  -2    0.42    0.19
  -4  20  -2    0.88    0.25
  -6  20  -2    0.91    0.24
  -6  20  -2    0.47    0.20
  -8  20  -2    0.04    0.16
  -8  20  -2    0.34    0.18
 -10  20  -2   -0.16    0.19
 -10  20  -2    0.05    0.19
 -12  20  -2    0.18    0.20
 -14  20  -2    2.42    0.38
 -16  20  -2    1.30    0.34
 -18  20  -2    0.05    0.19
 -20  20  -2    1.45    0.41
 -22  20  -2    0.23    0.28
 -24  20  -2    0.28    0.30
 -24  20  -2    0.90    0.41
 -26  20  -2   -0.16    0.26
 -26 -18   2    4.55    0.58
 -24 -18   2    0.10    0.23
 -22 -18   2    4.80    0.55
 -20 -18   2   -0.09    0.14
 -18 -18   2   11.46    0.73
 -16 -18   2    0.24    0.20
 -14 -18   2   17.74    0.83
 -12 -18   2    1.68    0.31
  10  18  -2   15.96    0.66
 -10 -18   2   15.91    0.73
   8  18  -2    0.07    0.15
  -8 -18   2    0.05    0.14
   6  18  -2   16.03    0.66
  -6 -18   2   16.44    0.68
   4  18  -2    2.79    0.30
  -4 -18   2    3.14    0.30
   2  18  -2   26.16    0.74
   2  18  -2   26.84    0.90
  -2 -18   2   27.44    0.81
   0  18  -2    0.50    0.18
   0  18  -2    0.30    0.13
   0 -18   2    0.27    0.12
  -2  18  -2   26.52    0.79
  -2  18  -2   27.34    0.94
   2 -18   2   26.17    0.71
  -4  18  -2    2.63    0.28
  -4  18  -2    3.06    0.34
  -6  18  -2   15.88    0.65
  -6  18  -2   16.52    0.74
  -8  18  -2   -0.16    0.13
 -10  18  -2   16.49    0.74
 -12  18  -2    1.51    0.29
 -14  18  -2   17.34    0.83
 -16  18  -2    0.28    0.23
 -18  18  -2   12.38    0.78
 -20  18  -2    0.11    0.24
 -22  18  -2    4.69    0.57
 -24  18  -2    0.07    0.28
 -26  18  -2    3.50    0.58
 -28  18  -2    0.48    0.37
 -28 -16   2    0.10    0.27
 -26 -16   2    0.48    0.28
 -24 -16   2    0.27    0.27
 -22 -16   2   -0.16    0.17
 -20 -16   2    0.41    0.27
 -18 -16   2    0.10    0.14
 -16 -16   2    0.59    0.28
 -14 -16   2    0.00    0.15
 -12 -16   2    0.76    0.24
  10  16  -2    3.90    0.33
 -10 -16   2    4.07    0.38
   8  16  -2    1.40    0.22
  -8 -16   2    1.37    0.24
   6  16  -2   -0.02    0.12
  -6 -16   2    0.00    0.10
   4  16  -2   -0.03    0.10
   4  16  -2    0.10    0.13
  -4 -16   2   -0.05    0.11
   2  16  -2    1.55    0.26
   2  16  -2    1.45    0.17
  -2 -16   2    1.33    0.19
   0  16  -2   -0.07    0.10
   0  16  -2   -0.21    0.12
   0 -16   2    0.04    0.10
  -2  16  -2    1.09    0.19
  -2  16  -2    1.54    0.24
   2 -16   2    1.08    0.15
  -4  16  -2    0.07    0.12
  -4  16  -2    0.07    0.12
   4 -16   2    0.01    0.08
  -6  16  -2    0.27    0.15
  -8  16  -2    1.30    0.23
 -10  16  -2    3.69    0.36
 -12  16  -2    1.03    0.25
 -14  16  -2   -0.12    0.16
 -16  16  -2    0.83    0.26
 -18  16  -2    0.24    0.19
 -20  16  -2    0.80    0.30
 -22  16  -2    0.39    0.26
 -24  16  -2    0.29    0.26
 -26  16  -2    0.52    0.30
 -28  16  -2    0.68    0.34
 -30  16  -2    0.27    0.31
 -28 -14   2    0.43    0.28
 -26 -14   2    9.34    0.73
 -24 -14   2    0.71    0.26
 -22 -14   2   10.95    0.70
 -20 -14   2    2.49    0.38
 -18 -14   2   17.43    0.82
 -16 -14   2    0.29    0.17
 -14 -14   2   25.77    0.95
  12  14  -2    7.72    0.41
 -12 -14   2    6.83    0.47
  10  14  -2   16.91    0.59
 -10 -14   2   17.40    0.71
   8  14  -2    0.19    0.12
  -8 -14   2    0.16    0.12
   6  14  -2   18.94    0.63
  -6 -14   2   18.49    0.66
   4  14  -2   13.11    0.53
  -4 -14   2   12.58    0.51
   2  14  -2   32.07    0.75
   2  14  -2   29.95    0.86
  -2 -14   2   32.44    0.82
   0  14  -2    6.04    0.38
   0  14  -2    6.04    0.30
   0 -14   2    5.61    0.30
  -2  14  -2   31.80    0.79
  -2  14  -2   32.92    0.93
   2 -14   2   31.10    0.71
  -4  14  -2   13.31    0.51
  -4  14  -2   12.61    0.57
   4 -14   2   13.32    0.39
  -6  14  -2   18.59    0.64
   6 -14   2   19.16    0.42
  -8  14  -2    0.12    0.12
 -10  14  -2   17.07    0.69
 -12  14  -2    7.19    0.49
 -14  14  -2   26.95    0.98
 -16  14  -2    0.15    0.18
 -18  14  -2   17.60    0.88
 -20  14  -2    1.81    0.36
 -22  14  -2   10.03    0.72
 -24  14  -2    0.44    0.29
 -26  14  -2    7.89    0.74
 -28  14  -2    0.28    0.29
 -30  14  -2    8.32    0.82
 -30 -12   2    0.51    0.29
 -28 -12   2    0.11    0.24
 -26 -12   2    0.65    0.28
 -24 -12   2   -0.23    0.18
 -22 -12   2    0.29    0.21
 -20 -12   2    0.24    0.17
 -18 -12   2    2.14    0.32
 -16 -12   2    0.87    0.20
 -16 -12   2    1.07    0.26
 -14 -12   2    7.18    0.48
 -14 -12   2    7.23    0.40
  12  12  -2    0.37    0.14
 -12 -12   2    0.08    0.13
 -12 -12   2    0.54    0.14
  10  12  -2    3.53    0.26
 -10 -12   2    4.61    0.36
   8  12  -2    0.47    0.13
  -8 -12   2    0.41    0.15
   6  12  -2    2.59    0.23
  -6 -12   2    2.29    0.24
   4  12  -2    2.74    0.23
  -4 -12   2    3.08    0.25
   2  12  -2   10.23    0.44
   2  12  -2   10.04    0.36
  -2 -12   2   10.11    0.41
   0  12  -2    0.07    0.11
   0  12  -2    0.16    0.08
   0 -12   2    0.05    0.08
  -2  12  -2    9.54    0.45
  -2  12  -2   10.19    0.39
   2 -12   2    9.62    0.33
  -4  12  -2    2.55    0.22
   4 -12   2    2.52    0.15
  -6  12  -2    2.39    0.23
   6 -12   2    2.49    0.12
  -8  12  -2    0.21    0.12
 -10  12  -2    4.02    0.33
 -12  12  -2    0.24    0.16
 -14  12  -2    7.32    0.49
 -16  12  -2    0.81    0.24
 -18  12  -2    1.66    0.33
 -20  12  -2    0.36    0.22
 -22  12  -2   -0.15    0.19
 -24  12  -2   -0.07    0.20
 -26  12  -2    0.37    0.28
 -28  12  -2    0.29    0.31
 -30  12  -2    0.59    0.36
 -30 -10   2    6.82    0.65
 -28 -10   2    0.27    0.23
 -26 -10   2    5.43    0.55
 -24 -10   2    0.73    0.28
 -22 -10   2   14.96    0.74
 -22 -10   2   13.63    0.75
 -20 -10   2   -0.02    0.16
 -20 -10   2   -0.14    0.14
 -18 -10   2   15.72    0.67
 -18 -10   2   14.09    0.69
 -16 -10   2    3.88    0.32
 -16 -10   2    3.63    0.36
 -14 -10   2   16.91    0.70
 -14 -10   2   16.46    0.59
  12  10  -2    3.22    0.25
 -12 -10   2    3.56    0.32
 -12 -10   2    3.39    0.26
  10  10  -2   22.56    0.60
 -10 -10   2   20.75    0.59
 -10 -10   2   21.54    0.72
   8  10  -2   10.69    0.40
  -8 -10   2   10.45    0.46
   6  10  -2   40.20    0.87
   4  10  -2    2.28    0.20
  -4 -10   2    2.39    0.21
   2  10  -2   43.07    0.81
   2  10  -2   42.84    0.93
  -2 -10   2   43.67    0.90
   0  10  -2   22.28    0.52
   0  10  -2   22.41    0.63
   0 -10   2   20.77    0.53
  -2  10  -2   42.25    0.96
  -2  10  -2   41.57    0.85
   2 -10   2   42.96    0.77
  -4  10  -2    1.94    0.18
   4 -10   2    2.31    0.13
  -6  10  -2   40.66    0.93
   6 -10   2   40.66    0.61
  -8  10  -2   11.21    0.48
 -10  10  -2   22.20    0.74
 -12  10  -2    3.11    0.31
 -14  10  -2   16.69    0.73
 -16  10  -2    4.45    0.43
 -18  10  -2   15.20    0.76
 -20  10  -2   -0.06    0.17
 -22  10  -2   15.62    0.85
 -24  10  -2    1.20    0.33
 -26  10  -2    6.29    0.64
 -28  10  -2    0.21    0.28
 -30  10  -2    7.39    0.76
 -32  10  -2   -0.26    0.29
 -30  -8   2   -0.02    0.23
 -28  -8   2    0.01    0.24
 -26  -8   2    0.34    0.21
 -26  -8   2    0.32    0.26
 -24  -8   2    0.85    0.27
 -24  -8   2    0.99    0.30
 -22  -8   2    1.03    0.28
 -22  -8   2    0.81    0.25
 -20  -8   2    0.38    0.21
 -20  -8   2    0.76    0.25
 -18  -8   2    0.08    0.12
 -18  -8   2    0.08    0.14
 -16  -8   2    1.40    0.24
 -16  -8   2    1.54    0.23
 -14  -8   2    0.06    0.10
 -14  -8   2    0.23    0.13
 -12  -8   2    0.27    0.14
 -12  -8   2    0.44    0.12
  10   8  -2    9.92    0.37
 -10  -8   2   10.75    0.39
 -10  -8   2   11.67    0.49
   8   8  -2    0.10    0.08
  -8  -8   2    0.11    0.06
  -8  -8   2    0.21    0.10
   6   8  -2    0.82    0.12
  -6  -8   2    0.30    0.10
   4   8  -2    0.31    0.09
  -4  -8   2    0.31    0.10
   2   8  -2    0.52    0.11
  -2  -8   2    0.80    0.11
   0   8  -2    0.14    0.08
   0  -8   2    0.17    0.06
  -2   8  -2    0.76    0.12
  -2   8  -2    0.91    0.11
   2  -8   2    0.68    0.08
  -4   8  -2    0.44    0.09
   4  -8   2    0.46    0.05
  -6   8  -2    0.59    0.12
  -8   8  -2    0.08    0.09
 -10   8  -2   10.00    0.47
 -12   8  -2    0.46    0.16
 -14   8  -2    0.11    0.13
 -16   8  -2    0.91    0.25
 -18   8  -2    0.07    0.16
 -20   8  -2    0.64    0.24
 -22   8  -2    0.75    0.29
 -24   8  -2    0.82    0.32
 -26   8  -2    0.01    0.26
 -28   8  -2    0.49    0.32
 -30   8  -2   -0.18    0.29
 -32   8  -2   -0.24    0.31
 -30  -6   2    5.43    0.61
 -28  -6   2    0.05    0.22
 -28  -6   2   -0.01    0.28
 -26  -6   2    5.01    0.53
 -26  -6   2    4.64    0.46
 -24  -6   2    0.29    0.30
 -24  -6   2    0.73    0.23
 -22  -6   2   17.66    0.78
 -22  -6   2   16.50    0.80
 -20  -6   2    0.65    0.23
 -20  -6   2    0.51    0.19
 -18  -6   2   15.17    0.67
 -18  -6   2   15.99    0.67
 -16  -6   2    0.00    0.13
 -16  -6   2   -0.06    0.10
 -14  -6   2   17.93    0.66
 -14  -6   2   18.80    0.63
 -12  -6   2    2.02    0.20
 -12  -6   2    2.06    0.23
 -10  -6   2   39.93    0.94
 -10  -6   2   39.70    0.86
   8   6  -2    0.60    0.10
  -8  -6   2    0.33    0.10
  -8  -6   2    0.64    0.10
   6   6  -2   44.08    0.82
  -6  -6   2   42.81    0.77
  -6  -6   2   43.23    0.90
   4   6  -2    1.91    0.14
  -4  -6   2    2.17    0.17
  -2  -6   2   33.47    0.66
   0   6  -2   17.06    0.44
   0  -6   2   16.06    0.37
  -2   6  -2   31.79    0.69
   2  -6   2   32.05    0.53
  -4   6  -2    1.71    0.14
   4  -6   2    1.86    0.08
  -6   6  -2   46.13    0.95
  -8   6  -2    0.50    0.12
 -10   6  -2   39.37    0.98
  10  -6   2   39.29    0.62
 -12   6  -2    2.11    0.13
 -12   6  -2    1.73    0.23
 -14   6  -2   17.97    0.42
 -14   6  -2   17.53    0.70
 -16   6  -2   -0.01    0.14
 -18   6  -2   15.97    0.75
 -20   6  -2    0.55    0.26
 -22   6  -2   17.86    0.89
 -24   6  -2    0.78    0.30
 -26   6  -2    5.40    0.58
 -28   6  -2   -0.05    0.25
 -30   6  -2    5.92    0.69
 -32   6  -2   -0.56    0.33
 -32  -4   2    0.31    0.35
 -30  -4   2    0.26    0.31
 -28  -4   2   -0.23    0.26
 -26  -4   2    0.65    0.25
 -26  -4   2    0.92    0.30
 -24  -4   2   -0.14    0.20
 -24  -4   2    0.45    0.24
 -22  -4   2    0.09    0.20
 -22  -4   2    0.03    0.14
 -20  -4   2    0.22    0.19
 -20  -4   2    0.41    0.18
 -18  -4   2    2.84    0.31
 -18  -4   2    2.74    0.32
 -16  -4   2    0.11    0.13
 -16  -4   2   -0.11    0.11
 -14  -4   2   14.20    0.55
 -14  -4   2   12.60    0.53
 -12  -4   2    2.69    0.24
 -12  -4   2    2.46    0.23
 -10  -4   2    2.27    0.20
 -10  -4   2    2.08    0.19
  -8  -4   2    0.07    0.06
  -8  -4   2    0.38    0.09
   6   4  -2    1.79    0.14
  -6  -4   2    1.47    0.14
  -4  -4   2    1.08    0.11
  -2  -4   2   16.69    0.38
  -2   4  -2   16.81    0.40
   2  -4   2   17.04    0.30
  -4   4  -2    1.11    0.11
   4  -4   2    0.96    0.06
  -6   4  -2    1.85    0.17
   6  -4   2    1.55    0.07
  -8   4  -2    0.43    0.06
  -8   4  -2    0.26    0.11
 -10   4  -2    2.31    0.23
 -10   4  -2    1.97    0.12
 -12   4  -2    2.26    0.16
 -12   4  -2    2.48    0.26
 -14   4  -2   12.82    0.39
 -14   4  -2   12.78    0.59
 -16   4  -2   -0.19    0.08
 -16   4  -2    0.10    0.16
 -18   4  -2    3.38    0.24
 -18   4  -2    2.28    0.32
 -20   4  -2    0.08    0.18
 -22   4  -2   -0.04    0.19
 -24   4  -2    0.58    0.30
 -26   4  -2    1.11    0.35
 -28   4  -2   -0.21    0.24
 -30   4  -2    0.21    0.30
 -32   4  -2    0.10    0.31
 -34  -2   2    5.63    0.71
 -32  -2   2   -0.10    0.31
 -30  -2   2    8.89    0.75
 -28  -2   2    0.37    0.31
 -26  -2   2   10.64    0.72
 -24  -2   2    0.48    0.21
 -24  -2   2    0.17    0.24
 -22  -2   2   21.08    0.90
 -22  -2   2   21.31    0.80
 -20  -2   2    1.04    0.22
 -20  -2   2    1.02    0.25
 -18  -2   2   25.52    0.82
 -18  -2   2   26.53    0.90
 -16  -2   2    1.22    0.22
 -16  -2   2    1.34    0.20
 -14  -2   2   29.94    0.81
 -14  -2   2   30.70    0.86
 -12  -2   2    8.84    0.39
 -12  -2   2    9.46    0.43
 -10  -2   2   41.96    0.87
 -10  -2   2   39.66    0.89
  -8  -2   2    0.64    0.11
  -8  -2   2    0.54    0.10
  -6  -2   2   32.35    0.65
  -6  -2   2   32.63    0.64
  -2  -2   2   82.28    1.18
   0  -2   2   15.02    0.28
   2  -2   2   78.20    1.09
  -4   2  -2   16.39    0.41
   4  -2   2   16.73    0.30
  -6   2  -2   31.41    0.70
  -6   2  -2   32.22    0.53
  -8   2  -2    0.72    0.08
  -8   2  -2    0.54    0.12
 -10   2  -2   43.17    0.79
 -10   2  -2   42.65    0.99
 -12   2  -2   10.00    0.48
 -12   2  -2    9.54    0.34
 -14   2  -2   32.24    0.94
 -14   2  -2   30.74    0.72
 -16   2  -2    1.45    0.17
 -16   2  -2    1.54    0.26
 -18   2  -2   27.05    0.74
 -18   2  -2   25.48    0.94
 -20   2  -2    1.42    0.21
 -20   2  -2    1.16    0.28
 -22   2  -2   21.85    0.96
 -24   2  -2    0.16    0.27
 -26   2  -2    8.79    0.70
 -28   2  -2    0.59    0.35
 -30   2  -2   10.03    0.82
 -32   2  -2    0.22    0.31
 -34   2  -2    6.85    0.78
 -34   0   2   -0.39    0.33
 -32   0   2    0.23    0.34
 -30   0   2    0.28    0.31
 -28   0   2   -0.09    0.25
 -26   0   2    0.05    0.24
 -24   0   2    0.39    0.27
 -22   0   2    4.69    0.46
 -22   0   2    5.25    0.40
 -20   0   2    0.09    0.17
 -20   0   2   -0.07    0.12
 -18   0   2    0.35    0.14
 -18   0   2    0.28    0.16
 -16   0   2    0.26    0.16
 -16   0   2    0.08    0.11
 -14   0   2    5.67    0.37
 -14   0   2    6.21    0.32
 -12   0   2    0.19    0.10
 -12   0   2   -0.07    0.10
 -10   0   2   22.45    0.56
 -10   0   2   21.80    0.63
  -8   0   2    0.16    0.07
  -8   0   2    0.03    0.07
  -6   0   2   16.60    0.43
  -6   0   2   17.27    0.40
  -4   0   2    0.21    0.05
  -2   0   2   14.81    0.29
   2   0   2   14.72    0.28
  -4   0  -2    0.25    0.04
  -6   0  -2   16.66    0.38
  -6   0  -2   16.65    0.45
  -8   0  -2    0.00    0.06
  -8   0  -2    0.15    0.09
 -10   0  -2   21.77    0.65
 -10   0  -2   21.38    0.53
 -12   0  -2   -0.10    0.07
 -12   0  -2    0.21    0.12
 -14   0  -2    4.70    0.36
 -14   0  -2    6.05    0.31
 -16   0  -2    0.05    0.15
 -18   0  -2    0.34    0.12
 -18   0  -2    0.21    0.17
 -20   0  -2    0.28    0.21
 -20   0  -2   -0.17    0.11
 -22   0  -2    4.22    0.45
 -22   0  -2    5.34    0.39
 -24   0  -2    0.04    0.24
 -26   0  -2    0.17    0.24
 -28   0  -2   -0.12    0.23
 -30   0  -2   -0.31    0.26
 -32   0  -2   -0.09    0.32
 -34   0  -2    0.08    0.34
 -34   2   2    6.94    0.78
 -32   2   2   -0.26    0.29
 -30   2   2    8.88    0.78
 -28   2   2    0.51    0.32
 -26   2   2    8.82    0.69
 -24   2   2    0.33    0.24
 -22   2   2   21.00    0.91
 -20   2   2    0.96    0.25
 -20   2   2    0.99    0.19
 -18   2   2   26.22    0.93
 -18   2   2   26.39    0.76
 -16   2   2    1.21    0.23
 -16   2   2    1.28    0.17
 -14   2   2   32.44    0.76
 -14   2   2   31.92    0.93
 -12   2   2    9.24    0.45
 -12   2   2    9.97    0.36
 -10   2   2   40.23    0.94
 -10   2   2   41.68    0.78
  -8   2   2    0.72    0.09
  -8   2   2    0.58    0.12
  -6   2   2   33.38    0.58
  -6   2   2   32.68    0.70
  -4   2   2   16.28    0.32
  -4   2   2   16.74    0.40
  -2   2   2   78.52    1.11
   0  -2  -2   14.49    0.28
   0   2   2   15.03    0.29
  -2  -2  -2   79.95    1.15
  -4  -2  -2   16.69    0.38
  -4  -2  -2   16.67    0.40
  -6  -2  -2   32.80    0.65
  -6  -2  -2   32.73    0.70
  -8  -2  -2    0.78    0.12
  -8  -2  -2    0.77    0.11
 -10  -2  -2   40.72    0.95
 -10  -2  -2   42.03    0.87
 -12  -2  -2   10.06    0.46
 -12  -2  -2    9.64    0.40
 -14  -2  -2   30.84    0.80
 -14  -2  -2   30.21    0.90
 -16  -2  -2    1.09    0.25
 -16  -2  -2    1.60    0.21
 -18  -2  -2   28.13    0.96
 -18  -2  -2   25.51    0.80
 -20  -2  -2    1.09    0.28
 -20  -2  -2    1.05    0.21
 -22  -2  -2   18.98    0.74
 -22  -2  -2   19.00    0.88
 -24  -2  -2    0.13    0.28
 -24  -2  -2    0.21    0.21
 -26  -2  -2    7.93    0.65
 -28  -2  -2    0.39    0.34
 -30  -2  -2    9.64    0.80
 -32  -2  -2   -0.13    0.33
 -34  -2  -2    5.87    0.73
 -32   4   2   -0.34    0.26
 -30   4   2    0.06    0.30
 -28   4   2    0.41    0.30
 -26   4   2    0.78    0.34
 -24   4   2    0.59    0.28
 -22   4   2    0.13    0.21
 -20   4   2    0.23    0.19
 -18   4   2    2.89    0.34
 -18   4   2    2.95    0.24
 -16   4   2    0.07    0.15
 -16   4   2    0.05    0.09
 -14   4   2   12.07    0.40
 -14   4   2   12.73    0.57
 -12   4   2    2.79    0.27
 -12   4   2    2.38    0.17
 -10   4   2    1.86    0.21
 -10   4   2    2.09    0.14
  -8   4   2    0.36    0.11
  -8   4   2    0.35    0.06
  -6   4   2    1.67    0.10
  -6   4   2    2.12    0.18
  -4   4   2    0.98    0.07
  -4   4   2    0.97    0.11
   2  -4  -2   16.13    0.32
  -2   4   2   16.91    0.41
  -2   4   2   16.82    0.32
   0  -4  -2    0.31    0.05
  -2  -4  -2   17.32    0.39
  -4  -4  -2    0.84    0.10
  -4  -4  -2    0.89    0.10
  -6  -4  -2    2.05    0.15
  -6  -4  -2    1.47    0.14
  -8  -4  -2    0.23    0.09
  -8  -4  -2    0.44    0.10
 -10  -4  -2    2.10    0.20
 -10  -4  -2    1.91    0.19
 -12  -4  -2    2.23    0.22
 -12  -4  -2    3.12    0.27
 -14  -4  -2   11.95    0.54
 -14  -4  -2   11.87    0.50
 -16  -4  -2   -0.05    0.11
 -16  -4  -2   -0.06    0.12
 -18  -4  -2    2.47    0.28
 -18  -4  -2    2.70    0.33
 -20  -4  -2    0.43    0.19
 -20  -4  -2    0.33    0.20
 -22  -4  -2    0.09    0.19
 -22  -4  -2   -0.02    0.14
 -24  -4  -2    0.25    0.22
 -24  -4  -2    0.34    0.26
 -26  -4  -2    1.18    0.27
 -26  -4  -2    0.53    0.28
 -28  -4  -2    0.09    0.26
 -30  -4  -2   -0.08    0.28
 -32  -4  -2   -0.13    0.35
 -32   6   2   -0.32    0.34
 -30   6   2    3.78    0.58
 -28   6   2   -0.14    0.26
 -26   6   2    4.30    0.54
 -24   6   2    0.74    0.30
 -22   6   2   17.21    0.87
 -20   6   2    0.76    0.27
 -18   6   2   17.05    0.78
 -16   6   2   -0.09    0.12
 -16   6   2    0.07    0.09
 -14   6   2   17.60    0.70
 -14   6   2   18.30    0.47
 -12   6   2    1.87    0.14
 -12   6   2    1.87    0.23
 -10   6   2   37.74    0.95
 -10   6   2   38.96    0.66
  -8   6   2    0.63    0.06
  -8   6   2    0.78    0.14
  -6   6   2   45.52    0.96
  -6   6   2   46.18    0.70
  -4   6   2    1.96    0.10
  -4   6   2    1.70    0.15
  -2   6   2   32.67    0.57
  -2   6   2   33.25    0.71
   0  -6  -2   16.34    0.38
  -2  -6  -2   33.80    0.67
  -4  -6  -2    1.89    0.16
  -6  -6  -2   42.72    0.88
  -6  -6  -2   43.50    0.89
  -8  -6  -2    0.90    0.13
  -8  -6  -2    0.87    0.14
 -10  -6  -2   39.48    0.93
 -10  -6  -2   38.52    0.92
 -12  -6  -2    2.43    0.24
 -12  -6  -2    1.69    0.22
 -14  -6  -2   17.94    0.66
 -14  -6  -2   15.94    0.61
 -16  -6  -2    0.04    0.12
 -16  -6  -2    0.04    0.12
 -18  -6  -2   15.39    0.66
 -18  -6  -2   14.70    0.68
 -20  -6  -2    0.88    0.26
 -20  -6  -2    0.88    0.23
 -22  -6  -2   16.34    0.74
 -22  -6  -2   14.37    0.75
 -24  -6  -2    0.88    0.31
 -24  -6  -2    1.15    0.28
 -26  -6  -2    5.12    0.55
 -26  -6  -2    4.34    0.45
 -28  -6  -2    0.08    0.26
 -28  -6  -2    0.09    0.23
 -30  -6  -2    5.11    0.62
 -32  -6  -2    0.25    0.37
 -32   8   2   -0.21    0.35
 -30   8   2   -0.07    0.31
 -28   8   2   -0.07    0.25
 -26   8   2   -0.06    0.25
 -24   8   2    1.19    0.34
 -22   8   2    1.24    0.33
 -20   8   2    0.86    0.29
 -18   8   2    0.27    0.19
 -16   8   2    0.84    0.23
 -14   8   2    0.11    0.14
 -12   8   2    0.54    0.17
 -12   8   2    0.25    0.06
 -10   8   2   10.40    0.48
 -10   8   2   10.49    0.25
   8  -8  -2    0.14    0.04
  -8   8   2    0.10    0.04
  -8   8   2    0.17    0.10
  -6   8   2    0.67    0.13
  -6   8   2    0.46    0.06
  -4   8   2    0.27    0.09
  -4   8   2    0.31    0.06
   2  -8  -2    0.60    0.08
  -2   8   2    0.67    0.12
   0  -8  -2    0.09    0.06
  -2  -8  -2    0.94    0.12
  -4  -8  -2    0.39    0.10
  -6  -8  -2    0.97    0.15
   6   8   2    0.66    0.09
  -8  -8  -2    0.14    0.10
  -8  -8  -2    0.09    0.10
 -10  -8  -2   10.38    0.44
 -10  -8  -2    9.61    0.45
 -12  -8  -2    0.18    0.15
 -12  -8  -2    0.39    0.14
 -14  -8  -2    0.13    0.11
 -14  -8  -2    0.15    0.12
 -16  -8  -2    1.62    0.26
 -16  -8  -2    0.85    0.22
 -18  -8  -2    0.08    0.15
 -18  -8  -2   -0.05    0.10
 -20  -8  -2    0.31    0.21
 -20  -8  -2    0.54    0.22
 -22  -8  -2    0.59    0.22
 -22  -8  -2    1.22    0.30
 -24  -8  -2    1.04    0.32
 -24  -8  -2    1.32    0.34
 -26  -8  -2   -0.07    0.19
 -26  -8  -2    0.19    0.23
 -28  -8  -2   -0.30    0.21
 -28  -8  -2    0.10    0.27
 -30  -8  -2    0.11    0.31
 -32  -8  -2   -0.16    0.35
 -32  10   2   -0.15    0.32
 -30  10   2    7.52    0.77
 -28  10   2    0.16    0.31
 -26  10   2    5.83    0.64
 -24  10   2    0.45    0.29
 -22  10   2   15.98    0.88
 -20  10   2   -0.07    0.17
 -18  10   2   15.79    0.77
 -16  10   2    3.95    0.40
 -14  10   2   17.88    0.74
 -12  10   2    3.24    0.31
 -10  10   2   21.38    0.73
  -8  10   2    9.72    0.46
  -8  10   2   10.54    0.24
  -6  10   2   37.81    0.94
  -6  10   2   40.04    0.66
  -4  10   2    2.26    0.13
  -4  10   2    2.47    0.22
   2 -10  -2   41.60    0.78
  -2  10   2   44.93    0.97
   0 -10  -2   21.63    0.54
  -2 -10  -2   44.49    0.92
  -4 -10  -2    2.03    0.19
  -6 -10  -2   39.34    0.93
   6  10   2   39.44    0.80
  -8 -10  -2    9.42    0.44
   8  10   2   10.23    0.33
 -10 -10  -2   22.37    0.73
 -10 -10  -2   22.80    0.70
  10  10   2   22.12    0.52
 -12 -10  -2    3.97    0.31
 -12 -10  -2    3.62    0.32
 -14 -10  -2   17.21    0.67
 -14 -10  -2   17.11    0.70
 -16 -10  -2    3.70    0.35
 -16 -10  -2    3.46    0.35
 -18 -10  -2   15.70    0.72
 -18 -10  -2   15.57    0.70
 -20 -10  -2    0.16    0.17
 -20 -10  -2    0.12    0.17
 -22 -10  -2   12.83    0.71
 -22 -10  -2   13.93    0.76
 -24 -10  -2    0.49    0.28
 -24 -10  -2    0.35    0.22
 -26 -10  -2    7.12    0.60
 -26 -10  -2    5.20    0.56
 -28 -10  -2   -0.16    0.25
 -28 -10  -2    0.20    0.21
 -30 -10  -2    7.05    0.65
 -30  12   2    0.10    0.31
 -28  12   2    0.19    0.29
 -26  12   2    0.18    0.29
 -24  12   2   -0.11    0.24
 -22  12   2    0.14    0.21
 -20  12   2    0.85    0.26
 -18  12   2    1.93    0.34
 -16  12   2    0.44    0.22
 -14  12   2    6.33    0.48
 -12  12   2    0.57    0.19
 -10  12   2    3.36    0.32
  -8  12   2    0.55    0.16
  -8  12   2    0.28    0.06
  -6  12   2    2.19    0.14
  -6  12   2    2.40    0.25
  -4  12   2    2.80    0.25
  -4  12   2    2.75    0.16
   2 -12  -2    9.68    0.34
  -2  12   2    9.67    0.43
   0 -12  -2   -0.02    0.08
   0  12   2    0.06    0.10
  -2 -12  -2   10.41    0.41
  -4 -12  -2    2.31    0.23
   4  12   2    2.90    0.23
  -6 -12  -2    1.86    0.22
   6  12   2    2.60    0.21
  -8 -12  -2    0.11    0.12
   8  12   2    0.46    0.11
 -10 -12  -2    3.65    0.32
  10  12   2    3.47    0.23
 -12 -12  -2    0.15    0.17
 -12 -12  -2    0.52    0.16
 -14 -12  -2    8.16    0.49
 -14 -12  -2    6.61    0.44
 -16 -12  -2    1.25    0.25
 -16 -12  -2    1.01    0.25
 -18 -12  -2    1.48    0.28
 -18 -12  -2    1.72    0.29
 -20 -12  -2    0.33    0.20
 -20 -12  -2    0.34    0.21
 -22 -12  -2    0.00    0.22
 -22 -12  -2    0.15    0.19
 -24 -12  -2   -0.24    0.17
 -24 -12  -2    0.13    0.25
 -26 -12  -2    0.57    0.26
 -28 -12  -2   -0.13    0.24
 -30 -12  -2    0.21    0.26
 -30  14   2    6.00    0.73
 -28  14   2   -0.02    0.33
 -26  14   2    8.57    0.76
 -24  14   2    0.65    0.29
 -22  14   2   10.69    0.75
 -20  14   2    1.54    0.35
 -18  14   2   16.49    0.83
 -16  14   2   -0.12    0.16
 -14  14   2   24.49    0.94
 -12  14   2    7.26    0.49
 -10  14   2   17.39    0.72
  -8  14   2    0.05    0.11
  -6  14   2   18.49    0.68
  -6  14   2   17.73    0.44
  -4  14   2   12.41    0.53
   2 -14  -2   31.82    0.72
  -2  14   2   31.95    0.87
   0 -14  -2    6.53    0.32
   0  14   2    6.87    0.38
  -2 -14  -2   31.20    0.81
  -4 -14  -2   13.36    0.53
   4  14   2   13.65    0.52
  -6 -14  -2   18.31    0.65
   6  14   2   18.11    0.58
  -8 -14  -2    0.10    0.11
   8  14   2    0.10    0.10
 -10 -14  -2   17.35    0.70
  10  14   2   18.10    0.56
 -12 -14  -2    7.68    0.48
 -14 -14  -2   23.99    0.90
 -16 -14  -2   -0.04    0.13
 -16 -14  -2   -0.18    0.12
 -18 -14  -2   18.09    0.79
 -18 -14  -2   16.54    0.80
 -20 -14  -2    2.02    0.36
 -20 -14  -2    2.57    0.37
 -22 -14  -2   10.25    0.68
 -24 -14  -2    0.09    0.21
 -26 -14  -2    8.52    0.69
 -28 -14  -2    0.07    0.25
 -30  16   2    0.35    0.32
 -28  16   2    0.23    0.32
 -26  16   2    0.43    0.30
 -24  16   2    0.65    0.31
 -22  16   2   -0.31    0.18
 -20  16   2    1.56    0.36
 -18  16   2    0.01    0.16
 -16  16   2    0.90    0.28
 -14  16   2    0.31    0.19
 -12  16   2    1.14    0.26
 -10  16   2    3.46    0.36
  -8  16   2    1.14    0.24
  -6  16   2    0.11    0.14
   4 -16  -2    0.10    0.09
  -4  16   2   -0.03    0.12
   2 -16  -2    1.86    0.19
  -2  16   2    1.33    0.21
   0  16   2   -0.05    0.11
  -2 -16  -2    1.46    0.20
  -4 -16  -2   -0.16    0.12
   4  16   2   -0.03    0.11
  -6 -16  -2   -0.13    0.09
   6  16   2    0.02    0.11
  -8 -16  -2    0.82    0.24
   8  16   2    1.16    0.20
 -10 -16  -2    2.82    0.32
 -12 -16  -2    0.85    0.25
 -14 -16  -2   -0.05    0.14
 -16 -16  -2    0.88    0.30
 -18 -16  -2    0.31    0.19
 -20 -16  -2    0.63    0.27
 -22 -16  -2    0.51    0.24
 -24 -16  -2    0.32    0.27
 -26 -16  -2    0.01    0.24
 -28 -16  -2    0.65    0.33
 -28  18   2   -0.51    0.25
 -26  18   2    3.81    0.59
 -24  18   2    0.16    0.28
 -22  18   2    5.47    0.61
 -20  18   2    0.22    0.24
 -18  18   2   10.82    0.74
 -16  18   2    0.08    0.20
 -14  18   2   16.49    0.82
 -12  18   2    1.84    0.32
 -10  18   2   15.81    0.75
  -8  18   2   -0.02    0.15
  -6  18   2   16.30    0.71
  -4  18   2    3.26    0.33
   2 -18  -2   25.73    0.72
  -2  18   2   27.60    0.87
   0 -18  -2    0.42    0.14
   0  18   2    0.30    0.16
  -2 -18  -2   25.97    0.80
   2  18   2   27.95    0.87
   2  18   2   27.49    0.88
  -4 -18  -2    2.40    0.28
   4  18   2    2.68    0.29
  -6 -18  -2   17.44    0.71
   6  18   2   17.49    0.67
  -8 -18  -2   -0.02    0.12
   8  18   2    0.11    0.14
 -10 -18  -2   16.50    0.74
 -12 -18  -2    2.50    0.34
 -14 -18  -2   16.93    0.81
 -16 -18  -2   -0.16    0.17
 -18 -18  -2   11.88    0.74
 -20 -18  -2    0.10    0.19
 -22 -18  -2    6.07    0.61
 -24 -18  -2    0.20    0.22
 -26 -18  -2    3.82    0.53
 -26  20   2    0.08    0.30
 -24  20   2    1.02    0.41
 -22  20   2    0.09    0.26
 -20  20   2    1.47    0.38
 -18  20   2    0.25    0.23
 -16  20   2    0.86    0.29
 -14  20   2    1.76    0.34
 -12  20   2    0.99    0.28
 -10  20   2    0.22    0.18
  -8  20   2    0.74    0.24
  -6  20   2    0.52    0.22
  -4  20   2    0.38    0.19
  -2  20   2    0.90    0.23
   0 -20  -2    0.10    0.13
   0  20   2    0.07    0.14
   0  20   2   -0.04    0.14
  -2 -20  -2    0.90    0.21
   2  20   2    1.35    0.25
   2  20   2    0.83    0.21
  -4 -20  -2    0.45    0.20
   4  20   2    0.64    0.20
   4  20   2    0.26    0.18
  -6 -20  -2    0.47    0.19
   6  20   2    0.61    0.22
  -8 -20  -2    0.46    0.23
   8  20   2    0.30    0.19
 -10 -20  -2   -0.13    0.15
 -12 -20  -2    0.67    0.24
 -14 -20  -2    2.24    0.37
 -16 -20  -2    0.74    0.29
 -18 -20  -2    0.02    0.19
 -20 -20  -2    0.88    0.34
 -22 -20  -2    0.08    0.19
 -24 -20  -2    0.16    0.30
 -26  22   2    4.15    0.67
 -24  22   2   -0.19    0.26
 -22  22   2    6.50    0.68
 -20  22   2    0.09    0.25
 -18  22   2    4.74    0.56
 -16  22   2    0.36    0.27
 -14  22   2    9.24    0.67
 -12  22   2    0.38    0.22
 -10  22   2   14.36    0.77
  -8  22   2    0.34    0.20
  -6  22   2   16.63    0.77
  -4  22   2   -0.12    0.14
  -2  22   2   19.41    0.79
   0  22   2    4.94    0.45
   0  22   2    5.07    0.42
  -2 -22  -2   21.38    0.78
   2  22   2   20.15    0.81
   2  22   2   21.94    0.87
  -4 -22  -2    0.21    0.16
   4  22   2   -0.08    0.15
  -6 -22  -2   16.58    0.75
   6  22   2   18.46    0.78
  -8 -22  -2    1.03    0.27
 -10 -22  -2   14.51    0.76
 -12 -22  -2    0.37    0.22
 -14 -22  -2    8.69    0.64
 -16 -22  -2    0.24    0.23
 -18 -22  -2    6.72    0.63
 -20 -22  -2   -0.03    0.22
 -22 -22  -2    6.48    0.69
 -24  24   2    0.28    0.36
 -22  24   2    0.14    0.30
 -20  24   2    0.99    0.37
 -18  24   2   -0.28    0.21
 -16  24   2    0.26    0.28
 -14  24   2   -0.12    0.22
 -12  24   2    0.81    0.28
 -10  24   2    0.60    0.27
  -8  24   2    1.98    0.35
  -6  24   2    0.32    0.26
  -4  24   2    0.67    0.28
  -4  24   2    0.22    0.23
  -2  24   2    0.38    0.22
  -2  24   2    0.31    0.25
   0  24   2   -0.09    0.21
   2  24   2    0.16    0.20
  -4 -24  -2    0.30    0.23
   4  24   2    0.27    0.25
  -6 -24  -2    0.36    0.22
   6  24   2    0.70    0.28
  -8 -24  -2    0.26    0.24
 -10 -24  -2    0.79    0.27
 -12 -24  -2   -0.17    0.19
 -14 -24  -2    0.31    0.25
 -16 -24  -2    0.80    0.34
 -18 -24  -2    0.32    0.27
 -20 -24  -2    0.18    0.34
 -22  26   2    5.87    0.71
 -20  26   2    0.50    0.35
 -18  26   2    4.41    0.61
 -16  26   2   -0.16    0.25
 -14  26   2    8.83    0.73
 -12  26   2    0.31    0.26
 -10  26   2    6.35    0.57
  -8  26   2    0.00    0.22
  -6  26   2    5.08    0.49
  -6  26   2    5.18    0.54
  -4  26   2    0.62    0.26
  -2  26   2    9.76    0.66
   0  26   2    0.29    0.22
   2  26   2   10.00    0.66
   4  26   2    1.17    0.29
  -6 -26  -2    4.53    0.45
  -8 -26  -2    0.09    0.21
 -10 -26  -2    6.23    0.56
 -12 -26  -2    0.42    0.24
 -14 -26  -2    9.53    0.73
 -16 -26  -2    0.57    0.28
 -18 -26  -2    4.34    0.60
 -18  28   2    0.27    0.36
 -16  28   2    0.52    0.33
 -14  28   2    0.30    0.30
 -12  28   2    0.34    0.26
 -12  28   2   -0.04    0.24
 -10  28   2   -0.15    0.19
  -8  28   2   -0.05    0.25
  -6  28   2    0.26    0.27
  -4  28   2   -0.22    0.21
  -2  28   2    0.56    0.28
   0  28   2    0.02    0.25
   2  28   2    0.19    0.24
   4  28   2   -0.14    0.25
  -8 -28  -2    0.09    0.26
 -10 -28  -2    0.24    0.26
 -12 -28  -2   -0.06    0.24
 -14 -28  -2   -0.02    0.26
 -16 -28  -2    0.22    0.33
 -16  30   2    0.05    0.38
 -14  30   2    6.74    0.70
 -12  30   2   -0.10    0.22
 -10  30   2    6.55    0.68
  -8  30   2   -0.06    0.24
  -6  30   2    4.29    0.54
  -4  30   2    0.33    0.24
  -2  30   2    9.19    0.70
   0  30   2    0.40    0.27
   2  30   2    9.11    0.70
 -10 -30  -2    6.55    0.63
 -12 -30  -2   -0.12    0.28
 -10  32   2   -0.26    0.24
  -8  32   2    0.25    0.30
  -6  32   2    0.26    0.29
  -4  32   2   -0.14    0.24
  -2  32   2    0.26    0.29
   0  32   2   -0.02    0.28
   2  32   2   -0.01    0.29
  -2  34   2    7.79    0.75
   0  34   2    0.19    0.29
   3  33  -3    0.22    0.30
   1  33  -3    0.31    0.31
  -1  33  -3    0.30    0.30
  -3  33  -3   -0.25    0.25
  -5  33  -3    0.22    0.29
  -7  33  -3    0.05    0.29
   5  31  -3    0.15    0.28
   3  31  -3    0.22    0.30
   1  31  -3   -0.02    0.24
  -1  31  -3   -0.01    0.25
  -3  31  -3    0.17    0.24
  -5  31  -3   -0.06    0.28
  -7  31  -3   -0.08    0.27
  -9  31  -3   -0.19    0.21
 -11  31  -3   -0.08    0.25
 -13  31  -3   -0.23    0.34
 -15 -29   3   -0.39    0.22
 -13 -29   3   -0.38    0.25
 -11 -29   3   -0.04    0.27
   5  29  -3    0.04    0.23
   3  29  -3    0.03    0.22
   1  29  -3    0.33    0.26
  -1  29  -3   -0.01    0.22
  -3  29  -3   -0.20    0.22
  -5  29  -3   -0.01    0.21
  -7  29  -3   -0.12    0.19
  -9  29  -3   -0.03    0.25
 -11  29  -3    0.20    0.28
 -13  29  -3   -0.21    0.26
 -15  29  -3    0.56    0.35
 -17  29  -3    0.07    0.35
 -17 -27   3   -0.07    0.27
 -15 -27   3    0.14    0.25
 -13 -27   3    0.21    0.27
 -11 -27   3   -0.12    0.23
  -9 -27   3   -0.15    0.21
   7  27  -3    0.02    0.21
  -7 -27   3    0.22    0.22
   5  27  -3   -0.08    0.22
   3  27  -3    0.15    0.21
   1  27  -3   -0.22    0.16
  -1  27  -3   -0.10    0.20
  -3  27  -3    0.05    0.21
  -5  27  -3    0.09    0.22
  -7  27  -3   -0.01    0.21
  -9  27  -3    0.20    0.23
 -11  27  -3   -0.09    0.25
 -13  27  -3    0.20    0.30
 -15  27  -3    0.34    0.31
 -17  27  -3    0.02    0.28
 -19  27  -3   -0.02    0.33
 -19 -25   3   -0.04    0.27
 -17 -25   3    0.46    0.30
 -15 -25   3   -0.13    0.22
 -13 -25   3   -0.20    0.19
 -11 -25   3   -0.02    0.22
  -9 -25   3   -0.13    0.19
   7  25  -3   -0.01    0.21
  -7 -25   3   -0.05    0.17
   5  25  -3    0.02    0.19
  -5 -25   3    0.00    0.19
   3  25  -3   -0.07    0.19
   1  25  -3    0.09    0.18
  -1  25  -3    0.11    0.17
  -3  25  -3   -0.04    0.20
  -5  25  -3   -0.05    0.18
  -7  25  -3   -0.13    0.17
  -9  25  -3    0.19    0.21
 -11  25  -3   -0.11    0.21
 -13  25  -3   -0.25    0.24
 -15  25  -3    0.05    0.30
 -15  25  -3   -0.20    0.24
 -17  25  -3    0.35    0.28
 -17  25  -3   -0.08    0.29
 -19  25  -3   -0.07    0.30
 -19  25  -3   -0.22    0.30
 -21  25  -3    0.38    0.34
 -21  25  -3   -0.17    0.31
 -23  25  -3   -0.30    0.32
 -23  25  -3   -0.36    0.31
 -21 -23   3   -0.13    0.27
 -19 -23   3   -0.02    0.23
 -17 -23   3    0.71    0.31
 -15 -23   3    0.09    0.21
 -13 -23   3    0.14    0.20
 -11 -23   3    0.23    0.22
   9  23  -3   -0.18    0.21
  -9 -23   3   -0.01    0.17
   7  23  -3   -0.06    0.18
  -7 -23   3    0.01    0.15
   5  23  -3    0.81    0.26
  -5 -23   3    0.94    0.25
   3  23  -3    0.17    0.19
  -3 -23   3    0.13    0.16
   1  23  -3    1.07    0.28
  -1  23  -3    1.06    0.29
  -3  23  -3   -0.11    0.15
  -5  23  -3    0.76    0.25
  -7  23  -3    0.20    0.18
  -9  23  -3   -0.08    0.19
  -9  23  -3   -0.01    0.20
 -11  23  -3   -0.02    0.22
 -11  23  -3   -0.33    0.18
 -13  23  -3    0.50    0.27
 -13  23  -3    0.14    0.21
 -15  23  -3    0.24    0.24
 -15  23  -3    0.04    0.20
 -17  23  -3    0.51    0.30
 -17  23  -3    0.64    0.30
 -19  23  -3    0.07    0.26
 -19  23  -3    0.20    0.30
 -21  23  -3   -0.12    0.29
 -21  23  -3   -0.21    0.27
 -23  23  -3   -0.17    0.28
 -23  23  -3   -0.07    0.31
 -25  23  -3   -0.15    0.36
 -25  23  -3   -0.25    0.32
 -23 -21   3    0.37    0.25
 -21 -21   3    0.08    0.27
 -19 -21   3    0.03    0.20
 -17 -21   3   -0.10    0.18
 -15 -21   3    0.67    0.27
 -13 -21   3   -0.10    0.17
 -11 -21   3    0.62    0.24
   9  21  -3    0.57    0.23
  -9 -21   3    0.52    0.23
   7  21  -3   -0.09    0.15
  -7 -21   3    0.00    0.14
   5  21  -3   -0.15    0.16
  -5 -21   3   -0.01    0.13
   3  21  -3    0.37    0.20
  -3 -21   3    0.00    0.14
   1  21  -3    0.59    0.22
  -1 -21   3    0.05    0.13
  -1  21  -3    0.26    0.19
  -3  21  -3    0.24    0.18
  -5  21  -3   -0.08    0.14
  -5  21  -3    0.16    0.16
  -7  21  -3    0.22    0.17
  -7  21  -3   -0.16    0.17
  -9  21  -3    0.30    0.21
  -9  21  -3    0.19    0.22
 -11  21  -3    0.96    0.27
 -11  21  -3    1.00    0.30
 -13  21  -3    0.23    0.24
 -13  21  -3   -0.26    0.16
 -15  21  -3    0.58    0.30
 -15  21  -3    0.40    0.25
 -17  21  -3    0.18    0.25
 -17  21  -3    0.06    0.24
 -19  21  -3    0.30    0.28
 -19  21  -3    0.01    0.27
 -21  21  -3   -0.21    0.21
 -21  21  -3   -0.21    0.24
 -23  21  -3   -0.32    0.27
 -23  21  -3   -0.07    0.29
 -25  21  -3   -0.03    0.30
 -25  21  -3   -0.13    0.31
 -25 -19   3    0.04    0.21
 -23 -19   3    0.27    0.24
 -21 -19   3    0.20    0.21
 -19 -19   3    0.05    0.20
 -17 -19   3    0.11    0.19
 -15 -19   3    0.09    0.18
 -13 -19   3   -0.21    0.14
  11  19  -3    0.16    0.17
 -11 -19   3    0.21    0.17
   9  19  -3    0.24    0.20
  -9 -19   3   -0.02    0.13
   7  19  -3    0.59    0.20
  -7 -19   3    0.51    0.20
   5  19  -3    0.34    0.19
  -5 -19   3    0.18    0.15
   3  19  -3    0.02    0.14
  -3 -19   3   -0.12    0.10
   1  19  -3    2.61    0.33
  -1 -19   3    0.99    0.19
  -1  19  -3    1.69    0.29
  -1  19  -3    2.32    0.25
   1 -19   3    1.35    0.20
  -3  19  -3   -0.09    0.15
  -3  19  -3    0.12    0.13
  -5  19  -3    0.48    0.18
  -5  19  -3    0.42    0.20
  -7  19  -3    0.39    0.18
  -7  19  -3    0.38    0.19
  -9  19  -3    0.20    0.19
  -9  19  -3    0.07    0.16
 -11  19  -3    0.20    0.20
 -11  19  -3    0.37    0.22
 -13  19  -3    0.05    0.19
 -13  19  -3   -0.15    0.17
 -15  19  -3    0.11    0.20
 -15  19  -3   -0.03    0.19
 -17  19  -3    0.03    0.21
 -19  19  -3    0.11    0.22
 -19  19  -3    0.18    0.25
 -21  19  -3   -0.04    0.25
 -21  19  -3    0.03    0.26
 -23  19  -3   -0.18    0.28
 -23  19  -3    0.24    0.29
 -25  19  -3   -0.24    0.29
 -25  19  -3    0.01    0.29
 -27  19  -3    0.18    0.31
 -27 -17   3   -0.01    0.23
 -25 -17   3    0.01    0.19
 -23 -17   3    0.49    0.27
 -21 -17   3    0.21    0.19
 -19 -17   3   -0.07    0.15
 -17 -17   3   -0.15    0.16
 -15 -17   3    0.22    0.19
 -13 -17   3    0.01    0.16
  11  17  -3    0.50    0.18
 -11 -17   3    0.55    0.20
   9  17  -3    1.77    0.25
  -9 -17   3    1.97    0.29
   7  17  -3    1.09    0.22
  -7 -17   3    1.42    0.25
   5  17  -3    2.03    0.26
  -5 -17   3    1.83    0.26
   3  17  -3   -0.04    0.09
   3  17  -3    0.05    0.12
  -3 -17   3   -0.03    0.10
   1  17  -3    0.59    0.14
   1  17  -3    0.15    0.13
  -1 -17   3    0.50    0.15
  -1  17  -3    0.55    0.14
  -1  17  -3    0.38    0.18
   1 -17   3    0.25    0.11
  -3  17  -3   -0.04    0.14
  -3  17  -3   -0.02    0.11
   3 -17   3    0.02    0.09
  -5  17  -3    1.79    0.28
  -5  17  -3    2.06    0.24
  -7  17  -3    1.31    0.26
  -7  17  -3    1.68    0.25
  -9  17  -3    2.65    0.30
  -9  17  -3    2.98    0.36
 -11  17  -3    0.35    0.19
 -13  17  -3    0.34    0.18
 -15  17  -3    0.53    0.22
 -17  17  -3    0.00    0.21
 -19  17  -3   -0.27    0.17
 -21  17  -3   -0.23    0.20
 -23  17  -3    0.66    0.32
 -25  17  -3   -0.14    0.22
 -27  17  -3   -0.23    0.27
 -29  17  -3   -0.03    0.29
 -27 -15   3   -0.01    0.21
 -25 -15   3    0.02    0.21
 -23 -15   3    0.00    0.17
 -21 -15   3    0.39    0.21
 -19 -15   3   -0.09    0.13
 -17 -15   3    0.61    0.21
 -15 -15   3   -0.07    0.14
 -13 -15   3    0.39    0.18
  11  15  -3    0.04    0.14
 -11 -15   3    0.10    0.13
   9  15  -3    0.35    0.16
  -9 -15   3    0.39    0.15
   7  15  -3    0.26    0.14
  -7 -15   3    0.43    0.15
   5  15  -3    0.26    0.14
  -5 -15   3    0.50    0.15
   3  15  -3    0.01    0.08
   3  15  -3   -0.03    0.10
  -3 -15   3    0.01    0.09
   1  15  -3    3.61    0.24
   1  15  -3    3.92    0.33
  -1 -15   3    3.62    0.27
  -1  15  -3    3.85    0.26
  -1  15  -3    2.91    0.29
   1 -15   3    3.88    0.25
  -3  15  -3    0.06    0.12
  -3  15  -3   -0.12    0.08
   3 -15   3    0.01    0.07
  -5  15  -3    0.08    0.13
  -5  15  -3   -0.07    0.10
   5 -15   3    0.20    0.08
  -7  15  -3    0.43    0.17
  -7  15  -3    0.36    0.15
  -9  15  -3    0.38    0.18
 -11  15  -3    0.13    0.17
 -13  15  -3    0.44    0.20
 -15  15  -3   -0.04    0.19
 -17  15  -3    0.02    0.19
 -19  15  -3    0.08    0.21
 -21  15  -3    0.34    0.26
 -23  15  -3    0.03    0.23
 -25  15  -3    0.40    0.30
 -27  15  -3    0.21    0.30
 -29  15  -3    0.34    0.31
 -29 -13   3   -0.05    0.25
 -27 -13   3    0.12    0.21
 -25 -13   3    0.05    0.20
 -23 -13   3    0.39    0.21
 -21 -13   3    0.17    0.18
 -19 -13   3   -0.17    0.11
 -17 -13   3    0.34    0.20
 -15 -13   3    0.46    0.18
  13  13  -3    0.03    0.12
 -13 -13   3   -0.12    0.11
  11  13  -3    2.59    0.25
 -11 -13   3    2.00    0.28
   9  13  -3    0.24    0.13
  -9 -13   3    0.26    0.13
   7  13  -3    0.82    0.16
  -7 -13   3    1.16    0.20
   5  13  -3    0.05    0.09
  -5 -13   3    0.04    0.08
   3  13  -3    0.02    0.09
   3  13  -3    0.05    0.06
  -3 -13   3   -0.03    0.07
   1  13  -3    0.87    0.17
   1  13  -3    0.64    0.11
  -1 -13   3    0.64    0.13
  -1  13  -3    0.74    0.17
  -1  13  -3    0.47    0.11
   1 -13   3    0.39    0.10
  -3  13  -3    0.07    0.09
  -3  13  -3   -0.02    0.11
   3 -13   3   -0.01    0.06
  -5  13  -3    0.03    0.09
  -5  13  -3    0.06    0.10
   5 -13   3   -0.03    0.05
  -7  13  -3    1.01    0.18
   7 -13   3    0.85    0.08
  -9  13  -3    0.18    0.12
 -11  13  -3    2.29    0.28
 -13  13  -3    0.24    0.17
 -15  13  -3    0.26    0.21
 -17  13  -3    0.32    0.21
 -19  13  -3    0.04    0.20
 -21  13  -3   -0.03    0.16
 -23  13  -3    0.35    0.24
 -25  13  -3   -0.09    0.22
 -27  13  -3    0.32    0.30
 -29  13  -3   -0.22    0.26
 -31  13  -3   -0.06    0.28
 -31 -11   3    0.34    0.29
 -29 -11   3   -0.21    0.20
 -27 -11   3    0.31    0.22
 -25 -11   3   -0.08    0.17
 -23 -11   3    0.09    0.16
 -21 -11   3    0.78    0.23
 -19 -11   3    0.47    0.19
 -17 -11   3    0.55    0.18
 -17 -11   3    0.44    0.18
 -15 -11   3    0.09    0.12
 -15 -11   3   -0.02    0.12
  13  11  -3    2.38    0.24
 -13 -11   3    2.13    0.27
 -13 -11   3    2.39    0.22
  11  11  -3    0.06    0.10
 -11 -11   3    0.06    0.09
 -11 -11   3   -0.01    0.09
   9  11  -3    1.41    0.18
  -9 -11   3    1.11    0.20
   7  11  -3   -0.05    0.08
  -7 -11   3   -0.05    0.06
   5  11  -3    6.21    0.33
  -5 -11   3    7.08    0.36
   3  11  -3    0.06    0.05
   3  11  -3   -0.05    0.08
  -3 -11   3    0.67    0.13
   1  11  -3   40.09    0.76
   1  11  -3   39.50    0.94
  -1 -11   3   40.59    0.85
  -1  11  -3   40.68    0.97
  -1  11  -3   41.05    0.82
   1 -11   3   41.05    0.81
  -3  11  -3   -0.03    0.07
  -3  11  -3   -0.08    0.07
   3 -11   3   -0.02    0.05
  -5  11  -3    6.46    0.37
  -5  11  -3    6.81    0.33
   5 -11   3    6.58    0.21
  -7  11  -3    0.08    0.11
  -9  11  -3    1.51    0.22
 -11  11  -3    0.10    0.14
 -13  11  -3    2.16    0.29
 -15  11  -3    0.25    0.18
 -17  11  -3    0.07    0.17
 -19  11  -3    0.43    0.22
 -21  11  -3    0.92    0.30
 -23  11  -3    0.35    0.24
 -25  11  -3   -0.17    0.20
 -27  11  -3   -0.01    0.24
 -29  11  -3   -0.12    0.24
 -31  11  -3    0.29    0.34
 -31  -9   3   -0.08    0.23
 -29  -9   3    0.27    0.26
 -27  -9   3    0.19    0.21
 -25  -9   3    0.01    0.18
 -23  -9   3   -0.10    0.15
 -21  -9   3    0.20    0.18
 -21  -9   3    0.19    0.20
 -19  -9   3    0.15    0.16
 -19  -9   3    0.18    0.15
 -17  -9   3    2.40    0.28
 -17  -9   3    2.03    0.30
 -15  -9   3    0.90    0.21
 -15  -9   3    0.51    0.15
 -13  -9   3    0.30    0.14
 -13  -9   3    0.27    0.12
  11   9  -3    1.18    0.17
 -11  -9   3    1.20    0.16
 -11  -9   3    1.03    0.20
   9   9  -3    0.02    0.08
  -9  -9   3    0.00    0.06
  -9  -9   3   -0.05    0.08
   7   9  -3    0.17    0.10
  -7  -9   3    0.15    0.10
   5   9  -3    0.06    0.08
  -5  -9   3    0.17    0.08
   3   9  -3    0.08    0.07
  -3  -9   3   -0.01    0.05
   1   9  -3    0.12    0.08
  -1  -9   3    0.12    0.07
  -1   9  -3    0.19    0.09
  -1   9  -3    0.28    0.07
   1  -9   3    0.37    0.08
  -3   9  -3    0.03    0.06
  -3   9  -3    0.07    0.07
   3  -9   3    0.00    0.04
  -5   9  -3    0.07    0.07
  -5   9  -3    0.13    0.09
   5  -9   3    0.08    0.04
  -7   9  -3    0.19    0.10
  -9   9  -3   -0.09    0.07
 -11   9  -3    1.15    0.22
 -13   9  -3    0.20    0.16
 -15   9  -3    0.22    0.18
 -17   9  -3    2.62    0.36
 -19   9  -3   -0.02    0.17
 -21   9  -3    0.16    0.17
 -23   9  -3    0.24    0.23
 -25   9  -3    0.59    0.28
 -27   9  -3    0.06    0.23
 -29   9  -3    0.28    0.30
 -31   9  -3    0.17    0.33
 -29  -7   3    0.14    0.23
 -27  -7   3    0.12    0.21
 -25  -7   3    0.07    0.18
 -25  -7   3   -0.08    0.19
 -23  -7   3   -0.04    0.15
 -23  -7   3   -0.04    0.19
 -21  -7   3    0.11    0.16
 -21  -7   3   -0.15    0.13
 -19  -7   3    0.35    0.19
 -19  -7   3    0.57    0.20
 -17  -7   3    1.51    0.24
 -17  -7   3    1.84    0.27
 -15  -7   3    0.35    0.15
 -15  -7   3    0.19    0.13
 -13  -7   3    0.92    0.18
 -13  -7   3    1.05    0.16
 -11  -7   3    0.00    0.08
 -11  -7   3    0.05    0.08
   9   7  -3    0.08    0.08
  -9  -7   3    0.19    0.10
  -9  -7   3    0.17    0.07
   7   7  -3    0.05    0.07
  -7  -7   3   -0.04    0.05
  -7  -7   3    0.01    0.05
   5   7  -3    0.68    0.11
  -5  -7   3    0.54    0.11
   3   7  -3   -0.06    0.06
  -3  -7   3    0.06    0.06
   1   7  -3   24.60    0.59
  -1  -7   3   24.68    0.54
  -1   7  -3   25.80    0.63
   1  -7   3   24.87    0.51
  -3   7  -3    0.09    0.06
  -3   7  -3   -0.01    0.06
   3  -7   3    0.04    0.04
  -5   7  -3    0.57    0.11
  -5   7  -3    0.56    0.12
   5  -7   3    0.67    0.06
  -7   7  -3    0.03    0.07
   7  -7   3    0.05    0.03
  -9   7  -3    0.00    0.09
   9  -7   3    0.12    0.04
 -11   7  -3    0.12    0.11
  11  -7   3   -0.01    0.04
 -13   7  -3    0.81    0.20
  13  -7   3    0.76    0.09
 -15   7  -3    0.44    0.18
 -17   7  -3    0.68    0.24
 -19   7  -3    0.45    0.22
 -21   7  -3   -0.20    0.16
 -23   7  -3   -0.02    0.21
 -25   7  -3   -0.11    0.21
 -27   7  -3    0.24    0.26
 -29   7  -3    0.04    0.26
 -31   7  -3   -0.32    0.30
 -33   7  -3   -0.22    0.35
 -29  -5   3    0.66    0.30
 -27  -5   3    0.36    0.28
 -27  -5   3    0.10    0.20
 -25  -5   3    0.35    0.26
 -25  -5   3    0.13    0.20
 -23  -5   3    0.97    0.29
 -23  -5   3    0.74    0.23
 -21  -5   3   -0.07    0.14
 -21  -5   3   -0.06    0.15
 -19  -5   3    0.31    0.17
 -19  -5   3    0.77    0.21
 -17  -5   3    1.94    0.26
 -17  -5   3    1.74    0.24
 -15  -5   3    0.29    0.14
 -15  -5   3    0.14    0.13
 -13  -5   3    0.08    0.10
 -13  -5   3   -0.01    0.10
 -11  -5   3    6.37    0.35
 -11  -5   3    6.58    0.32
  -9  -5   3    0.21    0.09
  -9  -5   3    0.11    0.07
   7   5  -3    0.85    0.12
  -7  -5   3    0.44    0.08
  -7  -5   3    0.37    0.10
   5   5  -3    0.04    0.06
  -5  -5   3   -0.09    0.03
   3   5  -3    0.20    0.07
  -3  -5   3    0.01    0.04
   1   5  -3    2.13    0.15
  -1  -5   3    2.51    0.14
  -1   5  -3    2.16    0.15
   1  -5   3    2.28    0.12
  -3   5  -3    0.05    0.05
  -3   5  -3   -0.02    0.04
   3  -5   3    0.09    0.03
  -5   5  -3    0.11    0.07
  -5   5  -3    0.04    0.06
   5  -5   3    0.06    0.03
  -7   5  -3    0.62    0.13
   7  -5   3    0.48    0.06
  -9   5  -3    0.04    0.08
   9  -5   3    0.10    0.04
 -11   5  -3    6.40    0.38
 -11   5  -3    6.36    0.21
 -13   5  -3    0.11    0.07
 -13   5  -3    0.18    0.13
 -15   5  -3    0.07    0.14
 -15   5  -3    0.27    0.09
 -17   5  -3    1.53    0.28
 -19   5  -3    0.57    0.24
 -21   5  -3   -0.05    0.20
 -23   5  -3    1.39    0.35
 -25   5  -3    0.08    0.23
 -27   5  -3    0.21    0.26
 -29   5  -3   -0.06    0.28
 -31   5  -3    0.17    0.34
 -33   5  -3   -0.11    0.33
 -33  -3   3    0.59    0.40
 -31  -3   3   -0.08    0.28
 -29  -3   3   -0.16    0.26
 -27  -3   3    0.10    0.24
 -25  -3   3   -0.02    0.21
 -25  -3   3   -0.13    0.17
 -23  -3   3   -0.07    0.15
 -23  -3   3    0.02    0.21
 -21  -3   3    0.16    0.14
 -21  -3   3   -0.03    0.16
 -19  -3   3    0.07    0.14
 -19  -3   3    0.02    0.12
 -17  -3   3    0.08    0.11
 -17  -3   3    0.01    0.12
 -15  -3   3    0.02    0.10
 -15  -3   3   -0.01    0.10
 -13  -3   3   -0.06    0.08
 -13  -3   3    0.12    0.09
 -11  -3   3    0.03    0.08
 -11  -3   3    0.02    0.07
  -9  -3   3   -0.03    0.07
  -9  -3   3   -0.01    0.06
  -7  -3   3    0.07    0.06
  -7  -3   3   -0.03    0.05
   5   3  -3    0.15    0.06
  -5  -3   3    0.15    0.06
   3   3  -3    0.16    0.05
  -3  -3   3    0.17    0.05
  -1  -3   3    0.10    0.04
   1  -3   3    0.03    0.03
  -3   3  -3    0.09    0.05
   3  -3   3    0.13    0.04
  -5   3  -3   -0.03    0.05
  -5   3  -3    0.08    0.05
   5  -3   3    0.04    0.03
  -7   3  -3   -0.05    0.06
   7  -3   3    0.01    0.03
  -9   3  -3    0.02    0.04
  -9   3  -3    0.01    0.07
 -11   3  -3    0.22    0.11
 -11   3  -3    0.01    0.05
 -13   3  -3    0.00    0.10
 -13   3  -3   -0.02    0.06
 -15   3  -3    0.03    0.12
 -15   3  -3   -0.03    0.08
 -17   3  -3   -0.01    0.13
 -17   3  -3   -0.03    0.09
 -19   3  -3   -0.19    0.12
 -19   3  -3    0.03    0.11
 -21   3  -3    0.14    0.19
 -23   3  -3    0.21    0.24
 -25   3  -3    0.20    0.24
 -27   3  -3   -0.21    0.24
 -29   3  -3   -0.04    0.29
 -31   3  -3    0.22    0.35
 -33   3  -3   -0.05    0.31
 -33  -1   3    0.11    0.34
 -31  -1   3   -0.11    0.29
 -29  -1   3    0.14    0.30
 -27  -1   3    0.01    0.24
 -25  -1   3   -0.03    0.18
 -23  -1   3    1.58    0.26
 -23  -1   3    1.61    0.32
 -21  -1   3    0.00    0.19
 -21  -1   3    0.38    0.17
 -19  -1   3    1.32    0.22
 -19  -1   3    1.21    0.25
 -17  -1   3    0.10    0.15
 -17  -1   3    0.45    0.15
 -15  -1   3    3.95    0.28
 -15  -1   3    3.52    0.31
 -13  -1   3    0.76    0.17
 -13  -1   3    0.80    0.15
 -11  -1   3   42.07    0.89
 -11  -1   3   40.99    0.95
  -9  -1   3    0.07    0.08
  -9  -1   3    0.31    0.08
  -7  -1   3   24.95    0.57
  -7  -1   3   24.08    0.55
  -5  -1   3    2.29    0.14
  -3  -1   3    0.05    0.03
  -1  -1   3    0.02    0.03
   1  -1   3    0.08    0.03
  -3   1  -3    0.05    0.02
   3  -1   3    0.04    0.03
  -5   1  -3    1.91    0.15
  -5   1  -3    2.23    0.11
  -7   1  -3   24.28    0.49
  -7   1  -3   23.65    0.61
  -9   1  -3    0.16    0.06
  -9   1  -3    0.39    0.12
 -11   1  -3   41.69    0.82
 -11   1  -3   40.72    1.00
 -13   1  -3    0.22    0.12
 -13   1  -3    0.73    0.12
 -15   1  -3    3.86    0.35
 -15   1  -3    4.00    0.26
 -17   1  -3    0.56    0.19
 -17   1  -3    0.62    0.15
 -19   1  -3    1.32    0.28
 -19   1  -3    1.57    0.21
 -21   1  -3    0.31    0.16
 -21   1  -3    0.36    0.23
 -23   1  -3    0.85    0.31
 -25   1  -3   -0.13    0.22
 -27   1  -3   -0.07    0.24
 -29   1  -3   -0.03    0.28
 -31   1  -3    0.07    0.32
 -33   1  -3    0.64    0.40
 -33   1   3    0.54    0.41
 -31   1   3    0.09    0.32
 -29   1   3   -0.30    0.25
 -27   1   3    0.24    0.26
 -25   1   3   -0.22    0.19
 -23   1   3    1.13    0.31
 -21   1   3    0.12    0.13
 -21   1   3    0.18    0.19
 -19   1   3    1.51    0.29
 -19   1   3    1.76    0.23
 -17   1   3    0.40    0.19
 -17   1   3    0.43    0.13
 -15   1   3    4.11    0.28
 -15   1   3    4.00    0.35
 -13   1   3    0.57    0.12
 -13   1   3    0.52    0.15
 -11   1   3   41.27    0.84
 -11   1   3   40.42    0.95
  -9   1   3    0.03    0.07
  -9   1   3    0.29    0.08
  -7   1   3   25.34    0.60
  -7   1   3   24.33    0.53
  -5   1   3    2.41    0.15
  -5   1   3    2.17    0.13
  -3   1   3    0.03    0.03
  -1   1   3   -0.01    0.02
  -1  -1  -3    0.04    0.02
   1   1   3    0.08    0.03
  -3  -1  -3    0.04    0.03
   3   1   3    0.07    0.03
  -5  -1  -3    2.14    0.16
  -5  -1  -3    1.76    0.12
  -7  -1  -3   24.92    0.55
  -7  -1  -3   24.27    0.61
  -9  -1  -3    0.10    0.07
  -9  -1  -3    0.24    0.11
 -11  -1  -3   41.66    0.88
 -11  -1  -3   40.99    1.00
 -13  -1  -3    0.35    0.15
 -13  -1  -3    0.51    0.12
 -15  -1  -3    3.59    0.27
 -15  -1  -3    3.73    0.34
 -17  -1  -3    0.49    0.20
 -17  -1  -3    0.41    0.14
 -19  -1  -3    1.35    0.27
 -19  -1  -3    1.61    0.23
 -21  -1  -3    0.23    0.20
 -21  -1  -3    0.17    0.14
 -23  -1  -3    1.13    0.31
 -23  -1  -3    1.43    0.25
 -25  -1  -3   -0.30    0.20
 -27  -1  -3    0.01    0.25
 -29  -1  -3    0.02    0.26
 -31  -1  -3    0.00    0.31
 -33  -1  -3    0.05    0.34
 -33   3   3   -0.38    0.33
 -31   3   3    0.27    0.31
 -29   3   3    0.05    0.26
 -27   3   3   -0.10    0.19
 -25   3   3   -0.19    0.19
 -23   3   3   -0.05    0.20
 -21   3   3    0.06    0.16
 -19   3   3    0.04    0.18
 -19   3   3    0.10    0.13
 -17   3   3   -0.11    0.13
 -17   3   3    0.01    0.10
 -15   3   3   -0.06    0.07
 -15   3   3   -0.03    0.10
 -13   3   3   -0.11    0.06
 -13   3   3    0.02    0.10
 -11   3   3    0.07    0.06
 -11   3   3   -0.11    0.07
  -9   3   3   -0.06    0.04
  -9   3   3   -0.07    0.06
  -7   3   3    0.03    0.04
  -7   3   3    0.00    0.05
  -5   3   3    0.03    0.04
  -5   3   3    0.06    0.05
  -3   3   3    0.18    0.05
  -3   3   3    0.21    0.06
   1  -3  -3    0.05    0.03
  -1   3   3    0.08    0.03
   1   3   3    0.05    0.03
  -3  -3  -3    0.01    0.04
  -3  -3  -3    0.08    0.04
  -5  -3  -3    0.06    0.05
  -5  -3  -3    0.01    0.05
  -7  -3  -3   -0.02    0.07
  -7  -3  -3    0.02    0.05
  -9  -3  -3   -0.04    0.05
  -9  -3  -3   -0.03    0.06
 -11  -3  -3   -0.08    0.09
 -11  -3  -3   -0.06    0.07
 -13  -3  -3    0.00    0.09
 -13  -3  -3   -0.06    0.08
 -15  -3  -3   -0.12    0.11
 -15  -3  -3   -0.07    0.08
 -17  -3  -3    0.05    0.12
 -17  -3  -3    0.09    0.11
 -19  -3  -3    0.09    0.15
 -19  -3  -3   -0.13    0.11
 -21  -3  -3   -0.05    0.18
 -21  -3  -3    0.10    0.13
 -23  -3  -3    0.03    0.20
 -23  -3  -3    0.04    0.14
 -25  -3  -3   -0.13    0.15
 -25  -3  -3   -0.07    0.21
 -27  -3  -3   -0.03    0.23
 -29  -3  -3    0.16    0.29
 -31  -3  -3    0.12    0.32
 -33  -3  -3   -0.14    0.35
 -33   5   3   -0.09    0.34
 -31   5   3   -0.13    0.30
 -29   5   3    0.30    0.30
 -27   5   3    0.18    0.26
 -25   5   3    0.20    0.23
 -23   5   3    1.02    0.32
 -21   5   3   -0.09    0.18
 -19   5   3    0.18    0.19
 -17   5   3    2.02    0.20
 -17   5   3    1.28    0.26
 -15   5   3    0.35    0.16
 -15   5   3    0.24    0.09
 -13   5   3    0.04    0.07
 -13   5   3    0.09    0.11
 -11   5   3    6.61    0.25
 -11   5   3    6.02    0.36
  -9   5   3    0.07    0.08
  -9   5   3    0.10    0.06
  -7   5   3    0.49    0.11
  -7   5   3    0.65    0.08
  -5   5   3    0.11    0.07
  -5   5   3    0.09    0.05
   3  -5  -3    0.13    0.04
  -3   5   3    0.07    0.04
  -3   5   3    0.16    0.07
  -1   5   3    1.96    0.12
  -1  -5  -3    2.17    0.13
  -3  -5  -3    0.00    0.04
  -5  -5  -3    0.05    0.06
  -5  -5  -3    0.06    0.06
  -7  -5  -3    0.39    0.10
  -7  -5  -3    0.36    0.09
  -9  -5  -3    0.12    0.08
  -9  -5  -3    0.12    0.07
 -11  -5  -3    6.14    0.36
 -11  -5  -3    6.53    0.35
 -13  -5  -3    0.06    0.09
 -13  -5  -3   -0.03    0.10
 -15  -5  -3    0.05    0.13
 -15  -5  -3    0.25    0.12
 -17  -5  -3    1.47    0.26
 -17  -5  -3    2.11    0.26
 -19  -5  -3    1.12    0.22
 -19  -5  -3    0.33    0.17
 -21  -5  -3   -0.13    0.14
 -21  -5  -3    0.10    0.15
 -23  -5  -3    0.95    0.24
 -23  -5  -3    0.66    0.27
 -25  -5  -3   -0.06    0.16
 -25  -5  -3    0.03    0.19
 -27  -5  -3   -0.04    0.26
 -27  -5  -3    0.05    0.20
 -29  -5  -3    0.02    0.29
 -31  -5  -3    0.26    0.33
 -33  -5  -3    0.46    0.35
 -33   7   3    0.63    0.38
 -31   7   3   -0.09    0.32
 -29   7   3    0.02    0.28
 -27   7   3    0.17    0.29
 -25   7   3   -0.22    0.19
 -23   7   3    0.08    0.22
 -21   7   3   -0.23    0.17
 -19   7   3    0.71    0.25
 -17   7   3    1.41    0.27
 -15   7   3    0.58    0.19
 -15   7   3    0.14    0.08
 -13   7   3    0.32    0.17
 -13   7   3    0.64    0.11
 -11   7   3    0.10    0.11
 -11   7   3    0.01    0.06
  -9   7   3    0.06    0.05
  -9   7   3    0.08    0.10
  -7   7   3    0.07    0.04
  -7   7   3   -0.09    0.06
   5  -7  -3    0.44    0.06
  -5   7   3    0.34    0.10
  -5   7   3    0.60    0.08
  -3   7   3   -0.01    0.04
  -3   7   3    0.08    0.07
   1  -7  -3   24.55    0.51
  -1   7   3   24.41    0.51
  -1  -7  -3   25.22    0.55
  -3  -7  -3   -0.05    0.04
  -5  -7  -3    0.26    0.09
  -7  -7  -3   -0.03    0.05
  -7  -7  -3    0.00    0.06
  -9  -7  -3    0.08    0.09
  -9  -7  -3    0.08    0.09
 -11  -7  -3    0.01    0.08
 -11  -7  -3   -0.13    0.08
 -13  -7  -3    0.62    0.17
 -13  -7  -3    1.22    0.20
 -15  -7  -3    0.51    0.15
 -15  -7  -3    0.27    0.15
 -17  -7  -3    1.79    0.27
 -17  -7  -3    1.47    0.24
 -19  -7  -3    0.37    0.20
 -19  -7  -3    0.27    0.16
 -21  -7  -3   -0.10    0.16
 -21  -7  -3    0.07    0.14
 -23  -7  -3    0.02    0.16
 -23  -7  -3   -0.31    0.18
 -25  -7  -3   -0.04    0.22
 -25  -7  -3    0.07    0.18
 -27  -7  -3    0.29    0.30
 -27  -7  -3    0.10    0.21
 -29  -7  -3    0.00    0.30
 -31  -7  -3   -0.04    0.33
 -33  -7  -3    0.27    0.40
 -31   9   3   -0.33    0.31
 -29   9   3    0.08    0.29
 -27   9   3    0.15    0.27
 -25   9   3    0.38    0.28
 -23   9   3    0.08    0.21
 -21   9   3    0.51    0.24
 -19   9   3   -0.06    0.18
 -17   9   3    2.81    0.37
 -15   9   3    1.02    0.24
 -13   9   3    0.36    0.16
 -11   9   3    1.43    0.10
 -11   9   3    1.63    0.23
   9  -9  -3    0.01    0.04
  -9   9   3    0.00    0.04
  -9   9   3   -0.01    0.09
  -7   9   3    0.04    0.08
  -7   9   3    0.14    0.05
  -5   9   3    0.02    0.08
  -5   9   3    0.11    0.05
  -3   9   3   -0.10    0.05
  -3   9   3    0.07    0.05
   1  -9  -3    0.18    0.07
  -1  -9  -3    0.36    0.09
  -3  -9  -3    0.02    0.06
  -5  -9  -3    0.15    0.08
  -7  -9  -3    0.08    0.08
   7   9   3    0.11    0.06
  -9  -9  -3    0.07    0.08
  -9  -9  -3   -0.06    0.07
 -11  -9  -3    1.18    0.20
 -11  -9  -3    1.00    0.18
 -13  -9  -3    0.32    0.14
 -13  -9  -3    0.18    0.12
 -15  -9  -3    0.40    0.17
 -15  -9  -3    0.64    0.19
 -17  -9  -3    2.35    0.30
 -17  -9  -3    2.93    0.33
 -19  -9  -3    0.23    0.19
 -19  -9  -3    0.04    0.14
 -21  -9  -3    0.37    0.22
 -21  -9  -3    0.33    0.20
 -23  -9  -3   -0.07    0.15
 -23  -9  -3   -0.03    0.20
 -25  -9  -3    0.25    0.20
 -25  -9  -3   -0.11    0.26
 -27  -9  -3   -0.16    0.19
 -27  -9  -3   -0.03    0.26
 -29  -9  -3    0.21    0.30
 -29  -9  -3   -0.18    0.21
 -31  -9  -3   -0.08    0.33
 -31  11   3    0.04    0.33
 -29  11   3   -0.14    0.29
 -27  11   3   -0.07    0.27
 -25  11   3   -0.15    0.27
 -23  11   3    0.30    0.23
 -21  11   3    1.16    0.33
 -19  11   3    0.43    0.22
 -17  11   3    0.37    0.23
 -15  11   3   -0.01    0.15
 -13  11   3    2.25    0.30
 -11  11   3   -0.11    0.10
  -9  11   3    1.23    0.22
  -9  11   3    1.47    0.11
  -7  11   3    0.21    0.12
  -7  11   3    0.07    0.06
  -5  11   3    6.45    0.24
  -5  11   3    6.54    0.36
  -3  11   3    0.00    0.06
  -3  11   3    0.04    0.07
   1 -11  -3   41.11    0.83
  -1  11   3   41.55    0.98
  -1 -11  -3   40.01    0.85
  -3 -11  -3    0.08    0.07
  -5 -11  -3    6.72    0.36
  -7 -11  -3    0.02    0.08
   7  11   3   -0.01    0.07
  -9 -11  -3    1.60    0.22
   9  11   3    1.20    0.13
 -11 -11  -3    0.11    0.10
 -11 -11  -3    0.00    0.09
 -13 -11  -3    2.18    0.27
 -13 -11  -3    2.70    0.29
 -15 -11  -3    0.00    0.10
 -15 -11  -3    0.02    0.12
 -17 -11  -3    0.67    0.21
 -17 -11  -3    0.40    0.17
 -19 -11  -3    0.49    0.21
 -19 -11  -3    0.38    0.18
 -21 -11  -3    1.22    0.30
 -21 -11  -3    0.85    0.24
 -23 -11  -3   -0.11    0.22
 -23 -11  -3    0.20    0.19
 -25 -11  -3   -0.09    0.23
 -25 -11  -3   -0.06    0.19
 -27 -11  -3   -0.05    0.20
 -27 -11  -3   -0.03    0.25
 -29 -11  -3   -0.02    0.20
 -31 -11  -3    0.36    0.28
 -31  13   3    0.57    0.38
 -29  13   3   -0.04    0.32
 -27  13   3    0.30    0.32
 -25  13   3    0.11    0.28
 -23  13   3    0.26    0.26
 -21  13   3    0.04    0.19
 -19  13   3   -0.03    0.15
 -17  13   3    0.20    0.19
 -15  13   3    0.38    0.22
 -13  13   3    0.15    0.15
 -11  13   3    2.04    0.29
  -9  13   3    0.15    0.13
  -7  13   3    0.90    0.10
  -7  13   3    1.12    0.20
  -5  13   3    0.04    0.10
  -5  13   3    0.05    0.07
  -3  13   3    0.03    0.09
  -3  13   3   -0.04    0.06
   1 -13  -3    0.81    0.13
  -1  13   3    0.71    0.16
  -1 -13  -3    0.56    0.12
  -3 -13  -3    0.03    0.08
  -5 -13  -3    0.09    0.08
   5  13   3    0.08    0.10
  -7 -13  -3    0.70    0.16
   7  13   3    1.00    0.15
  -9 -13  -3    0.26    0.13
   9  13   3    0.31    0.11
 -11 -13  -3    2.79    0.31
 -13 -13  -3    0.17    0.13
 -15 -13  -3    0.35    0.18
 -15 -13  -3    0.73    0.21
 -17 -13  -3    0.26    0.17
 -17 -13  -3   -0.07    0.16
 -19 -13  -3   -0.01    0.18
 -19 -13  -3    0.06    0.14
 -21 -13  -3   -0.03    0.16
 -21 -13  -3    0.21    0.25
 -23 -13  -3    0.26    0.26
 -23 -13  -3    0.16    0.19
 -25 -13  -3    0.04    0.21
 -27 -13  -3   -0.28    0.20
 -29 -13  -3    0.22    0.26
 -29  15   3    0.14    0.38
 -27  15   3    0.04    0.28
 -25  15   3    0.02    0.26
 -23  15   3    0.08    0.24
 -21  15   3    0.13    0.23
 -19  15   3    0.06    0.22
 -17  15   3   -0.13    0.18
 -15  15   3    0.14    0.18
 -13  15   3    0.47    0.22
 -11  15   3    0.14    0.18
  -9  15   3    0.24    0.17
  -7  15   3    0.09    0.13
  -5  15   3    0.24    0.09
  -5  15   3    0.32    0.15
   3 -15  -3    0.04    0.08
  -3  15   3    0.19    0.12
   1 -15  -3    3.86    0.27
  -1  15   3    4.25    0.33
  -1 -15  -3    3.77    0.27
  -3 -15  -3    0.01    0.09
  -5 -15  -3    0.34    0.13
   5  15   3    0.42    0.14
  -7 -15  -3    0.20    0.13
   7  15   3    0.39    0.13
  -9 -15  -3    0.81    0.21
   9  15   3    0.72    0.15
 -11 -15  -3    0.12    0.14
 -13 -15  -3    0.30    0.16
 -15 -15  -3    0.02    0.15
 -17 -15  -3    0.16    0.15
 -19 -15  -3   -0.06    0.14
 -19 -15  -3   -0.06    0.18
 -21 -15  -3    0.26    0.19
 -23 -15  -3    0.22    0.20
 -25 -15  -3    0.36    0.26
 -27 -15  -3    0.06    0.22
 -29  17   3    0.29    0.32
 -27  17   3   -0.27    0.24
 -25  17   3    0.30    0.31
 -23  17   3    1.23    0.36
 -21  17   3   -0.11    0.21
 -19  17   3   -0.05    0.18
 -17  17   3   -0.05    0.18
 -15  17   3    0.27    0.21
 -13  17   3    0.17    0.17
 -11  17   3    0.57    0.22
  -9  17   3    2.02    0.30
  -7  17   3    1.83    0.27
  -5  17   3    2.10    0.28
  -5  17   3    2.08    0.19
   3 -17  -3    0.03    0.09
  -3  17   3   -0.04    0.11
   1 -17  -3    0.32    0.12
  -1  17   3    0.25    0.14
  -1 -17  -3    0.61    0.15
   1  17   3    0.02    0.13
  -3 -17  -3    0.16    0.11
  -5 -17  -3    2.23    0.27
   5  17   3    1.91    0.24
  -7 -17  -3    1.19    0.23
   7  17   3    1.70    0.23
  -9 -17  -3    2.81    0.33
   9  17   3    2.50    0.25
 -11 -17  -3    0.86    0.23
 -13 -17  -3    0.03    0.17
 -15 -17  -3    0.44    0.21
 -17 -17  -3    0.08    0.18
 -19 -17  -3   -0.15    0.14
 -21 -17  -3   -0.22    0.15
 -23 -17  -3    0.96    0.30
 -25 -17  -3    0.07    0.22
 -27 -17  -3    0.12    0.25
 -27  19   3    0.59    0.34
 -25  19   3   -0.41    0.19
 -23  19   3    0.10    0.21
 -21  19   3   -0.08    0.26
 -19  19   3    0.22    0.22
 -17  19   3   -0.13    0.21
 -15  19   3   -0.03    0.16
 -13  19   3    0.23    0.20
 -11  19   3    0.39    0.21
  -9  19   3    0.16    0.20
  -7  19   3    0.48    0.21
  -5  19   3    0.39    0.19
  -3  19   3    0.02    0.15
   1 -19  -3    2.41    0.26
  -1  19   3    1.53    0.25
  -1 -19  -3    1.53    0.22
   1  19   3    1.33    0.25
  -3 -19  -3    0.08    0.13
   3  19   3    0.04    0.14
  -5 -19  -3    0.36    0.17
   5  19   3    0.57    0.19
  -7 -19  -3    0.33    0.16
   7  19   3    0.31    0.18
  -9 -19  -3    0.34    0.19
 -11 -19  -3    0.37    0.20
 -13 -19  -3   -0.06    0.16
 -15 -19  -3    0.10    0.18
 -17 -19  -3   -0.19    0.17
 -19 -19  -3    0.15    0.20
 -21 -19  -3    0.56    0.23
 -23 -19  -3    0.20    0.24
 -25 -19  -3    0.10    0.24
 -25  21   3    0.41    0.35
 -23  21   3   -0.14    0.27
 -21  21   3   -0.26    0.22
 -19  21   3    0.12    0.28
 -17  21   3    0.03    0.21
 -15  21   3    0.55    0.25
 -13  21   3    0.08    0.20
 -11  21   3    0.99    0.29
  -9  21   3    0.41    0.22
  -7  21   3    0.15    0.16
  -5  21   3   -0.06    0.15
  -3  21   3   -0.14    0.14
  -1  21   3    0.34    0.18
  -1 -21  -3    0.22    0.14
   1  21   3    0.43    0.20
   1  21   3    0.28    0.21
  -3 -21  -3    0.11    0.15
   3  21   3   -0.17    0.14
   3  21   3    0.07    0.16
  -5 -21  -3   -0.10    0.12
   5  21   3    0.09    0.15
  -7 -21  -3    0.13    0.15
   7  21   3    0.12    0.16
  -9 -21  -3    0.27    0.19
 -11 -21  -3    1.37    0.30
 -13 -21  -3    0.04    0.19
 -15 -21  -3    0.24    0.22
 -17 -21  -3    0.34    0.24
 -19 -21  -3   -0.06    0.20
 -21 -21  -3   -0.04    0.23
 -23 -21  -3    0.05    0.24
 -25  23   3   -0.13    0.27
 -23  23   3   -0.01    0.26
 -21  23   3   -0.02    0.26
 -19  23   3    0.27    0.28
 -17  23   3    0.41    0.30
 -15  23   3    0.17    0.24
 -13  23   3    0.40    0.28
 -11  23   3    0.01    0.21
  -9  23   3   -0.05    0.19
  -7  23   3   -0.15    0.16
  -5  23   3    0.37    0.23
  -3  23   3   -0.12    0.18
  -1  23   3    1.42    0.28
   1  23   3    1.99    0.32
   1  23   3    1.67    0.30
  -3 -23  -3    0.26    0.18
   3  23   3    0.01    0.19
   3  23   3    0.31    0.21
  -5 -23  -3    1.37    0.28
   5  23   3    0.90    0.25
  -7 -23  -3    0.10    0.17
  -9 -23  -3   -0.05    0.17
 -11 -23  -3    0.38    0.22
 -13 -23  -3    0.22    0.23
 -15 -23  -3    0.16    0.21
 -17 -23  -3    0.31    0.27
 -19 -23  -3    0.37    0.24
 -21 -23  -3   -0.15    0.22
 -23  25   3   -0.01    0.32
 -21  25   3    0.00    0.31
 -19  25   3    0.09    0.31
 -17  25   3    0.14    0.29
 -15  25   3   -0.28    0.22
 -13  25   3   -0.06    0.20
 -11  25   3    0.03    0.20
  -9  25   3    0.41    0.23
  -7  25   3   -0.04    0.18
  -5  25   3    0.16    0.19
  -3  25   3   -0.30    0.16
  -3  25   3    0.07    0.17
  -1  25   3    0.11    0.21
  -1  25   3    0.08    0.18
   1  25   3    0.06    0.19
   3  25   3    0.08    0.18
  -5 -25  -3    0.24    0.19
   5  25   3    0.07    0.21
  -7 -25  -3    0.18    0.20
  -9 -25  -3   -0.11    0.18
 -11 -25  -3   -0.07    0.17
 -13 -25  -3    0.22    0.25
 -15 -25  -3   -0.01    0.23
 -17 -25  -3    0.18    0.23
 -19 -25  -3   -0.19    0.26
 -19  27   3   -0.34    0.27
 -17  27   3    0.01    0.29
 -15  27   3   -0.15    0.26
 -13  27   3    0.17    0.28
 -11  27   3   -0.38    0.19
  -9  27   3   -0.04    0.21
  -7  27   3    0.08    0.23
  -5  27   3    0.22    0.22
  -3  27   3    0.16    0.23
  -1  27   3    0.19    0.21
   1  27   3    0.01    0.19
   3  27   3    0.17    0.22
  -7 -27  -3   -0.39    0.17
  -9 -27  -3    0.02    0.21
 -11 -27  -3   -0.04    0.21
 -13 -27  -3   -0.11    0.25
 -15 -27  -3    0.07    0.24
 -17 -27  -3    0.15    0.29
 -17  29   3   -0.03    0.29
 -15  29   3   -0.01    0.30
 -13  29   3   -0.04    0.27
 -11  29   3   -0.18    0.23
  -9  29   3    0.07    0.22
  -7  29   3   -0.07    0.20
  -5  29   3    0.16    0.20
  -3  29   3    0.11    0.24
  -1  29   3    0.12    0.25
   1  29   3    0.11    0.23
   3  29   3   -0.22    0.20
  -9 -29  -3    0.01    0.25
 -11 -29  -3    0.04    0.27
 -13 -29  -3   -0.31    0.27
 -13  31   3   -0.02    0.26
 -11  31   3    0.27    0.29
  -9  31   3    0.52    0.28
  -7  31   3   -0.10    0.20
  -5  31   3    0.16    0.27
  -3  31   3    0.31    0.28
  -1  31   3    0.06    0.23
   1  31   3    0.22    0.25
  -7  33   3    0.30    0.28
  -5  33   3   -0.21    0.26
  -3  33   3   -0.39    0.21
  -1  33   3   -0.28    0.27
   1  33   3    0.08    0.30
   4  32  -4   16.80    1.01
   2  32  -4    0.16    0.30
   0  32  -4   18.03    1.04
  -2  32  -4   -0.15    0.23
  -4  32  -4   17.31    1.04
  -6  32  -4   -0.03    0.26
  -8  32  -4   15.23    1.00
 -10  32  -4    0.53    0.31
 -12 -30   4   -0.08    0.28
   6  30  -4   -0.18    0.25
   4  30  -4    0.38    0.27
   2  30  -4    0.02    0.25
   0  30  -4   -0.31    0.21
  -2  30  -4   -0.09    0.23
  -4  30  -4    0.20    0.25
  -6  30  -4    0.35    0.26
  -8  30  -4    0.01    0.21
 -10  30  -4    1.16    0.37
 -12  30  -4    0.02    0.29
 -14  30  -4    0.13    0.33
 -16 -28   4   18.04    1.07
 -14 -28   4    0.14    0.28
 -12 -28   4   21.01    1.06
 -10 -28   4   -0.19    0.22
   6  28  -4    0.16    0.26
   4  28  -4   20.50    1.00
   2  28  -4    0.07    0.23
   0  28  -4   28.55    1.21
  -2  28  -4    0.26    0.27
  -4  28  -4   19.94    1.03
  -6  28  -4   -0.05    0.20
  -8  28  -4   29.40    1.29
 -10  28  -4    0.36    0.27
 -12  28  -4   17.51    1.05
 -14  28  -4    0.01    0.30
 -16  28  -4   19.61    1.14
 -18  28  -4    0.12    0.36
 -18 -26   4   -0.03    0.28
 -16 -26   4    0.29    0.26
 -14 -26   4    1.98    0.40
 -12 -26   4    0.29    0.26
 -10 -26   4   -0.06    0.20
   8  26  -4    0.04    0.22
  -8 -26   4    0.27    0.23
   6  26  -4    1.34    0.33
  -6 -26   4    1.72    0.33
   4  26  -4   -0.05    0.20
   2  26  -4    0.94    0.30
   0  26  -4    0.11    0.21
  -2  26  -4    0.97    0.31
  -4  26  -4    0.09    0.21
  -6  26  -4    2.06    0.38
  -8  26  -4   -0.12    0.20
 -10  26  -4   -0.07    0.18
 -12  26  -4    0.18    0.27
 -14  26  -4    1.06    0.38
 -16  26  -4    0.02    0.27
 -18  26  -4    0.20    0.34
 -20  26  -4   -0.31    0.30
 -20  26  -4    0.00    0.30
 -20 -24   4   29.83    1.36
 -18 -24   4    0.11    0.28
 -16 -24   4   25.07    1.15
 -14 -24   4    0.30    0.23
 -12 -24   4   45.67    1.49
 -10 -24   4    0.57    0.26
   8  24  -4   58.01    1.62
  -8 -24   4   60.81    1.64
   6  24  -4    0.19    0.23
  -6 -24   4    0.14    0.21
   4  24  -4   85.68    2.08
  -4 -24   4   88.65    1.94
   2  24  -4    0.45    0.27
   0  24  -4   51.24    1.55
  -2  24  -4    0.83    0.29
  -4  24  -4   83.31    2.10
  -6  24  -4    0.26    0.25
  -8  24  -4   54.67    1.67
 -10  24  -4    0.47    0.29
 -12  24  -4   44.92    1.56
 -14  24  -4    0.45    0.25
 -14  24  -4    0.05    0.28
 -16  24  -4   25.69    1.16
 -16  24  -4   26.27    1.21
 -18  24  -4    0.16    0.33
 -18  24  -4    0.57    0.33
 -20  24  -4   29.23    1.34
 -20  24  -4   30.22    1.35
 -22  24  -4    0.25    0.35
 -22  24  -4   -0.52    0.28
 -22 -22   4    2.73    0.51
 -20 -22   4   -0.01    0.24
 -18 -22   4    1.24    0.36
 -16 -22   4   -0.40    0.19
 -14 -22   4    0.10    0.21
 -12 -22   4    0.07    0.19
  10  22  -4    3.75    0.41
 -10 -22   4    3.00    0.39
   8  22  -4    0.28    0.23
  -8 -22   4    0.01    0.16
   6  22  -4    0.33    0.22
  -6 -22   4    0.54    0.22
   4  22  -4    0.23    0.20
  -4 -22   4    0.04    0.14
   2  22  -4   -0.01    0.17
  -2 -22   4    0.10    0.16
   0  22  -4   -0.18    0.15
  -2  22  -4   -0.06    0.14
  -4  22  -4   -0.01    0.16
  -6  22  -4    0.39    0.23
  -8  22  -4    0.06    0.15
  -8  22  -4    0.05    0.20
 -10  22  -4    2.75    0.43
 -10  22  -4    2.81    0.38
 -12  22  -4    0.04    0.19
 -12  22  -4   -0.06    0.22
 -14  22  -4    0.28    0.24
 -14  22  -4    0.08    0.23
 -16  22  -4    0.01    0.21
 -16  22  -4   -0.02    0.24
 -18  22  -4    1.51    0.40
 -18  22  -4    0.97    0.36
 -20  22  -4    0.24    0.30
 -20  22  -4   -0.19    0.26
 -22  22  -4    1.78    0.43
 -22  22  -4    2.46    0.50
 -24  22  -4    0.59    0.38
 -24  22  -4    0.43    0.33
 -24 -20   4   27.86    1.28
 -22 -20   4    0.16    0.22
 -20 -20   4   23.98    1.13
 -18 -20   4   -0.13    0.17
 -16 -20   4   48.62    1.54
 -14 -20   4    0.40    0.22
 -12 -20   4   29.36    1.09
  10  20  -4    0.37    0.20
 -10 -20   4    1.01    0.26
   8  20  -4   88.89    1.94
  -8 -20   4   86.80    1.95
   6  20  -4    0.52    0.22
  -6 -20   4    0.62    0.21
   4  20  -4   43.03    1.25
  -4 -20   4   43.20    1.17
   2  20  -4    0.50    0.20
  -2 -20   4    0.54    0.18
   0  20  -4   63.42    1.62
   0 -20   4   65.88    1.40
  -2  20  -4    0.47    0.22
  -4  20  -4   40.92    1.27
  -4  20  -4   40.70    1.07
  -6  20  -4    0.65    0.24
  -6  20  -4    0.60    0.21
  -8  20  -4   86.35    2.06
  -8  20  -4   86.85    1.88
 -10  20  -4    0.65    0.26
 -10  20  -4    0.41    0.21
 -12  20  -4   31.84    1.11
 -12  20  -4   30.87    1.17
 -14  20  -4    0.25    0.21
 -14  20  -4   -0.10    0.20
 -16  20  -4   45.69    1.50
 -16  20  -4   47.72    1.52
 -18  20  -4    0.15    0.23
 -18  20  -4   -0.13    0.24
 -20  20  -4   27.07    1.18
 -20  20  -4   26.34    1.20
 -22  20  -4   -0.01    0.28
 -22  20  -4    0.01    0.25
 -24  20  -4   29.52    1.29
 -24  20  -4   27.66    1.33
 -26  20  -4    0.14    0.33
 -26 -18   4    0.11    0.24
 -24 -18   4    0.28    0.24
 -22 -18   4    1.57    0.37
 -20 -18   4    0.65    0.25
 -18 -18   4    0.24    0.22
 -16 -18   4    0.01    0.17
 -14 -18   4    3.95    0.43
  12  18  -4    0.20    0.19
 -12 -18   4   -0.12    0.13
  10  18  -4    1.20    0.25
 -10 -18   4    1.63    0.30
   8  18  -4   -0.17    0.15
  -8 -18   4   -0.03    0.14
   6  18  -4    0.14    0.16
  -6 -18   4    0.56    0.19
   4  18  -4   -0.02    0.13
  -4 -18   4    0.05    0.12
   2  18  -4    3.06    0.34
  -2 -18   4    2.27    0.26
   0  18  -4    0.01    0.13
   0 -18   4    0.04    0.11
  -2  18  -4    2.47    0.25
  -2  18  -4    3.44    0.36
   2 -18   4    2.72    0.24
  -4  18  -4   -0.08    0.11
  -4  18  -4    0.00    0.15
  -6  18  -4    0.40    0.16
  -6  18  -4    0.49    0.20
  -8  18  -4    0.16    0.16
  -8  18  -4    0.22    0.17
 -10  18  -4    0.92    0.24
 -10  18  -4    1.46    0.30
 -12  18  -4    0.14    0.19
 -12  18  -4    0.59    0.24
 -14  18  -4    4.53    0.45
 -14  18  -4    3.98    0.43
 -16  18  -4    0.06    0.21
 -16  18  -4    0.06    0.20
 -18  18  -4    0.31    0.24
 -18  18  -4    0.48    0.28
 -20  18  -4    0.21    0.26
 -20  18  -4    0.10    0.25
 -22  18  -4    1.67    0.39
 -22  18  -4    1.52    0.41
 -24  18  -4    0.11    0.28
 -24  18  -4    0.18    0.30
 -26  18  -4    0.08    0.30
 -28  18  -4    0.22    0.33
 -26 -16   4   -0.01    0.23
 -24 -16   4   25.40    1.15
 -22 -16   4    0.16    0.21
 -20 -16   4   46.00    1.49
 -18 -16   4   -0.04    0.14
 -16 -16   4   80.20    1.97
 -14 -16   4   -0.03    0.14
  12  16  -4   97.41    1.91
 -12 -16   4   93.69    2.07
  10  16  -4    0.17    0.14
 -10 -16   4   -0.02    0.12
   8  16  -4  118.70    2.19
  -8 -16   4  116.51    2.25
   6  16  -4    0.00    0.13
  -6 -16   4   -0.01    0.10
   4  16  -4  116.39    2.21
  -4 -16   4  119.96    2.14
   2  16  -4    0.04    0.09
   2  16  -4    0.12    0.15
  -2 -16   4   -0.05    0.09
   0  16  -4  112.03    2.19
   0  16  -4  114.09    1.90
   0 -16   4  116.62    1.96
  -2  16  -4   -0.02    0.13
  -2  16  -4    0.18    0.12
   2 -16   4    0.05    0.09
  -4  16  -4  121.08    2.13
  -4  16  -4  124.08    2.38
   4 -16   4  124.79    1.91
  -6  16  -4    0.13    0.16
  -6  16  -4    0.21    0.14
  -8  16  -4  117.11    2.23
  -8  16  -4  120.39    2.38
 -10  16  -4   -0.04    0.15
 -10  16  -4   -0.10    0.16
 -12  16  -4   99.50    2.15
 -12  16  -4   95.79    2.07
 -14  16  -4   -0.01    0.18
 -14  16  -4    0.01    0.18
 -16  16  -4   83.62    2.05
 -16  16  -4   84.39    2.02
 -18  16  -4   -0.01    0.20
 -18  16  -4   -0.11    0.17
 -20  16  -4   46.37    1.48
 -20  16  -4   47.98    1.57
 -22  16  -4   -0.07    0.26
 -22  16  -4    0.20    0.26
 -24  16  -4   23.57    1.16
 -26  16  -4    0.36    0.31
 -28  16  -4   18.03    1.10
 -28 -14   4    0.64    0.30
 -26 -14   4    2.12    0.41
 -24 -14   4    0.63    0.29
 -22 -14   4    0.10    0.20
 -20 -14   4    0.22    0.16
 -18 -14   4    4.54    0.45
 -16 -14   4   -0.14    0.11
 -14 -14   4   -0.03    0.13
  12  14  -4    1.07    0.20
 -12 -14   4    0.98    0.23
  10  14  -4   13.36    0.56
 -10 -14   4   14.31    0.64
   8  14  -4    0.13    0.12
  -8 -14   4   -0.07    0.10
   6  14  -4    0.68    0.17
  -6 -14   4    0.63    0.16
   4  14  -4    0.11    0.07
   4  14  -4    0.10    0.11
  -4 -14   4   -0.04    0.08
   2  14  -4   12.95    0.55
   2  14  -4   13.05    0.39
  -2 -14   4   13.05    0.50
   0  14  -4   -0.04    0.07
   0  14  -4   -0.04    0.09
   0 -14   4    0.06    0.08
  -2  14  -4   13.58    0.46
  -2  14  -4   13.09    0.58
   2 -14   4   13.18    0.44
  -4  14  -4    0.17    0.12
  -4  14  -4    0.07    0.09
   4 -14   4    0.11    0.07
  -6  14  -4    0.48    0.15
  -6  14  -4    0.95    0.21
   6 -14   4    0.99    0.11
  -8  14  -4    0.05    0.12
  -8  14  -4    0.11    0.13
 -10  14  -4   12.91    0.62
 -10  14  -4   13.06    0.60
 -12  14  -4    1.02    0.24
 -14  14  -4    0.10    0.18
 -16  14  -4   -0.16    0.18
 -18  14  -4    3.89    0.47
 -20  14  -4    0.03    0.22
 -22  14  -4    0.03    0.19
 -24  14  -4   -0.06    0.23
 -26  14  -4    1.24    0.36
 -28  14  -4    0.17    0.27
 -30  14  -4   -0.01    0.33
 -30 -12   4    0.16    0.25
 -28 -12   4   19.59    1.03
 -26 -12   4    0.35    0.21
 -24 -12   4   48.87    1.56
 -22 -12   4    0.02    0.18
 -20 -12   4   30.84    1.13
 -18 -12   4    0.17    0.16
 -16 -12   4   95.57    2.08
  14  12  -4    1.11    0.20
 -14 -12   4    0.35    0.17
  12  12  -4   79.31    1.56
 -12 -12   4   80.75    1.75
  10  12  -4    1.17    0.19
 -10 -12   4    0.60    0.17
   8  12  -4  224.22    3.43
  -8 -12   4  222.26    3.47
   6  12  -4    1.35    0.19
  -6 -12   4    1.38    0.20
   4  12  -4  148.13    2.45
  -4 -12   4  145.79    2.37
   2  12  -4    2.60    0.24
   2  12  -4    2.39    0.16
  -2 -12   4    2.80    0.22
   0  12  -4  372.81    5.06
   0  12  -4  364.61    5.32
   0 -12   4  358.62    4.92
  -2  12  -4    2.65    0.20
  -2  12  -4    2.33    0.25
   2 -12   4    2.52    0.18
  -4  12  -4  144.96    2.52
  -4  12  -4  146.15    2.34
   4 -12   4  146.91    2.09
  -6  12  -4    0.95    0.16
  -6  12  -4    1.27    0.21
   6 -12   4    1.57    0.11
  -8  12  -4  234.04    3.76
  -8  12  -4  236.94    3.70
 -10  12  -4    0.62    0.17
 -12  12  -4   82.01    1.79
 -14  12  -4    0.70    0.23
 -16  12  -4   99.77    2.21
 -18  12  -4    0.51    0.22
 -20  12  -4   32.52    1.23
 -22  12  -4   -0.02    0.18
 -24  12  -4   48.20    1.64
 -26  12  -4   -0.01    0.23
 -28  12  -4   18.28    1.06
 -30  12  -4   -0.09    0.25
 -30 -10   4    1.74    0.43
 -28 -10   4    0.01    0.22
 -26 -10   4    0.09    0.21
 -24 -10   4    0.55    0.25
 -22 -10   4    2.66    0.38
 -20 -10   4    0.39    0.19
 -18 -10   4    1.28    0.26
 -16 -10   4    0.10    0.13
 -16 -10   4    0.09    0.13
 -14 -10   4   12.42    0.49
 -14 -10   4   13.47    0.63
  12  10  -4    1.14    0.18
 -12 -10   4    0.86    0.20
 -12 -10   4    0.74    0.14
  10  10  -4    5.49    0.33
 -10 -10   4    4.65    0.34
 -10 -10   4    5.46    0.27
   8  10  -4   -0.02    0.09
  -8 -10   4    0.02    0.08
   6  10  -4    3.24    0.25
  -6 -10   4    3.30    0.26
   4  10  -4    0.21    0.10
  -4 -10   4    0.52    0.12
   2  10  -4    2.54    0.22
  -2 -10   4    2.15    0.19
   0  10  -4    0.04    0.05
   0  10  -4    0.04    0.08
   0 -10   4   -0.04    0.04
  -2  10  -4    2.31    0.17
  -2  10  -4    2.37    0.22
   2 -10   4    2.21    0.15
  -4  10  -4    0.48    0.11
  -4  10  -4    0.43    0.14
   4 -10   4    0.54    0.08
  -6  10  -4    3.08    0.27
  -6  10  -4    3.53    0.25
   6 -10   4    3.46    0.14
  -8  10  -4    0.30    0.12
  -8  10  -4    0.13    0.11
 -10  10  -4    6.01    0.39
 -12  10  -4    1.18    0.23
 -14  10  -4   13.17    0.65
 -16  10  -4    0.00    0.15
 -18  10  -4    1.28    0.29
 -20  10  -4    0.10    0.19
 -22  10  -4    2.79    0.42
 -24  10  -4    0.06    0.21
 -26  10  -4    0.19    0.23
 -28  10  -4    0.35    0.30
 -30  10  -4    1.53    0.46
 -32  10  -4   -0.64    0.32
 -30  -8   4    0.03    0.24
 -28  -8   4   30.94    1.22
 -26  -8   4    0.11    0.19
 -24  -8   4   57.00    1.62
 -22  -8   4    0.02    0.16
 -22  -8   4    0.07    0.21
 -20  -8   4   84.04    1.85
 -20  -8   4   87.42    1.97
 -18  -8   4   -0.04    0.14
 -18  -8   4    0.18    0.13
 -16  -8   4  114.71    2.09
 -16  -8   4  112.31    2.21
 -14  -8   4   -0.03    0.10
 -14  -8   4    0.10    0.11
 -12  -8   4  230.82    3.45
 -12  -8   4  228.75    3.56
  10   8  -4    0.20    0.10
 -10  -8   4    0.12    0.08
 -10  -8   4    0.08    0.09
   8   8  -4  227.56    3.34
  -8  -8   4  220.75    3.17
   6   8  -4    0.14    0.09
  -6  -8   4    0.19    0.09
   4   8  -4  185.99    2.81
  -4  -8   4  186.41    2.73
   2   8  -4    0.52    0.11
  -2  -8   4    0.30    0.08
   0  -8   4  210.70    2.91
  -2   8  -4    0.45    0.08
  -2   8  -4    0.41    0.11
   2  -8   4    0.43    0.07
  -4   8  -4  190.07    2.94
  -4   8  -4  191.64    2.85
   4  -8   4  193.67    2.57
  -6   8  -4    0.29    0.10
  -6   8  -4    0.18    0.10
   6  -8   4    0.10    0.04
  -8   8  -4  229.25    3.53
  -8   8  -4  232.10    3.57
   8  -8   4  234.40    3.03
 -10   8  -4    0.02    0.11
  10  -8   4    0.10    0.04
 -12   8  -4  230.13    3.76
  12  -8   4  234.23    3.05
 -14   8  -4    0.12    0.15
 -16   8  -4  122.94    2.47
 -18   8  -4    0.15    0.20
 -20   8  -4   89.58    2.13
 -22   8  -4   -0.07    0.19
 -24   8  -4   56.64    1.75
 -26   8  -4    0.28    0.26
 -28   8  -4   30.32    1.37
 -30   8  -4    0.24    0.32
 -32   8  -4   15.16    1.04
 -28  -6   4    0.20    0.23
 -26  -6   4    1.61    0.36
 -26  -6   4    1.62    0.33
 -24  -6   4    0.14    0.20
 -24  -6   4    0.58    0.28
 -22  -6   4    0.00    0.17
 -22  -6   4    0.51    0.22
 -20  -6   4    0.58    0.21
 -20  -6   4    0.34    0.18
 -18  -6   4    0.66    0.19
 -18  -6   4    0.37    0.16
 -16  -6   4   -0.04    0.10
 -16  -6   4    0.02    0.11
 -14  -6   4    0.59    0.15
 -14  -6   4    0.94    0.19
 -12  -6   4    1.44    0.21
 -12  -6   4    1.47    0.18
 -10  -6   4    3.37    0.22
 -10  -6   4    3.38    0.26
   8   6  -4    0.12    0.09
  -8  -6   4    0.34    0.11
  -8  -6   4    0.15    0.06
   6   6  -4    7.72    0.32
  -6  -6   4    7.42    0.33
   4   6  -4    0.72    0.11
  -4  -6   4    0.49    0.10
   2   6  -4    1.94    0.16
  -2  -6   4    1.56    0.13
   0   6  -4    0.06    0.07
   0  -6   4    0.10    0.05
  -2   6  -4    1.88    0.16
   2  -6   4    1.71    0.11
  -4   6  -4    0.59    0.11
  -4   6  -4    0.43    0.09
   4  -6   4    0.62    0.07
  -6   6  -4    8.10    0.34
  -6   6  -4    8.12    0.34
   6  -6   4    7.88    0.21
  -8   6  -4    0.05    0.08
  -8   6  -4   -0.01    0.08
   8  -6   4    0.11    0.05
 -10   6  -4    3.48    0.29
  10  -6   4    3.66    0.16
 -12   6  -4    1.52    0.23
  12  -6   4    1.57    0.12
 -14   6  -4    0.87    0.21
  14  -6   4    0.89    0.11
 -16   6  -4    0.00    0.15
 -18   6  -4    0.46    0.21
 -20   6  -4    0.26    0.20
 -22   6  -4    0.54    0.27
 -24   6  -4    0.15    0.26
 -26   6  -4    1.50    0.39
 -28   6  -4    0.00    0.29
 -30   6  -4   -0.29    0.29
 -32   6  -4   -0.24    0.29
 -30  -4   4    0.17    0.28
 -28  -4   4   21.14    1.03
 -26  -4   4   -0.11    0.21
 -26  -4   4    0.00    0.16
 -24  -4   4   87.27    1.99
 -24  -4   4   86.91    2.08
 -22  -4   4    0.27    0.20
 -22  -4   4    0.15    0.15
 -20  -4   4   39.32    1.15
 -20  -4   4   41.53    1.21
 -18  -4   4    0.06    0.15
 -18  -4   4    0.03    0.11
 -16  -4   4  121.97    2.23
 -16  -4   4  121.02    2.20
 -14  -4   4    0.00    0.10
 -14  -4   4    0.00    0.09
 -12  -4   4  143.74    2.33
 -12  -4   4  140.06    2.32
 -10  -4   4    0.34    0.10
 -10  -4   4    0.17    0.09
  -8  -4   4  184.74    2.71
  -8  -4   4  183.03    2.69
   6   4  -4    0.92    0.12
  -6  -4   4    0.35    0.09
   4   4  -4   25.35    0.58
  -4  -4   4   26.16    0.58
   2   4  -4    1.16    0.12
  -2  -4   4    0.92    0.10
   0  -4   4  331.59    4.30
  -2   4  -4    0.85    0.10
   2  -4   4    1.08    0.09
  -4   4  -4   26.31    0.58
  -4   4  -4   26.27    0.58
   4  -4   4   27.03    0.49
  -6   4  -4    0.52    0.09
  -6   4  -4    0.60    0.11
   6  -4   4    0.70    0.08
  -8   4  -4  184.42    2.92
  -8   4  -4  192.05    2.79
   8  -4   4  189.48    2.53
 -10   4  -4    0.40    0.13
  10  -4   4    0.41    0.07
 -12   4  -4  148.96    2.56
 -12   4  -4  143.37    2.09
 -14   4  -4    0.04    0.07
 -14   4  -4    0.10    0.13
 -16   4  -4  124.17    2.41
 -16   4  -4  120.37    1.91
 -18   4  -4   -0.08    0.15
 -20   4  -4   43.49    1.36
 -22   4  -4    0.40    0.25
 -24   4  -4   87.70    2.24
 -26   4  -4   -0.12    0.21
 -28   4  -4   21.04    1.11
 -30   4  -4    0.03    0.28
 -32   4  -4   17.52    1.11
 -32  -2   4    0.07    0.32
 -30  -2   4    0.09    0.29
 -28  -2   4    0.02    0.27
 -26  -2   4    0.95    0.31
 -24  -2   4    0.30    0.25
 -24  -2   4    0.25    0.20
 -22  -2   4   -0.13    0.13
 -22  -2   4    0.08    0.18
 -20  -2   4    0.20    0.14
 -20  -2   4    0.31    0.19
 -18  -2   4    2.89    0.32
 -18  -2   4    3.21    0.31
 -16  -2   4    0.08    0.11
 -16  -2   4    0.06    0.13
 -14  -2   4   12.64    0.50
 -14  -2   4   12.70    0.53
 -12  -2   4    2.47    0.22
 -12  -2   4    2.30    0.23
 -10  -2   4    2.53    0.20
 -10  -2   4    2.23    0.19
  -8  -2   4    0.34    0.08
  -8  -2   4    0.39    0.09
  -6  -2   4    1.82    0.13
  -6  -2   4    1.95    0.15
  -4  -2   4    0.80    0.10
   2   2  -4   16.31    0.41
  -2  -2   4   16.67    0.38
   0  -2   4    0.27    0.05
   2  -2   4   16.29    0.36
  -4   2  -4    0.88    0.08
  -4   2  -4    1.02    0.11
   4  -2   4    0.96    0.08
  -6   2  -4    2.11    0.18
  -6   2  -4    1.99    0.14
   6  -2   4    1.74    0.11
  -8   2  -4    0.32    0.10
  -8   2  -4    0.52    0.09
  -8   2  -4    0.27    0.07
   8  -2   4    0.30    0.06
 -10   2  -4    2.20    0.22
 -10   2  -4    2.15    0.16
 -12   2  -4    2.83    0.28
 -12   2  -4    2.47    0.18
 -14   2  -4   12.84    0.59
 -14   2  -4   12.03    0.42
 -16   2  -4    0.10    0.09
 -16   2  -4    0.29    0.18
 -18   2  -4    2.24    0.22
 -18   2  -4    3.12    0.37
 -20   2  -4    0.38    0.22
 -20   2  -4    0.74    0.17
 -22   2  -4   -0.11    0.17
 -24   2  -4    0.20    0.26
 -26   2  -4    1.02    0.36
 -28   2  -4    0.30    0.27
 -30   2  -4   -0.10    0.27
 -32   2  -4   -0.42    0.28
 -32   0   4   18.87    1.11
 -30   0   4    0.12    0.29
 -28   0   4   28.80    1.23
 -26   0   4   -0.03    0.22
 -24   0   4   53.15    1.58
 -22   0   4   -0.18    0.12
 -22   0   4   -0.09    0.19
 -20   0   4   59.79    1.39
 -20   0   4   63.57    1.59
 -18   0   4    0.04    0.11
 -18   0   4    0.20    0.15
 -16   0   4  115.02    2.20
 -16   0   4  113.44    1.99
 -14   0   4    0.09    0.09
 -14   0   4    0.06    0.10
 -12   0   4  363.81    4.88
 -12   0   4  352.87    5.22
 -10   0   4    0.12    0.07
 -10   0   4    0.08    0.09
  -8   0   4  207.67    2.88
  -8   0   4  203.15    3.04
  -6   0   4    0.02    0.05
  -6   0   4    0.09    0.06
  -4   0   4  329.62    4.30
  -2   0   4    0.35    0.06
   0   0   4  586.59    7.44
   2   0   4    0.19    0.05
  -4   0  -4  331.58    4.53
   4   0   4  321.27    4.23
  -6   0  -4    0.15    0.07
  -6   0  -4    0.14    0.05
  -8   0  -4  203.40    2.80
  -8   0  -4  201.66    3.08
 -10   0  -4    0.04    0.09
 -10   0  -4    0.07    0.06
 -12   0  -4  359.87    4.83
 -12   0  -4  354.64    5.30
 -14   0  -4   -0.02    0.12
 -14   0  -4    0.03    0.08
 -16   0  -4  112.06    2.23
 -16   0  -4  112.01    1.91
 -18   0  -4    0.04    0.15
 -18   0  -4    0.11    0.12
 -20   0  -4   61.14    1.35
 -20   0  -4   63.13    1.66
 -22   0  -4    0.04    0.14
 -22   0  -4   -0.20    0.19
 -24   0  -4   54.77    1.66
 -26   0  -4    0.00    0.22
 -28   0  -4   27.68    1.25
 -30   0  -4    0.25    0.31
 -32   0  -4   16.96    1.08
 -32   2   4   -0.03    0.35
 -30   2   4   -0.13    0.28
 -28   2   4    0.23    0.28
 -26   2   4    0.95    0.33
 -24   2   4    0.27    0.25
 -22   2   4   -0.07    0.16
 -20   2   4    0.39    0.20
 -20   2   4    0.24    0.15
 -18   2   4    2.52    0.32
 -18   2   4    2.42    0.25
 -16   2   4    0.10    0.13
 -16   2   4    0.09    0.10
 -14   2   4   12.35    0.45
 -14   2   4   11.90    0.53
 -12   2   4    2.23    0.19
 -12   2   4    2.33    0.24
 -10   2   4    2.30    0.17
 -10   2   4    2.19    0.20
  -8   2   4    0.44    0.09
  -8   2   4    0.53    0.11
  -6   2   4    1.57    0.12
  -6   2   4    2.02    0.16
  -4   2   4    0.72    0.09
  -4   2   4    1.00    0.10
  -2   2   4   15.97    0.37
   0   2   4    0.13    0.04
  -2  -2  -4   16.35    0.38
   2   2   4   15.69    0.37
  -4  -2  -4    0.95    0.11
  -4  -2  -4    1.10    0.11
  -6  -2  -4    1.57    0.13
  -6  -2  -4    1.76    0.16
  -8  -2  -4    0.34    0.08
  -8  -2  -4    0.29    0.10
 -10  -2  -4    1.88    0.17
 -10  -2  -4    2.21    0.22
 -12  -2  -4    2.50    0.22
 -12  -2  -4    2.20    0.25
 -14  -2  -4   12.82    0.49
 -14  -2  -4   12.25    0.57
 -16  -2  -4    0.17    0.17
 -16  -2  -4   -0.01    0.10
 -18  -2  -4    2.92    0.36
 -18  -2  -4    2.98    0.29
 -20  -2  -4    0.35    0.17
 -20  -2  -4    0.47    0.24
 -22  -2  -4   -0.14    0.14
 -22  -2  -4    0.10    0.22
 -24  -2  -4    0.48    0.29
 -24  -2  -4    0.78    0.23
 -26  -2  -4    0.27    0.27
 -28  -2  -4    0.39    0.29
 -30  -2  -4   -0.39    0.27
 -32  -2  -4   -0.37    0.32
 -32   4   4   17.91    1.10
 -30   4   4    0.22    0.30
 -28   4   4   20.66    1.06
 -26   4   4    0.24    0.26
 -24   4   4   83.75    2.14
 -22   4   4   -0.07    0.17
 -20   4   4   41.38    1.29
 -18   4   4   -0.11    0.13
 -18   4   4    0.16    0.12
 -16   4   4  117.32    1.93
 -16   4   4  119.48    2.31
 -14   4   4    0.16    0.12
 -14   4   4    0.00    0.07
 -12   4   4  148.18    2.18
 -12   4   4  146.04    2.53
 -10   4   4    0.38    0.12
 -10   4   4    0.51    0.09
  -8   4   4  199.73    2.69
  -8   4   4  192.76    3.02
  -6   4   4    0.36    0.09
  -6   4   4    0.53    0.08
  -4   4   4   26.74    0.53
  -4   4   4   26.61    0.63
  -2   4   4    0.92    0.09
   0  -4  -4  320.22    4.25
   0   4   4  323.45    4.20
  -2  -4  -4    0.98    0.10
   2   4   4    1.00    0.10
  -4  -4  -4   25.02    0.60
  -6  -4  -4    0.66    0.12
  -6  -4  -4    0.60    0.10
  -8  -4  -4  189.00    2.95
  -8  -4  -4  192.58    2.79
 -10  -4  -4    0.40    0.11
 -10  -4  -4    0.41    0.13
 -12  -4  -4  143.34    2.31
 -12  -4  -4  140.49    2.46
 -14  -4  -4    0.14    0.10
 -14  -4  -4    0.09    0.11
 -16  -4  -4  118.33    2.31
 -16  -4  -4  117.97    2.12
 -18  -4  -4    0.10    0.15
 -18  -4  -4    0.09    0.13
 -20  -4  -4   40.01    1.26
 -20  -4  -4   39.50    1.11
 -22  -4  -4    0.08    0.15
 -22  -4  -4    0.05    0.20
 -24  -4  -4   84.79    1.91
 -24  -4  -4   85.73    2.16
 -26  -4  -4    0.05    0.19
 -26  -4  -4    0.16    0.25
 -28  -4  -4   22.01    1.11
 -30  -4  -4   -0.25    0.28
 -32  -4  -4   13.38    0.98
 -32   6   4    0.22    0.37
 -30   6   4   -0.07    0.30
 -28   6   4   -0.14    0.23
 -26   6   4    0.82    0.34
 -24   6   4    0.19    0.28
 -22   6   4    0.43    0.26
 -20   6   4    0.42    0.23
 -18   6   4    0.86    0.25
 -16   6   4   -0.04    0.13
 -16   6   4    0.18    0.10
 -14   6   4    0.89    0.20
 -14   6   4    0.68    0.11
 -12   6   4    1.43    0.21
 -12   6   4    1.41    0.14
 -10   6   4    3.60    0.19
 -10   6   4    3.68    0.29
  -8   6   4    0.16    0.10
  -8   6   4    0.09    0.05
  -6   6   4    8.17    0.36
  -6   6   4    8.09    0.26
  -4   6   4    0.64    0.08
  -4   6   4    0.70    0.12
  -2   6   4    1.76    0.17
  -2   6   4    1.85    0.13
   0   6   4    0.07    0.05
  -2  -6  -4    1.27    0.12
  -4  -6  -4    0.60    0.10
  -6  -6  -4    7.97    0.35
  -6  -6  -4    8.93    0.36
  -8  -6  -4    0.06    0.07
  -8  -6  -4    0.19    0.09
 -10  -6  -4    3.17    0.25
 -10  -6  -4    3.03    0.26
 -12  -6  -4    1.41    0.20
 -12  -6  -4    1.40    0.20
 -14  -6  -4    0.51    0.17
 -14  -6  -4    0.77    0.17
 -16  -6  -4    0.12    0.14
 -16  -6  -4    0.14    0.14
 -18  -6  -4    0.25    0.18
 -18  -6  -4    0.22    0.14
 -20  -6  -4    0.49    0.24
 -20  -6  -4    0.28    0.17
 -22  -6  -4    0.39    0.22
 -22  -6  -4    0.86    0.28
 -24  -6  -4    0.33    0.20
 -24  -6  -4    0.14    0.25
 -26  -6  -4    1.68    0.39
 -26  -6  -4    1.58    0.31
 -28  -6  -4    0.28    0.28
 -28  -6  -4    0.13    0.22
 -30  -6  -4   -0.02    0.30
 -32  -6  -4    0.11    0.34
 -32   8   4   16.37    1.10
 -30   8   4    0.16    0.30
 -28   8   4   30.39    1.36
 -26   8   4    0.09    0.25
 -24   8   4   54.30    1.71
 -22   8   4   -0.14    0.21
 -20   8   4   84.95    2.06
 -18   8   4   -0.01    0.18
 -16   8   4  114.70    2.34
 -14   8   4    0.02    0.07
 -14   8   4   -0.15    0.10
 -12   8   4  231.59    3.12
 -12   8   4  229.37    3.74
 -10   8   4    0.02    0.09
 -10   8   4    0.24    0.07
  -8   8   4  230.45    3.05
  -8   8   4  224.17    3.55
   6  -8  -4    0.12    0.05
  -6   8   4   -0.06    0.06
  -6   8   4    0.12    0.06
  -4   8   4  187.76    2.57
  -4   8   4  184.34    2.91
  -2   8   4    0.16    0.09
  -2   8   4    0.35    0.08
   0  -8  -4  199.60    2.78
  -2  -8  -4    0.43    0.10
  -4  -8  -4  189.61    2.77
  -6  -8  -4    0.05    0.07
  -8  -8  -4  223.25    3.45
  -8  -8  -4  223.37    3.33
 -10  -8  -4    0.17    0.11
 -10  -8  -4    0.19    0.10
 -12  -8  -4  229.89    3.63
 -12  -8  -4  223.67    3.51
 -14  -8  -4    0.11    0.11
 -14  -8  -4    0.01    0.12
 -16  -8  -4  119.63    2.31
 -16  -8  -4  114.39    2.22
 -18  -8  -4    0.08    0.13
 -18  -8  -4    0.11    0.17
 -20  -8  -4   85.59    1.91
 -20  -8  -4   83.79    1.98
 -22  -8  -4   -0.11    0.14
 -22  -8  -4   -0.05    0.20
 -24  -8  -4   55.83    1.57
 -24  -8  -4   56.49    1.69
 -26  -8  -4    0.02    0.22
 -26  -8  -4   -0.09    0.17
 -28  -8  -4   28.43    1.15
 -28  -8  -4   29.03    1.27
 -30  -8  -4   -0.09    0.31
 -32  -8  -4   15.23    1.01
 -32  10   4   -0.16    0.29
 -30  10   4    1.18    0.48
 -28  10   4   -0.03    0.30
 -26  10   4    0.70    0.34
 -24  10   4    0.35    0.27
 -22  10   4    3.39    0.48
 -20  10   4    0.01    0.21
 -18  10   4    1.18    0.28
 -16  10   4   -0.02    0.14
 -14  10   4   12.74    0.64
 -12  10   4    0.70    0.19
  10 -10  -4    5.58    0.21
 -10  10   4    5.64    0.40
 -10  10   4    5.74    0.22
  -8  10   4    0.01    0.09
  -8  10   4    0.18    0.07
  -6  10   4    3.57    0.19
  -6  10   4    3.34    0.28
  -4  10   4    0.39    0.12
  -4  10   4    0.32    0.08
  -2  10   4    2.87    0.24
  -2  10   4    2.24    0.17
   0 -10  -4    0.11    0.07
  -2 -10  -4    1.93    0.18
  -4 -10  -4    0.50    0.12
  -6 -10  -4    2.94    0.25
  -8 -10  -4   -0.04    0.08
   8  10   4    0.17    0.07
 -10 -10  -4    5.05    0.35
 -10 -10  -4    5.47    0.36
 -12 -10  -4    0.61    0.17
 -12 -10  -4    0.99    0.21
 -14 -10  -4   12.40    0.58
 -14 -10  -4   11.95    0.58
 -16 -10  -4   -0.10    0.12
 -16 -10  -4   -0.01    0.11
 -18 -10  -4    1.35    0.27
 -18 -10  -4    1.04    0.25
 -20 -10  -4    0.15    0.17
 -20 -10  -4    0.50    0.23
 -22 -10  -4    3.09    0.39
 -22 -10  -4    2.61    0.40
 -24 -10  -4    0.48    0.27
 -24 -10  -4    0.46    0.23
 -26 -10  -4    0.30    0.27
 -26 -10  -4    0.11    0.21
 -28 -10  -4    0.30    0.32
 -28 -10  -4   -0.13    0.21
 -30 -10  -4    0.97    0.39
 -30 -10  -4    1.84    0.40
 -30  12   4   -0.01    0.33
 -28  12   4   19.06    1.12
 -26  12   4    0.08    0.28
 -24  12   4   43.74    1.59
 -22  12   4   -0.14    0.20
 -20  12   4   30.14    1.18
 -18  12   4   -0.11    0.13
 -16  12   4   92.33    2.11
 -14  12   4    0.66    0.23
 -12  12   4   78.42    1.77
 -10  12   4    1.06    0.22
  -8  12   4  223.29    3.08
  -8  12   4  232.67    3.72
  -6  12   4    1.47    0.14
  -6  12   4    1.33    0.21
  -4  12   4  144.56    2.13
  -2  12   4    3.01    0.20
  -2  12   4    2.08    0.23
   0 -12  -4  363.85    4.93
  -2 -12  -4    2.48    0.22
  -4 -12  -4  148.50    2.39
  -6 -12  -4    1.54    0.21
  -8 -12  -4  227.20    3.54
   8  12   4  232.09    3.33
 -10 -12  -4    1.05    0.21
  10  12   4    0.71    0.12
 -12 -12  -4   79.29    1.72
 -14 -12  -4    1.19    0.23
 -14 -12  -4    0.64    0.18
 -16 -12  -4   93.71    2.05
 -16 -12  -4   97.57    2.06
 -18 -12  -4    0.41    0.21
 -18 -12  -4    0.15    0.15
 -20 -12  -4   29.70    1.09
 -20 -12  -4   31.84    1.13
 -22 -12  -4    0.03    0.17
 -22 -12  -4   -0.17    0.20
 -24 -12  -4   47.13    1.50
 -24 -12  -4   45.15    1.49
 -26 -12  -4   -0.16    0.17
 -26 -12  -4   -0.03    0.27
 -28 -12  -4   19.28    1.05
 -28 -12  -4   19.92    1.02
 -30 -12  -4    0.24    0.26
 -30  14   4    0.15    0.33
 -28  14   4   -0.24    0.31
 -26  14   4    1.09    0.40
 -24  14   4   -0.10    0.23
 -22  14   4    0.21    0.24
 -20  14   4    0.24    0.24
 -18  14   4    4.06    0.47
 -16  14   4   -0.12    0.15
 -14  14   4    0.02    0.17
 -12  14   4    0.66    0.21
 -10  14   4   12.60    0.62
  -8  14   4    0.00    0.11
  -6  14   4    0.86    0.12
  -6  14   4    0.80    0.19
  -4  14   4    0.08    0.08
  -4  14   4    0.16    0.13
  -2  14   4   12.12    0.54
  -2  14   4   12.59    0.44
   0 -14  -4    0.02    0.09
  -2 -14  -4   13.02    0.50
  -4 -14  -4    0.07    0.10
  -6 -14  -4    0.91    0.19
   6  14   4    0.76    0.15
  -8 -14  -4    0.07    0.11
   8  14   4    0.05    0.09
 -10 -14  -4   13.51    0.62
 -12 -14  -4    0.75    0.22
 -14 -14  -4   -0.01    0.13
 -16 -14  -4   -0.02    0.13
 -18 -14  -4    3.95    0.42
 -18 -14  -4    4.75    0.46
 -20 -14  -4    0.30    0.24
 -20 -14  -4    0.11    0.16
 -22 -14  -4    0.41    0.26
 -22 -14  -4    0.16    0.19
 -24 -14  -4    0.52    0.26
 -24 -14  -4    0.21    0.28
 -26 -14  -4    1.10    0.35
 -28 -14  -4    0.05    0.22
 -28  16   4   17.20    1.11
 -26  16   4    0.39    0.31
 -24  16   4   26.44    1.26
 -22  16   4    0.27    0.25
 -20  16   4   46.34    1.58
 -18  16   4   -0.12    0.18
 -16  16   4   81.66    2.05
 -14  16   4    0.07    0.15
 -12  16   4   95.72    2.14
 -10  16   4   -0.04    0.16
  -8  16   4  122.05    2.42
  -6  16   4    0.29    0.10
  -6  16   4    0.28    0.16
  -4  16   4  125.14    1.97
  -4  16   4  119.98    2.31
   2 -16  -4    0.19    0.11
  -2  16   4    0.22    0.15
  -2  16   4    0.05    0.09
   0 -16  -4  115.92    1.99
   0  16   4  116.90    2.22
  -2 -16  -4    0.10    0.11
  -4 -16  -4  122.51    2.17
  -6 -16  -4    0.08    0.13
   6  16   4   -0.09    0.13
  -8 -16  -4  115.70    2.22
   8  16   4  117.86    2.04
 -10 -16  -4   -0.08    0.13
 -12 -16  -4  100.57    2.13
 -14 -16  -4   -0.27    0.12
 -16 -16  -4   80.21    1.95
 -18 -16  -4    0.21    0.15
 -20 -16  -4   44.35    1.46
 -22 -16  -4    0.14    0.20
 -24 -16  -4   23.87    1.11
 -26 -16  -4    0.05    0.21
 -28  18   4    0.28    0.34
 -26  18   4   -0.02    0.31
 -24  18   4    0.44    0.32
 -22  18   4    0.94    0.33
 -20  18   4    0.02    0.24
 -18  18   4    0.27    0.24
 -16  18   4    0.05    0.19
 -14  18   4    4.70    0.48
 -12  18   4   -0.15    0.14
 -10  18   4    0.86    0.26
  -8  18   4    0.19    0.18
  -6  18   4    0.12    0.15
  -4  18   4    0.10    0.14
  -4  18   4    0.05    0.10
   2 -18  -4    3.01    0.26
  -2  18   4    2.15    0.27
  -2  18   4    2.83    0.26
   0 -18  -4   -0.02    0.09
   0  18   4    0.05    0.14
  -2 -18  -4    2.70    0.27
  -4 -18  -4    0.16    0.13
  -6 -18  -4    0.42    0.17
   6  18   4    0.62    0.18
  -8 -18  -4   -0.08    0.13
   8  18   4    0.12    0.14
 -10 -18  -4    1.35    0.27
 -12 -18  -4    0.25    0.19
 -14 -18  -4    2.89    0.38
 -16 -18  -4    0.24    0.20
 -18 -18  -4    0.10    0.21
 -20 -18  -4    0.07    0.18
 -22 -18  -4    0.90    0.30
 -24 -18  -4   -0.12    0.23
 -26 -18  -4    0.64    0.29
 -26  20   4    0.02    0.31
 -24  20   4   25.48    1.29
 -22  20   4    0.64    0.33
 -20  20   4   25.28    1.19
 -18  20   4    0.63    0.27
 -16  20   4   50.53    1.62
 -14  20   4    0.29    0.22
 -12  20   4   31.52    1.17
 -10  20   4    0.34    0.21
  -8  20   4   88.91    2.06
  -6  20   4    0.20    0.20
  -4  20   4   42.56    1.24
  -2  20   4    0.33    0.16
  -2  20   4    0.73    0.23
   0 -20  -4   65.30    1.42
   0  20   4   66.61    1.59
  -2 -20  -4    0.49    0.18
   2  20   4    0.44    0.22
  -4 -20  -4   42.86    1.16
   4  20   4   43.45    1.18
  -6 -20  -4    0.59    0.20
   6  20   4    0.22    0.18
  -8 -20  -4   86.46    1.92
 -10 -20  -4    0.17    0.18
 -12 -20  -4   30.42    1.11
 -14 -20  -4    0.31    0.24
 -16 -20  -4   45.95    1.49
 -18 -20  -4    0.16    0.22
 -20 -20  -4   25.25    1.16
 -22 -20  -4    0.16    0.21
 -24 -20  -4   27.68    1.27
 -24  22   4   -0.12    0.28
 -22  22   4    2.02    0.47
 -20  22   4   -0.08    0.22
 -18  22   4    1.11    0.35
 -16  22   4   -0.12    0.22
 -14  22   4    0.33    0.26
 -12  22   4    0.02    0.19
 -10  22   4    3.17    0.42
  -8  22   4    0.13    0.19
  -6  22   4    0.44    0.23
  -4  22   4    0.24    0.19
  -2  22   4    0.00    0.16
   0 -22  -4    0.08    0.14
   0  22   4   -0.01    0.15
  -2 -22  -4   -0.11    0.15
   2  22   4    0.09    0.16
   2  22   4    0.09    0.19
  -4 -22  -4    0.07    0.15
   4  22   4    0.00    0.17
   4  22   4    0.03    0.17
  -6 -22  -4    0.24    0.19
   6  22   4    0.51    0.23
  -8 -22  -4    0.02    0.14
 -10 -22  -4    3.32    0.41
 -12 -22  -4    0.15    0.18
 -14 -22  -4   -0.22    0.18
 -16 -22  -4    0.08    0.21
 -18 -22  -4    1.01    0.32
 -20 -22  -4    0.07    0.22
 -22 -22  -4    2.24    0.47
 -22  24   4    0.30    0.33
 -20  24   4   28.06    1.35
 -18  24   4    0.47    0.28
 -16  24   4   25.27    1.18
 -14  24   4    0.91    0.32
 -12  24   4   45.58    1.53
 -10  24   4    0.20    0.24
  -8  24   4   61.97    1.74
  -6  24   4    0.24    0.24
  -4  24   4   87.68    2.07
  -2  24   4    0.37    0.25
   0  24   4   54.28    1.49
   0  24   4   51.02    1.50
   2  24   4    0.29    0.24
   2  24   4    0.34    0.21
  -4 -24  -4   89.83    1.96
   4  24   4   86.86    2.01
  -6 -24  -4    0.27    0.24
  -8 -24  -4   57.39    1.58
 -10 -24  -4    0.34    0.22
 -12 -24  -4   44.46    1.45
 -14 -24  -4    0.14    0.24
 -16 -24  -4   23.24    1.10
 -18 -24  -4    0.25    0.24
 -20 -24  -4   27.95    1.30
 -20  26   4    0.08    0.34
 -18  26   4    0.00    0.27
 -16  26   4   -0.37    0.24
 -14  26   4    2.24    0.44
 -12  26   4   -0.07    0.20
 -10  26   4    0.08    0.21
  -8  26   4   -0.15    0.20
  -6  26   4    1.59    0.35
  -4  26   4   -0.07    0.20
  -2  26   4    0.77    0.26
  -2  26   4    0.81    0.29
   0  26   4   -0.18    0.16
   2  26   4    0.96    0.29
   4  26   4    0.21    0.21
  -6 -26  -4    1.07    0.29
  -8 -26  -4   -0.09    0.18
 -10 -26  -4   -0.03    0.18
 -12 -26  -4    0.37    0.24
 -14 -26  -4    0.73    0.33
 -16 -26  -4    0.49    0.28
 -18 -26  -4   -0.08    0.25
 -18  28   4    0.17    0.31
 -16  28   4   19.33    1.11
 -14  28   4    0.18    0.29
 -12  28   4   21.23    1.08
 -10  28   4   -0.15    0.24
  -8  28   4   30.79    1.27
  -4  28   4   23.31    1.09
  -2  28   4    0.14    0.23
   0  28   4   30.57    1.21
   2  28   4   -0.15    0.20
  -8 -28  -4   30.75    1.19
 -10 -28  -4   -0.07    0.23
 -12 -28  -4   18.60    0.99
 -14 -28  -4    0.24    0.29
 -14  30   4    0.38    0.34
 -10  30   4    1.62    0.43
  -8  30   4    0.03    0.26
  -6  30   4    0.34    0.28
  -4  30   4    0.28    0.24
  -2  30   4    0.04    0.24
   0  30   4   -0.11    0.22
   2  30   4    0.34    0.28
 -10 -30  -4    1.58    0.43
 -12 -30  -4    0.03    0.29
 -10  32   4    0.14    0.31
  -8  32   4   17.16    1.05
  -6  32   4    0.05    0.26
  -4  32   4   18.39    1.04
  -2  32   4    0.25    0.29
   0  32   4   18.87    1.03
   3  33  -5   -0.10    0.28
   1  33  -5    0.37    0.33
  -1  33  -5    0.26    0.31
  -3  33  -5   -0.15    0.24
  -5  33  -5   -0.06    0.26
  -7  33  -5    0.43    0.32
   5  31  -5    0.06    0.29
   3  31  -5    0.43    0.30
   1  31  -5   -0.04    0.26
  -1  31  -5    0.07    0.26
  -3  31  -5    0.27    0.30
  -5  31  -5   -0.29    0.21
  -7  31  -5    0.35    0.30
  -9  31  -5    0.06    0.24
 -11  31  -5   -0.11    0.23
 -13  31  -5   -0.10    0.35
 -13 -29   5   -0.09    0.29
 -11 -29   5    0.05    0.28
   7  29  -5   -0.11    0.23
   5  29  -5    0.14    0.26
   3  29  -5   -0.22    0.22
   1  29  -5    0.42    0.25
  -1  29  -5    0.09    0.21
  -3  29  -5   -0.03    0.21
  -5  29  -5    0.12    0.25
  -7  29  -5   -0.09    0.18
  -9  29  -5   -0.11    0.22
 -11  29  -5   -0.15    0.27
 -13  29  -5    0.12    0.29
 -15  29  -5   -0.05    0.30
 -17  29  -5    0.02    0.36
 -17 -27   5   -0.27    0.29
 -15 -27   5   -0.09    0.24
 -13 -27   5   -0.17    0.25
 -11 -27   5    0.10    0.23
  -9 -27   5    0.31    0.25
   7  27  -5   -0.12    0.21
  -7 -27   5    0.14    0.21
   5  27  -5    0.16    0.22
   3  27  -5    0.12    0.24
   1  27  -5    0.37    0.25
  -1  27  -5    0.03    0.22
  -3  27  -5    0.08    0.20
  -5  27  -5    0.02    0.20
  -7  27  -5    0.04    0.20
  -9  27  -5    0.07    0.22
 -11  27  -5   -0.02    0.26
 -13  27  -5   -0.15    0.25
 -15  27  -5   -0.11    0.32
 -17  27  -5    0.20    0.34
 -19  27  -5   -0.22    0.28
 -19 -25   5    0.04    0.30
 -17 -25   5   -0.14    0.24
 -15 -25   5   -0.01    0.23
 -13 -25   5    0.22    0.24
 -11 -25   5   -0.21    0.19
   9  25  -5    0.02    0.21
  -9 -25   5    0.20    0.21
   7  25  -5   -0.29    0.19
  -7 -25   5   -0.03    0.19
   5  25  -5    0.06    0.19
  -5 -25   5   -0.12    0.17
   3  25  -5    0.17    0.20
   1  25  -5   -0.01    0.18
  -1  25  -5   -0.14    0.18
  -3  25  -5    0.05    0.22
  -5  25  -5    0.15    0.21
  -7  25  -5    0.11    0.21
  -9  25  -5    0.09    0.24
 -11  25  -5    0.07    0.28
 -13  25  -5    0.05    0.26
 -15  25  -5    0.19    0.29
 -17  25  -5    0.22    0.29
 -19  25  -5   -0.03    0.28
 -19  25  -5   -0.08    0.29
 -21  25  -5    0.00    0.33
 -21  25  -5   -0.14    0.31
 -21 -23   5   -0.10    0.29
 -19 -23   5   -0.06    0.19
 -17 -23   5    0.03    0.22
 -15 -23   5    0.52    0.27
 -13 -23   5    0.33    0.25
 -11 -23   5    0.59    0.27
   9  23  -5    0.00    0.20
  -9 -23   5    0.07    0.17
   7  23  -5    0.74    0.27
  -7 -23   5    0.69    0.23
   5  23  -5   -0.21    0.17
  -5 -23   5    0.27    0.18
   3  23  -5    1.52    0.33
  -3 -23   5    0.83    0.24
   1  23  -5   -0.08    0.16
  -1  23  -5    0.13    0.17
  -3  23  -5    1.07    0.30
  -5  23  -5    0.20    0.19
  -7  23  -5    0.74    0.29
  -9  23  -5   -0.01    0.23
 -11  23  -5    0.60    0.30
 -13  23  -5    0.10    0.27
 -13  23  -5    0.40    0.25
 -15  23  -5    0.46    0.28
 -15  23  -5    0.21    0.29
 -17  23  -5    0.45    0.31
 -17  23  -5    0.05    0.24
 -19  23  -5    0.34    0.28
 -19  23  -5   -0.14    0.27
 -21  23  -5   -0.17    0.27
 -21  23  -5    0.08    0.32
 -23  23  -5   -0.29    0.28
 -23  23  -5    0.03    0.33
 -23 -21   5   -0.04    0.20
 -21 -21   5   -0.15    0.24
 -19 -21   5    0.03    0.24
 -17 -21   5    0.53    0.27
 -15 -21   5    0.11    0.21
 -13 -21   5    0.05    0.19
  11  21  -5    0.32    0.22
 -11 -21   5   -0.18    0.14
   9  21  -5    0.06    0.21
  -9 -21   5   -0.01    0.16
   7  21  -5    0.18    0.19
  -7 -21   5    0.12    0.16
   5  21  -5    0.03    0.16
  -5 -21   5    0.12    0.16
   3  21  -5    0.00    0.15
  -3 -21   5   -0.07    0.13
   1  21  -5    0.03    0.16
  -1 -21   5   -0.03    0.14
  -1  21  -5    0.14    0.19
  -3  21  -5   -0.17    0.13
  -5  21  -5    0.02    0.16
  -7  21  -5   -0.01    0.16
  -9  21  -5    0.15    0.21
  -9  21  -5   -0.32    0.17
 -11  21  -5    0.10    0.23
 -11  21  -5    0.07    0.20
 -13  21  -5    0.20    0.22
 -13  21  -5    0.13    0.20
 -15  21  -5    0.31    0.26
 -15  21  -5    0.25    0.25
 -17  21  -5    0.38    0.28
 -17  21  -5    0.15    0.24
 -19  21  -5    0.21    0.26
 -19  21  -5   -0.27    0.23
 -21  21  -5   -0.13    0.26
 -21  21  -5   -0.06    0.27
 -23  21  -5    0.20    0.31
 -23  21  -5   -0.03    0.28
 -25  21  -5    0.06    0.31
 -25 -19   5   -0.16    0.18
 -23 -19   5    0.32    0.25
 -21 -19   5   -0.03    0.20
 -19 -19   5    0.15    0.24
 -17 -19   5    0.29    0.23
 -15 -19   5    0.46    0.23
 -13 -19   5    0.01    0.17
  11  19  -5    0.03    0.17
 -11 -19   5    0.16    0.16
   9  19  -5    0.32    0.19
  -9 -19   5    0.13    0.17
   7  19  -5    0.18    0.18
  -7 -19   5    0.14    0.17
   5  19  -5   -0.06    0.16
  -5 -19   5    0.16    0.14
   3  19  -5    0.31    0.20
  -3 -19   5    0.93    0.21
   1  19  -5    0.07    0.15
  -1 -19   5    0.06    0.11
  -1  19  -5   -0.11    0.15
   1 -19   5    0.16    0.11
  -3  19  -5    0.36    0.20
  -5  19  -5   -0.14    0.16
  -5  19  -5   -0.03    0.15
  -7  19  -5    0.17    0.14
  -7  19  -5   -0.03    0.17
  -9  19  -5    0.37    0.21
  -9  19  -5    0.27    0.20
 -11  19  -5   -0.01    0.17
 -11  19  -5    0.01    0.16
 -13  19  -5   -0.12    0.20
 -13  19  -5   -0.16    0.17
 -15  19  -5    0.60    0.26
 -15  19  -5    0.35    0.24
 -17  19  -5    0.20    0.26
 -17  19  -5    0.18    0.25
 -19  19  -5    0.01    0.23
 -19  19  -5   -0.11    0.22
 -21  19  -5    0.35    0.28
 -21  19  -5    0.06    0.26
 -23  19  -5    0.01    0.28
 -23  19  -5    0.03    0.30
 -25  19  -5    0.44    0.33
 -27  19  -5    0.15    0.33
 -25 -17   5   -0.14    0.22
 -23 -17   5    0.03    0.19
 -21 -17   5    0.29    0.23
 -19 -17   5    0.33    0.23
 -17 -17   5   -0.24    0.16
 -15 -17   5    0.05    0.16
 -13 -17   5    1.40    0.29
  11  17  -5   -0.07    0.14
 -11 -17   5    0.15    0.16
   9  17  -5    0.16    0.16
  -9 -17   5   -0.08    0.13
   7  17  -5   -0.02    0.14
  -7 -17   5    0.03    0.11
   5  17  -5   -0.02    0.12
  -5 -17   5   -0.13    0.12
   3  17  -5    2.14    0.29
  -3 -17   5    1.87    0.24
   1  17  -5    0.19    0.13
  -1 -17   5   -0.14    0.09
  -1  17  -5   -0.05    0.09
  -1  17  -5   -0.01    0.13
   1 -17   5    0.02    0.10
  -3  17  -5    2.33    0.23
  -3  17  -5    1.65    0.27
   3 -17   5    1.84    0.19
  -5  17  -5   -0.03    0.12
  -5  17  -5   -0.02    0.14
  -7  17  -5    0.02    0.14
  -7  17  -5   -0.03    0.15
  -9  17  -5    0.28    0.16
  -9  17  -5    0.24    0.18
 -11  17  -5   -0.15    0.14
 -11  17  -5   -0.03    0.17
 -13  17  -5    0.84    0.26
 -13  17  -5    0.94    0.28
 -15  17  -5    0.18    0.19
 -15  17  -5   -0.24    0.17
 -17  17  -5    0.20    0.21
 -17  17  -5   -0.07    0.18
 -19  17  -5   -0.01    0.21
 -19  17  -5    0.32    0.25
 -21  17  -5    0.40    0.26
 -21  17  -5    0.25    0.24
 -23  17  -5    0.22    0.30
 -23  17  -5    0.48    0.29
 -25  17  -5    0.27    0.27
 -27  17  -5   -0.12    0.27
 -29  17  -5    0.24    0.34
 -27 -15   5   -0.03    0.20
 -25 -15   5    0.11    0.21
 -23 -15   5    0.05    0.19
 -21 -15   5    0.30    0.19
 -19 -15   5    0.80    0.27
 -17 -15   5   -0.04    0.13
 -15 -15   5   -0.11    0.16
  13  15  -5    0.95    0.23
 -13 -15   5    1.03    0.25
  11  15  -5    1.15    0.21
 -11 -15   5    1.46    0.27
   9  15  -5    0.02    0.15
  -9 -15   5    0.05    0.12
   7  15  -5    1.68    0.24
  -7 -15   5    1.99    0.26
   5  15  -5   -0.07    0.12
  -5 -15   5   -0.04    0.09
   3  15  -5    0.26    0.14
  -3 -15   5    0.26    0.13
   1  15  -5    2.67    0.29
   1  15  -5    2.88    0.21
  -1 -15   5    2.68    0.25
  -1  15  -5    2.79    0.31
  -1  15  -5    2.73    0.21
   1 -15   5    2.91    0.23
  -3  15  -5    0.34    0.16
  -3  15  -5    0.24    0.12
   3 -15   5    0.26    0.11
  -5  15  -5    0.03    0.12
  -5  15  -5    0.15    0.12
   5 -15   5    0.03    0.08
  -7  15  -5    2.05    0.25
  -7  15  -5    1.55    0.26
  -9  15  -5   -0.32    0.11
  -9  15  -5    0.18    0.14
 -11  15  -5    0.95    0.25
 -11  15  -5    0.84    0.23
 -13  15  -5    0.88    0.25
 -13  15  -5    1.11    0.27
 -15  15  -5   -0.08    0.17
 -15  15  -5   -0.03    0.19
 -17  15  -5   -0.20    0.19
 -17  15  -5    0.10    0.20
 -19  15  -5    0.93    0.30
 -19  15  -5    0.59    0.26
 -21  15  -5    0.09    0.24
 -21  15  -5    0.01    0.24
 -23  15  -5    0.26    0.28
 -25  15  -5    0.42    0.29
 -27  15  -5   -0.18    0.26
 -29  15  -5   -0.13    0.28
 -29 -13   5   -0.19    0.21
 -27 -13   5    0.48    0.27
 -25 -13   5    0.30    0.23
 -23 -13   5    0.13    0.18
 -21 -13   5    0.00    0.15
 -19 -13   5    0.00    0.15
 -17 -13   5    0.91    0.24
 -15 -13   5    0.76    0.22
  13  13  -5   -0.08    0.14
 -13 -13   5    0.15    0.14
  11  13  -5    2.66    0.28
 -11 -13   5    2.76    0.31
   9  13  -5    0.16    0.12
  -9 -13   5   -0.05    0.10
   7  13  -5    0.41    0.15
  -7 -13   5    0.28    0.12
   5  13  -5    0.08    0.11
  -5 -13   5   -0.02    0.09
   3  13  -5    0.19    0.11
  -3 -13   5    0.13    0.09
   1  13  -5    4.00    0.31
   1  13  -5    3.85    0.20
  -1 -13   5    4.00    0.27
  -1  13  -5    3.89    0.22
  -1  13  -5    3.98    0.32
   1 -13   5    3.28    0.23
  -3  13  -5    0.11    0.08
  -3  13  -5    0.17    0.12
   3 -13   5   -0.03    0.07
  -5  13  -5   -0.07    0.10
  -5  13  -5    0.15    0.10
   5 -13   5    0.03    0.06
  -7  13  -5    0.67    0.16
  -7  13  -5    0.34    0.15
   7 -13   5    0.45    0.08
  -9  13  -5    0.21    0.15
  -9  13  -5    0.12    0.12
 -11  13  -5    2.45    0.30
 -11  13  -5    2.63    0.31
 -13  13  -5   -0.20    0.14
 -13  13  -5   -0.16    0.14
 -15  13  -5    0.88    0.26
 -15  13  -5    0.87    0.23
 -17  13  -5    0.88    0.25
 -17  13  -5    0.96    0.29
 -19  13  -5    0.02    0.19
 -19  13  -5   -0.18    0.18
 -21  13  -5   -0.12    0.21
 -21  13  -5   -0.26    0.18
 -23  13  -5    0.45    0.26
 -25  13  -5   -0.01    0.23
 -27  13  -5   -0.01    0.28
 -29  13  -5    0.30    0.31
 -31  13  -5    0.41    0.34
 -31 -11   5    0.09    0.28
 -29 -11   5   -0.14    0.21
 -27 -11   5   -0.10    0.20
 -25 -11   5   -0.03    0.19
 -23 -11   5    1.13    0.29
 -21 -11   5    0.12    0.18
 -19 -11   5   -0.10    0.14
 -17 -11   5   -0.18    0.11
 -15 -11   5    0.91    0.22
  13  11  -5    2.58    0.26
 -13 -11   5    2.56    0.30
  11  11  -5    0.04    0.11
 -11 -11   5    0.08    0.09
 -11 -11   5    0.05    0.12
   9  11  -5   -0.15    0.10
  -9 -11   5    0.07    0.09
   7  11  -5    1.24    0.18
  -7 -11   5    1.25    0.19
   5  11  -5   -0.04    0.09
  -5 -11   5    0.05    0.07
   3  11  -5    6.18    0.35
  -3 -11   5    6.30    0.33
   1  11  -5    3.21    0.26
  -1 -11   5    3.10    0.22
  -1  11  -5    3.40    0.28
  -1  11  -5    3.22    0.19
   1 -11   5    3.19    0.21
  -3  11  -5    6.96    0.39
  -3  11  -5    6.83    0.30
   3 -11   5    6.38    0.26
  -5  11  -5   -0.11    0.07
  -5  11  -5    0.01    0.09
   5 -11   5    0.01    0.05
  -7  11  -5    1.00    0.17
  -7  11  -5    1.47    0.21
   7 -11   5    1.31    0.10
  -9  11  -5   -0.07    0.12
  -9  11  -5    0.04    0.12
 -11  11  -5    0.06    0.12
 -11  11  -5    0.03    0.14
 -13  11  -5    2.88    0.32
 -13  11  -5    2.32    0.32
 -15  11  -5    1.04    0.23
 -15  11  -5    0.82    0.25
 -17  11  -5    0.07    0.15
 -17  11  -5   -0.07    0.17
 -19  11  -5    0.23    0.17
 -19  11  -5    0.25    0.19
 -21  11  -5    0.28    0.21
 -21  11  -5    0.20    0.21
 -23  11  -5    0.68    0.26
 -25  11  -5    0.00    0.21
 -27  11  -5    0.30    0.27
 -29  11  -5    0.37    0.29
 -31  11  -5   -0.16    0.30
 -31  -9   5    0.31    0.28
 -29  -9   5    0.05    0.23
 -27  -9   5    0.00    0.20
 -25  -9   5    0.00    0.21
 -23  -9   5    0.31    0.20
 -21  -9   5    0.23    0.20
 -19  -9   5    0.49    0.20
 -17  -9   5    0.33    0.16
 -17  -9   5    0.09    0.14
 -15  -9   5    0.04    0.12
 -15  -9   5    0.12    0.12
 -13  -9   5    0.13    0.10
 -13  -9   5    0.02    0.11
  11   9  -5   -0.04    0.09
 -11  -9   5    0.06    0.09
 -11  -9   5    0.07    0.08
   9   9  -5   -0.01    0.09
  -9  -9   5   -0.10    0.07
  -9  -9   5    0.00    0.06
   7   9  -5    1.61    0.19
  -7  -9   5    2.54    0.24
   5   9  -5    0.03    0.07
  -5  -9   5    0.03    0.06
   3   9  -5    0.26    0.10
  -3  -9   5    0.05    0.07
   1   9  -5    1.18    0.15
  -1  -9   5    0.90    0.12
  -1   9  -5    0.85    0.10
  -1   9  -5    1.17    0.16
   1  -9   5    0.80    0.11
  -3   9  -5    0.02    0.07
  -3   9  -5    0.04    0.08
   3  -9   5    0.05    0.05
  -5   9  -5   -0.01    0.08
  -5   9  -5    0.08    0.08
   5  -9   5   -0.01    0.04
  -7   9  -5    1.98    0.21
  -7   9  -5    1.66    0.21
   7  -9   5    1.87    0.11
  -9   9  -5    0.00    0.09
  -9   9  -5   -0.02    0.09
   9  -9   5    0.00    0.04
 -11   9  -5   -0.19    0.09
 -11   9  -5    0.06    0.12
 -13   9  -5    0.12    0.15
 -13   9  -5   -0.02    0.11
 -15   9  -5    0.09    0.15
 -15   9  -5   -0.04    0.13
 -17   9  -5    0.38    0.20
 -19   9  -5    0.62    0.25
 -21   9  -5   -0.16    0.20
 -23   9  -5    0.08    0.20
 -25   9  -5    0.47    0.26
 -27   9  -5    0.14    0.26
 -29   9  -5   -0.28    0.22
 -31   9  -5    0.50    0.40
 -29  -7   5    0.22    0.25
 -27  -7   5   -0.07    0.20
 -25  -7   5    0.02    0.18
 -23  -7   5    0.70    0.25
 -23  -7   5    0.79    0.27
 -21  -7   5   -0.18    0.11
 -21  -7   5    0.19    0.19
 -19  -7   5    0.03    0.14
 -19  -7   5    0.08    0.15
 -17  -7   5    0.00    0.12
 -17  -7   5    0.04    0.11
 -15  -7   5    1.58    0.22
 -15  -7   5    2.27    0.28
 -13  -7   5    0.27    0.13
 -13  -7   5    0.61    0.14
 -11  -7   5    1.32    0.15
 -11  -7   5    0.93    0.18
   9   7  -5    1.85    0.20
  -9  -7   5    1.89    0.15
  -9  -7   5    1.83    0.21
   7   7  -5    0.02    0.08
  -7  -7   5   -0.06    0.06
   5   7  -5   -0.05    0.08
  -5  -7   5    0.02    0.06
   3   7  -5    0.46    0.11
  -3  -7   5    0.50    0.10
   1   7  -5    5.30    0.28
  -1  -7   5    5.60    0.25
  -1   7  -5    4.98    0.27
   1  -7   5    5.00    0.22
  -3   7  -5    0.36    0.10
  -3   7  -5    0.74    0.10
   3  -7   5    0.57    0.08
  -5   7  -5    0.09    0.07
  -5   7  -5    0.12    0.08
   5  -7   5    0.05    0.04
  -7   7  -5   -0.01    0.03
  -7   7  -5   -0.03    0.07
  -7   7  -5   -0.03    0.08
   7  -7   5   -0.03    0.04
  -9   7  -5    1.60    0.21
  -9   7  -5    1.61    0.19
   9  -7   5    1.77    0.12
 -11   7  -5    1.30    0.21
 -11   7  -5    1.42    0.20
  11  -7   5    1.07    0.10
 -13   7  -5    0.51    0.19
 -13   7  -5    0.55    0.16
  13  -7   5    0.48    0.09
 -15   7  -5    2.06    0.30
 -17   7  -5   -0.03    0.17
 -19   7  -5   -0.06    0.14
 -21   7  -5    0.15    0.21
 -23   7  -5    0.88    0.30
 -25   7  -5    0.39    0.28
 -27   7  -5    0.32    0.28
 -29   7  -5    0.07    0.31
 -31   7  -5    0.18    0.32
 -33   7  -5    0.36    0.37
 -27  -5   5   -0.31    0.21
 -27  -5   5    0.18    0.21
 -25  -5   5   -0.12    0.17
 -25  -5   5   -0.09    0.21
 -23  -5   5    0.13    0.19
 -23  -5   5    0.11    0.16
 -21  -5   5   -0.03    0.17
 -21  -5   5   -0.19    0.12
 -19  -5   5   -0.03    0.14
 -19  -5   5    0.08    0.12
 -17  -5   5    0.06    0.12
 -17  -5   5   -0.05    0.10
 -15  -5   5    0.09    0.12
 -15  -5   5   -0.10    0.11
 -13  -5   5   -0.11    0.09
 -13  -5   5    0.01    0.10
 -11  -5   5    0.00    0.07
 -11  -5   5   -0.07    0.07
  -9  -5   5    0.05    0.06
  -9  -5   5   -0.08    0.06
   7   5  -5    0.01    0.07
  -7  -5   5    0.11    0.07
   5   5  -5    0.06    0.07
  -5  -5   5    0.02    0.06
   3   5  -5    0.10    0.07
  -3  -5   5    0.02    0.05
   1   5  -5    0.01    0.06
  -1  -5   5   -0.01    0.04
  -1   5  -5    0.06    0.06
   1  -5   5    0.01    0.04
  -3   5  -5    0.01    0.05
  -3   5  -5    0.04    0.06
   3  -5   5    0.02    0.04
  -5   5  -5    0.04    0.06
  -5   5  -5   -0.07    0.06
   5  -5   5    0.01    0.04
  -7   5  -5    0.02    0.07
  -7   5  -5    0.09    0.07
   7  -5   5    0.01    0.05
  -9   5  -5   -0.10    0.07
  -9   5  -5    0.00    0.07
   9  -5   5    0.03    0.05
 -11   5  -5    0.14    0.12
 -11   5  -5   -0.02    0.08
  11  -5   5    0.03    0.05
 -13   5  -5   -0.01    0.12
 -13   5  -5    0.06    0.10
  13  -5   5    0.07    0.06
 -15   5  -5   -0.09    0.11
  15  -5   5   -0.01    0.07
 -17   5  -5   -0.01    0.15
 -19   5  -5   -0.17    0.14
 -21   5  -5   -0.08    0.16
 -23   5  -5   -0.09    0.19
 -25   5  -5   -0.14    0.23
 -27   5  -5   -0.01    0.27
 -29   5  -5    0.28    0.30
 -31   5  -5   -0.12    0.32
 -33   5  -5    0.29    0.38
 -29  -3   5    0.03    0.28
 -27  -3   5    0.37    0.27
 -25  -3   5   -0.11    0.15
 -25  -3   5    0.25    0.25
 -23  -3   5    0.65    0.27
 -23  -3   5    1.44    0.28
 -21  -3   5   -0.06    0.12
 -21  -3   5   -0.15    0.14
 -19  -3   5    0.24    0.14
 -19  -3   5    0.52    0.19
 -17  -3   5    1.79    0.26
 -17  -3   5    1.47    0.24
 -15  -3   5    0.28    0.13
 -15  -3   5    0.32    0.14
 -13  -3   5    0.11    0.11
 -13  -3   5    0.01    0.08
 -11  -3   5    6.57    0.34
 -11  -3   5    6.31    0.32
  -9  -3   5    0.15    0.08
  -9  -3   5    0.17    0.08
  -7  -3   5    0.28    0.08
  -7  -3   5    0.61    0.09
   5   3  -5    0.13    0.08
  -5  -3   5    0.05    0.06
   3   3  -5    0.03    0.06
  -3  -3   5    0.18    0.07
   1   3  -5    2.09    0.16
  -1  -3   5    1.84    0.14
  -1   3  -5    2.00    0.15
   1  -3   5    2.09    0.14
  -3   3  -5    0.04    0.05
  -3   3  -5    0.08    0.06
   3  -3   5    0.14    0.05
  -5   3  -5    0.07    0.06
  -5   3  -5    0.03    0.04
  -5   3  -5    0.00    0.05
   5  -3   5    0.00    0.04
  -7   3  -5    0.51    0.12
  -7   3  -5    0.60    0.09
   7  -3   5    0.42    0.07
  -9   3  -5    0.09    0.07
  -9   3  -5   -0.01    0.07
   9  -3   5    0.19    0.06
 -11   3  -5    6.31    0.38
 -11   3  -5    6.87    0.30
  11  -3   5    6.75    0.27
 -13   3  -5    0.00    0.08
 -13   3  -5    0.10    0.11
 -13   3  -5    0.05    0.07
 -15   3  -5    0.27    0.11
 -15   3  -5    0.20    0.16
 -15   3  -5    0.15    0.11
 -17   3  -5    1.95    0.20
 -17   3  -5    1.89    0.29
 -19   3  -5    0.56    0.24
 -21   3  -5   -0.12    0.19
 -23   3  -5    0.80    0.29
 -25   3  -5   -0.05    0.21
 -27   3  -5    0.46    0.29
 -29   3  -5    0.19    0.31
 -31   3  -5    0.08    0.29
 -33   3  -5    0.27    0.36
 -33  -1   5   -0.01    0.35
 -31  -1   5   -0.01    0.28
 -29  -1   5    0.52    0.34
 -27  -1   5    0.10    0.25
 -25  -1   5   -0.06    0.19
 -23  -1   5    0.03    0.16
 -23  -1   5    0.18    0.21
 -21  -1   5    0.01    0.15
 -21  -1   5   -0.14    0.15
 -19  -1   5    0.17    0.16
 -19  -1   5   -0.12    0.10
 -17  -1   5   -0.05    0.11
 -17  -1   5   -0.09    0.14
 -15  -1   5    2.87    0.28
 -15  -1   5    2.20    0.23
 -13  -1   5    2.96    0.24
 -13  -1   5    3.72    0.29
 -11  -1   5    3.14    0.24
 -11  -1   5    3.20    0.24
  -9  -1   5    0.67    0.11
  -9  -1   5    0.90    0.13
  -7  -1   5    5.05    0.23
  -7  -1   5    5.17    0.25
  -5  -1   5    0.13    0.06
  -5  -1   5    0.02    0.06
  -3  -1   5    2.22    0.14
   1   1  -5    0.10    0.06
  -1  -1   5    0.03    0.04
  -1   1  -5    0.11    0.06
   1  -1   5    0.07    0.04
  -3   1  -5    2.24    0.14
   3  -1   5    2.01    0.13
  -5   1  -5    0.07    0.07
   5  -1   5    0.02    0.04
  -7   1  -5    4.69    0.19
  -7   1  -5    5.33    0.28
   7  -1   5    4.71    0.21
  -9   1  -5    0.98    0.10
  -9   1  -5    0.83    0.11
  -9   1  -5    1.15    0.17
 -11   1  -5    2.99    0.27
 -11   1  -5    3.46    0.21
 -11   1  -5    3.53    0.19
 -13   1  -5    4.17    0.22
 -13   1  -5    3.54    0.24
 -13   1  -5    3.53    0.31
 -15   1  -5    2.90    0.21
 -15   1  -5    2.45    0.22
 -15   1  -5    2.51    0.30
 -17   1  -5    0.13    0.10
 -17   1  -5    0.17    0.17
 -19   1  -5    0.01    0.12
 -19   1  -5    0.00    0.14
 -21   1  -5   -0.14    0.12
 -21   1  -5   -0.03    0.19
 -23   1  -5    0.09    0.22
 -25   1  -5   -0.21    0.21
 -27   1  -5    0.02    0.24
 -29   1  -5    0.09    0.29
 -31   1  -5   -0.08    0.29
 -33   1  -5    0.10    0.37
 -33   1   5    0.15    0.38
 -31   1   5    0.04    0.30
 -29   1   5   -0.41    0.25
 -27   1   5    0.46    0.30
 -25   1   5    0.06    0.22
 -23   1   5    0.01    0.19
 -21   1   5    0.06    0.19
 -21   1   5    0.00    0.14
 -19   1   5    0.10    0.13
 -19   1   5   -0.12    0.14
 -17   1   5    0.04    0.15
 -17   1   5    0.06    0.10
 -15   1   5    2.45    0.23
 -15   1   5    2.67    0.29
 -13   1   5    3.14    0.27
 -13   1   5    3.81    0.26
 -11   1   5    3.36    0.26
 -11   1   5    3.28    0.22
  -9   1   5    0.92    0.12
  -9   1   5    0.84    0.13
  -7   1   5    5.72    0.25
  -7   1   5    5.39    0.27
  -5   1   5   -0.01    0.05
  -5   1   5    0.06    0.06
  -3   1   5    2.05    0.14
  -3   1   5    2.57    0.16
  -1   1   5    0.01    0.04
   1   1   5    0.03    0.04
  -3  -1  -5    2.14    0.14
  -3  -1  -5    2.23    0.15
   3   1   5    1.69    0.13
  -5  -1  -5   -0.05    0.06
   5   1   5   -0.05    0.04
  -7  -1  -5    5.14    0.28
  -7  -1  -5    5.15    0.24
  -9  -1  -5    0.67    0.14
  -9  -1  -5    0.82    0.12
 -11  -1  -5    3.06    0.22
 -11  -1  -5    2.85    0.26
 -13  -1  -5    3.68    0.25
 -13  -1  -5    3.65    0.32
 -15  -1  -5    3.32    0.26
 -15  -1  -5    2.59    0.31
 -17  -1  -5    0.17    0.15
 -17  -1  -5    0.10    0.10
 -19  -1  -5    0.05    0.17
 -19  -1  -5    0.09    0.12
 -21  -1  -5    0.02    0.17
 -21  -1  -5   -0.03    0.12
 -23  -1  -5   -0.05    0.15
 -23  -1  -5    0.02    0.20
 -25  -1  -5   -0.16    0.22
 -27  -1  -5    0.39    0.28
 -29  -1  -5    0.30    0.30
 -31  -1  -5    0.14    0.34
 -33  -1  -5   -0.15    0.34
 -33   3   5   -0.20    0.35
 -31   3   5    0.29    0.32
 -29   3   5    0.22    0.28
 -27   3   5    0.18    0.27
 -25   3   5   -0.21    0.22
 -23   3   5    0.96    0.28
 -21   3   5    0.09    0.19
 -19   3   5    0.32    0.18
 -19   3   5    0.47    0.16
 -17   3   5    1.86    0.21
 -17   3   5    1.74    0.27
 -15   3   5    0.25    0.12
 -15   3   5    0.42    0.17
 -13   3   5    0.07    0.08
 -13   3   5    0.04    0.11
 -11   3   5    6.72    0.29
 -11   3   5    6.21    0.35
  -9   3   5    0.04    0.07
  -9   3   5    0.19    0.08
  -7   3   5    0.54    0.11
  -7   3   5    0.54    0.09
  -5   3   5    0.00    0.06
  -5   3   5   -0.03    0.05
  -3   3   5    0.10    0.06
  -3   3   5    0.10    0.06
  -1   3   5    2.27    0.15
  -1  -3  -5    2.09    0.14
   1   3   5    1.98    0.13
   3   3   5    0.01    0.05
  -5  -3  -5   -0.02    0.05
  -5  -3  -5    0.08    0.06
  -7  -3  -5    0.54    0.12
  -7  -3  -5    0.52    0.10
  -9  -3  -5   -0.06    0.05
  -9  -3  -5    0.07    0.07
 -11  -3  -5    6.59    0.33
 -11  -3  -5    6.89    0.39
 -13  -3  -5   -0.01    0.08
 -13  -3  -5   -0.01    0.09
 -15  -3  -5   -0.05    0.10
 -15  -3  -5    0.33    0.18
 -17  -3  -5    2.09    0.25
 -17  -3  -5    2.61    0.32
 -19  -3  -5    0.47    0.22
 -19  -3  -5    0.45    0.18
 -21  -3  -5   -0.08    0.16
 -21  -3  -5    0.14    0.13
 -23  -3  -5    0.78    0.28
 -23  -3  -5    1.09    0.24
 -25  -3  -5    0.05    0.16
 -25  -3  -5   -0.07    0.19
 -27  -3  -5    0.00    0.25
 -29  -3  -5    0.19    0.28
 -31  -3  -5   -0.16    0.29
 -33  -3  -5   -0.08    0.36
 -33   5   5    0.00    0.35
 -31   5   5    0.03    0.31
 -29   5   5   -0.04    0.28
 -27   5   5   -0.23    0.24
 -25   5   5    0.01    0.22
 -23   5   5   -0.02    0.20
 -21   5   5   -0.07    0.18
 -19   5   5    0.00    0.16
 -17   5   5    0.11    0.11
 -17   5   5    0.02    0.15
 -15   5   5   -0.08    0.07
 -15   5   5   -0.03    0.11
 -13   5   5   -0.10    0.10
 -13   5   5    0.00    0.07
 -11   5   5    0.01    0.07
 -11   5   5    0.06    0.10
  -9   5   5    0.05    0.06
  -9   5   5    0.07    0.09
  -7   5   5   -0.04    0.05
  -7   5   5    0.00    0.06
  -5   5   5   -0.01    0.05
  -5   5   5    0.06    0.05
  -3   5   5    0.03    0.05
  -3   5   5    0.03    0.06
   1  -5  -5    0.02    0.05
  -1   5   5    0.06    0.05
   1   5   5    0.06    0.05
  -3  -5  -5    0.14    0.06
   3   5   5    0.00    0.05
  -5  -5  -5    0.00    0.05
  -5  -5  -5    0.08    0.06
  -7  -5  -5   -0.05    0.05
  -7  -5  -5   -0.07    0.05
  -9  -5  -5   -0.08    0.06
  -9  -5  -5    0.03    0.07
 -11  -5  -5   -0.02    0.08
 -11  -5  -5   -0.15    0.08
 -13  -5  -5   -0.08    0.08
 -13  -5  -5   -0.04    0.09
 -15  -5  -5   -0.12    0.11
 -15  -5  -5   -0.11    0.09
 -17  -5  -5    0.04    0.16
 -17  -5  -5    0.21    0.12
 -19  -5  -5    0.14    0.18
 -19  -5  -5    0.11    0.14
 -21  -5  -5   -0.01    0.12
 -21  -5  -5   -0.05    0.18
 -23  -5  -5   -0.30    0.20
 -23  -5  -5   -0.02    0.16
 -25  -5  -5    0.26    0.19
 -25  -5  -5    0.08    0.21
 -27  -5  -5   -0.09    0.26
 -29  -5  -5    0.36    0.31
 -31  -5  -5   -0.22    0.30
 -33  -5  -5   -0.18    0.38
 -33   7   5    0.29    0.36
 -31   7   5    0.29    0.37
 -29   7   5    0.17    0.31
 -27   7   5   -0.20    0.23
 -25   7   5    0.02    0.23
 -23   7   5   -0.01    0.23
 -21   7   5    0.12    0.20
 -19   7   5   -0.11    0.15
 -17   7   5   -0.10    0.14
 -15   7   5    1.54    0.26
 -15   7   5    2.01    0.18
 -13   7   5    0.54    0.11
 -13   7   5    0.28    0.16
 -11   7   5    1.20    0.20
 -11   7   5    1.38    0.13
  -9   7   5    1.40    0.20
  -9   7   5    2.20    0.16
  -7   7   5    0.09    0.10
  -7   7   5    0.05    0.06
  -5   7   5   -0.03    0.05
  -5   7   5   -0.01    0.06
   3  -7  -5    0.16    0.05
  -3   7   5    0.46    0.11
  -3   7   5    0.56    0.09
  -1   7   5    4.98    0.23
   1   7   5    4.81    0.24
  -3  -7  -5    0.44    0.10
  -5  -7  -5    0.00    0.06
  -7  -7  -5   -0.01    0.08
  -7  -7  -5   -0.07    0.05
  -9  -7  -5    1.56    0.19
  -9  -7  -5    1.57    0.20
 -11  -7  -5    1.45    0.21
 -11  -7  -5    0.99    0.18
 -13  -7  -5    0.49    0.15
 -13  -7  -5    0.47    0.17
 -15  -7  -5    1.36    0.23
 -15  -7  -5    1.99    0.28
 -17  -7  -5    0.14    0.11
 -17  -7  -5    0.00    0.13
 -19  -7  -5    0.07    0.18
 -19  -7  -5   -0.03    0.13
 -21  -7  -5    0.03    0.15
 -21  -7  -5    0.29    0.21
 -23  -7  -5    0.70    0.30
 -23  -7  -5    0.98    0.26
 -25  -7  -5    0.14    0.19
 -25  -7  -5    0.07    0.24
 -27  -7  -5    0.22    0.28
 -27  -7  -5    0.32    0.21
 -29  -7  -5    0.05    0.30
 -31  -7  -5   -0.27    0.31
 -33  -7  -5    0.29    0.41
 -31   9   5   -0.01    0.34
 -29   9   5    0.15    0.30
 -27   9   5    0.14    0.27
 -25   9   5    0.31    0.25
 -23   9   5    0.05    0.25
 -21   9   5    0.18    0.21
 -19   9   5    0.18    0.21
 -17   9   5    0.21    0.19
 -15   9   5    0.19    0.16
 -13   9   5    0.06    0.07
 -13   9   5   -0.02    0.11
 -11   9   5    0.05    0.11
 -11   9   5    0.00    0.07
  -9   9   5    0.02    0.06
  -9   9   5    0.00    0.11
   7  -9  -5    2.05    0.15
  -7   9   5    1.45    0.20
  -7   9   5    1.93    0.15
  -5   9   5   -0.06    0.07
  -5   9   5   -0.06    0.05
  -3   9   5    0.02    0.07
  -3   9   5    0.15    0.07
  -1   9   5    1.06    0.12
  -1  -9  -5    0.90    0.13
  -3  -9  -5   -0.04    0.06
  -5  -9  -5    0.05    0.07
  -7  -9  -5    1.49    0.20
  -9  -9  -5   -0.08    0.07
  -9  -9  -5    0.02    0.09
 -11  -9  -5    0.03    0.09
 -11  -9  -5   -0.15    0.10
 -13  -9  -5    0.00    0.11
 -13  -9  -5   -0.11    0.10
 -15  -9  -5    0.05    0.11
 -15  -9  -5    0.01    0.14
 -17  -9  -5    0.39    0.16
 -17  -9  -5    0.40    0.20
 -19  -9  -5    0.35    0.17
 -19  -9  -5    0.41    0.25
 -21  -9  -5    0.05    0.19
 -21  -9  -5    0.21    0.16
 -23  -9  -5    0.07    0.24
 -23  -9  -5   -0.01    0.16
 -25  -9  -5    0.19    0.23
 -25  -9  -5   -0.03    0.19
 -27  -9  -5    0.13    0.21
 -27  -9  -5    0.22    0.30
 -29  -9  -5    0.04    0.22
 -29  -9  -5   -0.05    0.29
 -31  -9  -5    0.23    0.37
 -31  11   5   -0.13    0.35
 -29  11   5   -0.50    0.29
 -27  11   5    0.05    0.29
 -25  11   5   -0.20    0.25
 -23  11   5    0.42    0.26
 -21  11   5    0.06    0.20
 -19  11   5    0.15    0.21
 -17  11   5    0.19    0.20
 -15  11   5    1.03    0.24
 -13  11   5    1.74    0.28
 -11  11   5   -0.02    0.07
 -11  11   5   -0.16    0.10
  -9  11   5    0.02    0.12
  -9  11   5   -0.13    0.07
  -7  11   5    1.10    0.13
  -7  11   5    1.05    0.19
  -5  11   5   -0.01    0.09
  -5  11   5   -0.14    0.06
  -3  11   5    6.05    0.37
  -3  11   5    6.43    0.29
  -1  11   5    2.85    0.21
  -1 -11  -5    3.16    0.23
  -3 -11  -5    6.18    0.33
  -5 -11  -5   -0.06    0.07
  -7 -11  -5    1.14    0.19
  -9 -11  -5    0.07    0.09
   9  11   5    0.04    0.07
 -11 -11  -5   -0.10    0.10
 -13 -11  -5    2.47    0.29
 -13 -11  -5    3.26    0.33
 -15 -11  -5    0.65    0.21
 -15 -11  -5    1.22    0.24
 -17 -11  -5    0.06    0.14
 -17 -11  -5    0.32    0.16
 -19 -11  -5    0.05    0.17
 -19 -11  -5    0.04    0.13
 -21 -11  -5    0.34    0.24
 -21 -11  -5    0.44    0.21
 -23 -11  -5    0.22    0.25
 -23 -11  -5    0.85    0.26
 -25 -11  -5    0.11    0.25
 -25 -11  -5    0.29    0.21
 -27 -11  -5   -0.07    0.24
 -27 -11  -5    0.12    0.23
 -29 -11  -5    0.13    0.25
 -29 -11  -5    0.35    0.31
 -31 -11  -5    0.08    0.35
 -31 -11  -5    0.00    0.27
 -31  13   5   -0.13    0.38
 -29  13   5    0.00    0.33
 -27  13   5    0.26    0.32
 -25  13   5    0.03    0.27
 -23  13   5   -0.13    0.22
 -21  13   5    0.08    0.23
 -19  13   5   -0.01    0.18
 -17  13   5    1.29    0.29
 -15  13   5    0.71    0.25
 -13  13   5   -0.01    0.16
 -11  13   5    2.67    0.33
  -9  13   5    0.12    0.14
  -9  13   5   -0.01    0.07
  -7  13   5    0.50    0.11
  -7  13   5    0.24    0.14
  -5  13   5   -0.07    0.09
  -5  13   5    0.04    0.06
  -3  13   5    0.16    0.09
  -3  13   5    0.06    0.10
  -1  13   5    3.29    0.24
  -1  13   5    3.67    0.31
  -1 -13  -5    3.55    0.26
  -3 -13  -5    0.05    0.09
  -5 -13  -5    0.07    0.09
  -7 -13  -5    0.56    0.16
  -9 -13  -5   -0.02    0.09
   9  13   5   -0.01    0.08
 -11 -13  -5    2.15    0.29
 -13 -13  -5    0.07    0.13
 -15 -13  -5    0.85    0.26
 -15 -13  -5    1.16    0.25
 -17 -13  -5    1.57    0.29
 -17 -13  -5    1.39    0.29
 -19 -13  -5   -0.31    0.15
 -19 -13  -5    0.13    0.16
 -21 -13  -5   -0.19    0.20
 -21 -13  -5    0.08    0.16
 -23 -13  -5    0.20    0.26
 -23 -13  -5    0.46    0.24
 -25 -13  -5    0.17    0.28
 -25 -13  -5    0.05    0.19
 -27 -13  -5   -0.15    0.27
 -27 -13  -5    0.10    0.23
 -29 -13  -5    0.04    0.23
 -29  15   5   -0.09    0.35
 -27  15   5    0.40    0.36
 -25  15   5   -0.12    0.28
 -23  15   5    0.10    0.23
 -21  15   5    0.22    0.24
 -19  15   5    0.52    0.26
 -17  15   5   -0.24    0.15
 -15  15   5    0.24    0.17
 -13  15   5    1.27    0.29
 -11  15   5    1.17    0.26
  -9  15   5    0.10    0.15
  -7  15   5    1.65    0.26
  -7  15   5    2.09    0.18
  -5  15   5    0.02    0.11
  -5  15   5   -0.01    0.08
  -3  15   5    0.13    0.10
  -3  15   5    0.04    0.13
  -1  15   5    2.54    0.23
  -1  15   5    2.70    0.29
  -1 -15  -5    2.55    0.24
  -3 -15  -5    0.22    0.13
  -5 -15  -5    0.08    0.11
  -7 -15  -5    1.98    0.26
   7  15   5    2.11    0.22
  -9 -15  -5    0.02    0.12
 -11 -15  -5    1.36    0.25
 -13 -15  -5    0.64    0.20
 -15 -15  -5   -0.14    0.15
 -17 -15  -5   -0.04    0.15
 -19 -15  -5    0.37    0.22
 -21 -15  -5    0.49    0.28
 -21 -15  -5    0.49    0.21
 -23 -15  -5    0.35    0.23
 -23 -15  -5    0.52    0.32
 -25 -15  -5    0.22    0.22
 -27 -15  -5    0.14    0.21
 -29  17   5   -0.18    0.33
 -27  17   5    0.03    0.30
 -25  17   5    0.13    0.26
 -23  17   5   -0.19    0.25
 -21  17   5    0.05    0.23
 -19  17   5    0.17    0.24
 -17  17   5   -0.04    0.16
 -15  17   5    0.13    0.19
 -13  17   5    0.87    0.25
 -11  17   5    0.07    0.15
  -9  17   5    0.20    0.19
  -7  17   5   -0.04    0.14
  -5  17   5    0.08    0.12
  -5  17   5    0.03    0.09
  -3  17   5    2.18    0.22
  -3  17   5    1.73    0.27
  -1  17   5    0.05    0.10
  -1  17   5    0.04    0.13
  -1 -17  -5    0.01    0.10
  -3 -17  -5    2.07    0.26
  -5 -17  -5    0.03    0.10
  -7 -17  -5    0.09    0.13
   7  17   5   -0.04    0.11
  -9 -17  -5    0.14    0.14
 -11 -17  -5   -0.08    0.11
 -13 -17  -5    1.40    0.29
 -15 -17  -5   -0.11    0.13
 -17 -17  -5    0.00    0.15
 -19 -17  -5    0.32    0.20
 -21 -17  -5    0.64    0.26
 -23 -17  -5    0.29    0.19
 -25 -17  -5   -0.04    0.19
 -27 -17  -5   -0.03    0.22
 -27  19   5   -0.15    0.29
 -25  19   5    0.14    0.30
 -23  19   5    0.23    0.28
 -21  19   5    0.14    0.26
 -19  19   5   -0.22    0.18
 -17  19   5    0.20    0.23
 -15  19   5    0.04    0.19
 -13  19   5    0.01    0.17
 -11  19   5   -0.16    0.16
  -9  19   5    0.22    0.20
  -7  19   5    0.01    0.16
  -5  19   5   -0.03    0.15
  -3  19   5    0.40    0.19
  -3  19   5    0.43    0.15
  -1  19   5   -0.04    0.14
  -1  19   5    0.17    0.11
  -1 -19  -5   -0.02    0.11
   1  19   5   -0.10    0.15
  -3 -19  -5    0.31    0.16
  -5 -19  -5    0.08    0.14
   5  19   5    0.04    0.14
  -7 -19  -5    0.09    0.13
   7  19   5    0.12    0.16
  -9 -19  -5    0.23    0.17
 -11 -19  -5   -0.13    0.14
 -13 -19  -5    0.08    0.17
 -15 -19  -5    0.14    0.20
 -17 -19  -5    0.34    0.23
 -19 -19  -5    0.15    0.22
 -21 -19  -5    0.28    0.22
 -23 -19  -5    0.14    0.21
 -25 -19  -5    0.16    0.22
 -25  21   5   -0.20    0.22
 -23  21   5   -0.29    0.27
 -21  21   5   -0.14    0.24
 -19  21   5   -0.04    0.23
 -17  21   5    0.11    0.23
 -15  21   5    0.52    0.27
 -13  21   5   -0.18    0.17
 -11  21   5   -0.02    0.20
  -9  21   5    0.07    0.17
  -7  21   5   -0.14    0.13
  -5  21   5    0.03    0.17
  -3  21   5   -0.11    0.15
  -1  21   5    0.08    0.13
  -1  21   5    0.07    0.18
  -1 -21  -5   -0.13    0.13
   1  21   5   -0.02    0.17
  -3 -21  -5    0.01    0.14
   3  21   5    0.07    0.16
  -5 -21  -5   -0.12    0.13
   5  21   5    0.20    0.18
  -7 -21  -5    0.18    0.17
  -9 -21  -5   -0.01    0.15
 -11 -21  -5    0.44    0.22
 -13 -21  -5   -0.10    0.17
 -15 -21  -5    0.11    0.20
 -17 -21  -5    0.42    0.24
 -19 -21  -5    0.12    0.23
 -21 -21  -5   -0.01    0.22
 -23 -21  -5    0.02    0.23
 -23  23   5    0.22    0.33
 -21  23   5    0.15    0.31
 -19  23   5   -0.13    0.21
 -17  23   5    0.42    0.29
 -15  23   5    0.02    0.23
 -13  23   5    0.21    0.24
 -11  23   5    0.60    0.30
  -9  23   5    0.16    0.20
  -7  23   5    0.93    0.28
  -5  23   5    0.15    0.19
  -3  23   5    0.91    0.27
  -1  23   5   -0.13    0.18
  -1 -23  -5    0.22    0.18
   1  23   5    0.03    0.18
  -3 -23  -5    1.22    0.26
   3  23   5    0.42    0.22
   3  23   5    1.08    0.27
  -5 -23  -5   -0.08    0.17
   5  23   5   -0.04    0.17
  -7 -23  -5    0.94    0.28
  -9 -23  -5    0.02    0.17
 -11 -23  -5    0.74    0.26
 -13 -23  -5   -0.06    0.22
 -15 -23  -5    0.23    0.24
 -17 -23  -5    0.25    0.24
 -19 -23  -5    0.04    0.23
 -21 -23  -5   -0.15    0.27
 -21  25   5   -0.31    0.24
 -19  25   5   -0.23    0.27
 -17  25   5    0.04    0.28
 -15  25   5    0.18    0.26
 -13  25   5    0.09    0.22
 -11  25   5    0.45    0.25
  -9  25   5    0.43    0.26
  -7  25   5   -0.07    0.17
  -5  25   5    0.07    0.20
  -3  25   5   -0.05    0.21
  -1  25   5    0.04    0.16
   1  25   5    0.03    0.20
   1  25   5    0.12    0.18
   3  25   5    0.10    0.18
  -5 -25  -5   -0.04    0.19
  -7 -25  -5    0.03    0.19
  -9 -25  -5    0.29    0.23
 -11 -25  -5   -0.06    0.17
 -13 -25  -5    0.23    0.24
 -15 -25  -5    0.39    0.29
 -17 -25  -5   -0.08    0.25
 -19 -25  -5    0.14    0.32
 -19  27   5    0.11    0.29
 -17  27   5    0.22    0.31
 -15  27   5   -0.04    0.26
 -13  27   5   -0.18    0.23
 -11  27   5    0.24    0.27
  -9  27   5    0.12    0.24
  -7  27   5    0.08    0.22
  -5  27   5   -0.07    0.20
  -3  27   5    0.01    0.19
  -1  27   5    0.07    0.20
   1  27   5    0.16    0.20
   3  27   5   -0.10    0.20
  -7 -27  -5    0.39    0.27
  -9 -27  -5    0.01    0.25
 -11 -27  -5   -0.03    0.22
 -13 -27  -5    0.14    0.27
 -15 -27  -5    0.20    0.31
 -17  29   5   -0.22    0.31
 -15  29   5   -0.41    0.28
 -13  29   5    0.27    0.29
 -11  29   5   -0.04    0.27
  -9  29   5   -0.08    0.26
  -7  29   5   -0.33    0.21
  -5  29   5    0.24    0.26
  -3  29   5    0.12    0.22
  -1  29   5    0.39    0.25
   1  29   5   -0.15    0.19
  -9 -29  -5    0.19    0.27
 -11 -29  -5    0.14    0.29
 -13 -29  -5    0.15    0.32
  -9  31   5   -0.30    0.25
  -7  31   5   -0.15    0.23
  -5  31   5    0.34    0.28
  -3  31   5    0.03    0.23
  -1  31   5   -0.03    0.24
   1  31   5   -0.03    0.25
 -11 -31  -5   -0.26    0.31
  -7  33   5    0.37    0.32
  -5  33   5    0.08    0.25
  -3  33   5    0.31    0.29
  -1  33   5    0.37    0.29
   4  32  -6   -0.12    0.28
   2  32  -6    0.23    0.32
   0  32  -6   -0.15    0.27
  -2  32  -6   -0.10    0.28
  -4  32  -6    0.02    0.28
  -6  32  -6   -0.45    0.22
  -8  32  -6   -0.04    0.27
 -10  32  -6   -0.17    0.29
 -12 -30   6    0.35    0.32
   6  30  -6    4.74    0.58
   4  30  -6   -0.21    0.23
   2  30  -6    4.95    0.59
   0  30  -6    0.66    0.32
  -2  30  -6    6.25    0.64
  -4  30  -6    0.03    0.22
  -6  30  -6    3.11    0.51
  -8  30  -6    0.20    0.26
 -10  30  -6    5.14    0.64
 -12  30  -6    0.38    0.34
 -14  30  -6    5.43    0.69
 -14 -28   6   -0.11    0.28
 -12 -28   6    0.05    0.29
 -10 -28   6   -0.08    0.21
   8  28  -6    0.00    0.26
   6  28  -6   -0.14    0.21
   4  28  -6   -0.08    0.24
   2  28  -6    0.04    0.26
   0  28  -6    0.05    0.22
  -2  28  -6    0.19    0.27
  -4  28  -6    0.07    0.24
  -6  28  -6   -0.04    0.20
  -8  28  -6   -0.01    0.24
 -10  28  -6    0.40    0.30
 -12  28  -6    0.39    0.33
 -14  28  -6   -0.34    0.31
 -16  28  -6   -0.50    0.29
 -18  28  -6   -0.25    0.33
 -18 -26   6    5.19    0.66
 -16 -26   6    0.04    0.27
 -14 -26   6    6.81    0.65
 -12 -26   6    1.04    0.33
 -10 -26   6    5.94    0.56
   8  26  -6    0.29    0.26
  -8 -26   6   -0.02    0.20
   6  26  -6    4.53    0.51
  -6 -26   6    5.01    0.49
   4  26  -6    1.28    0.34
   2  26  -6    4.63    0.52
   0  26  -6    0.01    0.21
  -2  26  -6    4.72    0.52
  -4  26  -6    2.63    0.41
  -6  26  -6    4.47    0.52
  -8  26  -6    0.28    0.22
 -10  26  -6    3.92    0.52
 -12  26  -6    1.30    0.39
 -14  26  -6    7.06    0.70
 -16  26  -6   -0.03    0.31
 -18  26  -6    4.98    0.65
 -20  26  -6    0.50    0.40
 -20 -24   6    0.08    0.27
 -18 -24   6   -0.05    0.26
 -16 -24   6    0.19    0.28
 -14 -24   6    0.08    0.24
 -12 -24   6   -0.06    0.20
  10  24  -6    0.85    0.28
 -10 -24   6    1.15    0.31
   8  24  -6    0.45    0.25
  -8 -24   6    0.71    0.29
   6  24  -6   -0.07    0.20
  -6 -24   6   -0.03    0.18
   4  24  -6    0.65    0.27
  -4 -24   6    0.27    0.21
   2  24  -6    0.71    0.27
   0  24  -6   -0.33    0.17
  -2  24  -6    0.35    0.25
  -4  24  -6   -0.01    0.23
  -6  24  -6    0.08    0.21
  -8  24  -6    0.17    0.25
 -10  24  -6    1.37    0.36
 -12  24  -6    0.05    0.28
 -14  24  -6    0.20    0.26
 -16  24  -6   -0.08    0.27
 -18  24  -6    0.34    0.29
 -18  24  -6    0.19    0.30
 -20  24  -6    0.49    0.39
 -20  24  -6    0.18    0.33
 -22  24  -6   -0.10    0.32
 -22  24  -6    0.24    0.36
 -22 -22   6    8.63    0.78
 -20 -22   6    0.11    0.26
 -18 -22   6    7.56    0.67
 -16 -22   6    0.97    0.33
 -14 -22   6   10.40    0.71
 -12 -22   6   -0.07    0.15
  10  22  -6   17.09    0.82
 -10 -22   6   17.92    0.86
   8  22  -6    1.07    0.28
  -8 -22   6    1.77    0.32
   6  22  -6   22.69    0.95
  -6 -22   6   21.87    0.89
   4  22  -6    0.65    0.24
  -4 -22   6    0.21    0.18
   2  22  -6   17.28    0.83
  -2 -22   6   17.44    0.72
   0  22  -6    2.94    0.38
  -2  22  -6   16.86    0.83
  -4  22  -6    0.48    0.25
  -6  22  -6   21.85    0.97
  -8  22  -6    1.51    0.35
 -10  22  -6   16.39    0.88
 -12  22  -6   -0.09    0.21
 -12  22  -6    0.14    0.24
 -14  22  -6   10.61    0.72
 -14  22  -6   10.49    0.73
 -16  22  -6    0.90    0.33
 -16  22  -6    0.76    0.31
 -18  22  -6    7.27    0.65
 -18  22  -6    6.37    0.62
 -20  22  -6    0.42    0.33
 -20  22  -6   -0.22    0.26
 -22  22  -6    9.28    0.79
 -22  22  -6    8.98    0.77
 -24  22  -6    0.04    0.35
 -24  22  -6   -0.25    0.29
 -24 -20   6    0.10    0.26
 -22 -20   6   -0.21    0.22
 -20 -20   6    0.39    0.29
 -18 -20   6    0.34    0.26
 -16 -20   6    0.01    0.20
 -14 -20   6    0.31    0.23
  12  20  -6    0.26    0.21
 -12 -20   6    0.17    0.21
  10  20  -6    0.86    0.27
 -10 -20   6    0.46    0.21
   8  20  -6    0.39    0.22
  -8 -20   6    0.27    0.21
   6  20  -6    0.29    0.20
  -6 -20   6    0.51    0.20
   4  20  -6    0.61    0.24
  -4 -20   6    0.55    0.21
   2  20  -6    0.98    0.26
  -2 -20   6    0.71    0.20
   0  20  -6    0.01    0.16
   0 -20   6    0.05    0.12
  -2  20  -6    0.64    0.22
  -4  20  -6    0.34    0.19
  -6  20  -6    0.36    0.20
  -8  20  -6    0.27    0.20
  -8  20  -6    0.03    0.20
 -10  20  -6    1.07    0.31
 -10  20  -6    0.45    0.22
 -12  20  -6    0.01    0.21
 -12  20  -6    0.42    0.23
 -14  20  -6    0.31    0.24
 -14  20  -6    0.31    0.23
 -16  20  -6    0.79    0.31
 -16  20  -6    0.02    0.23
 -18  20  -6    0.19    0.24
 -18  20  -6    0.41    0.29
 -20  20  -6   -0.22    0.25
 -20  20  -6    0.02    0.26
 -22  20  -6    0.16    0.25
 -22  20  -6    0.03    0.29
 -24  20  -6    0.75    0.35
 -24  20  -6    0.69    0.39
 -26  20  -6    0.63    0.38
 -24 -18   6    0.57    0.27
 -22 -18   6    7.42    0.66
 -20 -18   6    0.26    0.21
 -18 -18   6   11.25    0.73
 -16 -18   6    0.29    0.20
 -14 -18   6   15.24    0.79
  12  18  -6    0.18    0.20
 -12 -18   6    0.09    0.15
  10  18  -6   15.41    0.69
 -10 -18   6   15.45    0.74
   8  18  -6    0.14    0.18
  -8 -18   6    0.01    0.15
   6  18  -6   20.99    0.81
  -6 -18   6   19.04    0.77
   4  18  -6    0.23    0.17
  -4 -18   6    0.34    0.16
   2  18  -6   18.20    0.77
  -2 -18   6   17.99    0.68
   0  18  -6    1.69    0.28
   0 -18   6    2.40    0.26
  -2  18  -6   16.51    0.76
   2 -18   6   16.74    0.58
  -4  18  -6    0.50    0.20
  -4  18  -6    0.54    0.16
  -6  18  -6   18.59    0.69
  -6  18  -6   19.44    0.84
  -8  18  -6    0.17    0.18
  -8  18  -6    0.19    0.18
 -10  18  -6   17.11    0.81
 -10  18  -6   15.75    0.73
 -12  18  -6    0.02    0.17
 -12  18  -6    0.10    0.18
 -14  18  -6   14.39    0.79
 -14  18  -6   15.83    0.79
 -16  18  -6    0.01    0.21
 -16  18  -6   -0.07    0.21
 -18  18  -6   10.55    0.72
 -18  18  -6   10.95    0.72
 -20  18  -6    0.27    0.27
 -20  18  -6    0.20    0.29
 -22  18  -6    5.89    0.59
 -22  18  -6    7.44    0.68
 -24  18  -6   -0.18    0.27
 -26  18  -6    5.27    0.66
 -28  18  -6    0.37    0.35
 -26 -16   6    0.04    0.19
 -24 -16   6   -0.37    0.17
 -22 -16   6    1.22    0.32
 -20 -16   6   -0.10    0.18
 -18 -16   6   -0.03    0.15
 -16 -16   6   -0.18    0.18
 -14 -16   6    4.17    0.42
  12  16  -6   -0.10    0.16
 -12 -16   6    0.12    0.16
  10  16  -6    0.65    0.21
 -10 -16   6    0.43    0.17
   8  16  -6    0.43    0.17
  -8 -16   6   -0.03    0.14
   6  16  -6    1.71    0.26
  -6 -16   6    1.30    0.23
   4  16  -6    0.30    0.16
  -4 -16   6    0.08    0.13
   2  16  -6    0.09    0.14
  -2 -16   6    0.01    0.10
   0  16  -6    0.20    0.14
   0 -16   6    0.01    0.10
  -2  16  -6    0.02    0.10
  -2  16  -6    0.09    0.13
   2 -16   6   -0.05    0.09
  -4  16  -6    0.01    0.11
  -4  16  -6    0.03    0.14
   4 -16   6    0.14    0.09
  -6  16  -6    1.34    0.21
  -6  16  -6    1.46    0.27
  -8  16  -6    0.40    0.15
  -8  16  -6   -0.06    0.15
 -10  16  -6    0.52    0.23
 -10  16  -6    0.52    0.20
 -12  16  -6   -0.14    0.16
 -12  16  -6    0.15    0.18
 -14  16  -6    4.00    0.43
 -14  16  -6    3.77    0.41
 -16  16  -6   -0.06    0.21
 -16  16  -6    0.06    0.18
 -18  16  -6    0.06    0.24
 -18  16  -6   -0.04    0.19
 -20  16  -6    0.21    0.27
 -20  16  -6   -0.04    0.25
 -22  16  -6    0.72    0.33
 -22  16  -6    1.29    0.36
 -24  16  -6    0.61    0.33
 -26  16  -6    0.04    0.28
 -28  16  -6    0.66    0.35
 -28 -14   6    0.03    0.25
 -24 -14   6    0.16    0.21
 -22 -14   6   12.42    0.78
 -20 -14   6   -0.12    0.16
 -18 -14   6   14.36    0.77
 -16 -14   6    4.71    0.45
  14  14  -6   22.26    0.80
 -14 -14   6   22.51    0.90
  12  14  -6    0.85    0.20
 -12 -14   6    0.60    0.19
  10  14  -6   19.86    0.73
 -10 -14   6   20.61    0.79
   8  14  -6    7.94    0.45
  -8 -14   6    7.85    0.46
   6  14  -6   25.63    0.82
  -6 -14   6   27.10    0.84
   4  14  -6    0.86    0.18
  -4 -14   6    1.02    0.18
   2  14  -6   18.31    0.43
   2  14  -6   18.94    0.70
  -2 -14   6   18.01    0.61
   0  14  -6    7.29    0.44
   0  14  -6    6.82    0.28
   0 -14   6    6.50    0.34
  -2  14  -6   17.96    0.70
  -2  14  -6   19.86    0.55
   2 -14   6   18.96    0.56
  -4  14  -6    1.48    0.24
  -4  14  -6    1.29    0.17
   4 -14   6    0.85    0.13
  -6  14  -6   27.54    0.77
  -6  14  -6   25.98    0.89
   6 -14   6   26.34    0.59
  -8  14  -6    8.78    0.51
  -8  14  -6    7.95    0.45
 -10  14  -6   20.40    0.81
 -10  14  -6   21.05    0.78
 -12  14  -6    0.85    0.23
 -12  14  -6    1.24    0.26
 -14  14  -6   22.59    0.88
 -14  14  -6   22.39    0.89
 -16  14  -6    2.93    0.36
 -16  14  -6    3.35    0.41
 -18  14  -6   13.94    0.74
 -18  14  -6   16.81    0.85
 -20  14  -6    0.17    0.21
 -20  14  -6    0.45    0.26
 -22  14  -6   10.19    0.72
 -22  14  -6   10.24    0.69
 -24  14  -6    0.19    0.24
 -26  14  -6    5.15    0.60
 -28  14  -6   -0.03    0.29
 -30  14  -6    5.70    0.71
 -30 -12   6    0.23    0.24
 -28 -12   6   -0.11    0.24
 -26 -12   6    0.93    0.32
 -24 -12   6   -0.21    0.18
 -22 -12   6    0.13    0.18
 -20 -12   6   -0.08    0.16
 -18 -12   6    0.17    0.15
 -16 -12   6    0.11    0.14
  14  12  -6    1.04    0.22
 -14 -12   6    1.37    0.26
  12  12  -6    0.01    0.15
 -12 -12   6    0.02    0.13
  10  12  -6    0.10    0.12
 -10 -12   6    0.16    0.11
   8  12  -6    0.24    0.13
  -8 -12   6    0.08    0.12
   6  12  -6    1.01    0.19
  -6 -12   6    1.23    0.20
   4  12  -6    1.10    0.18
  -4 -12   6    1.46    0.20
   2  12  -6    2.50    0.26
  -2 -12   6    2.19    0.21
   0  12  -6    0.03    0.11
   0  12  -6    0.15    0.07
   0 -12   6    0.03    0.08
  -2  12  -6    2.43    0.19
  -2  12  -6    2.41    0.26
   2 -12   6    2.06    0.18
  -4  12  -6    1.51    0.17
  -4  12  -6    1.28    0.21
   4 -12   6    1.12    0.13
  -6  12  -6    0.97    0.20
  -6  12  -6    0.89    0.16
   6 -12   6    0.80    0.10
  -8  12  -6    0.21    0.13
  -8  12  -6   -0.05    0.12
 -10  12  -6    0.26    0.14
 -10  12  -6    0.00    0.13
 -12  12  -6    0.34    0.18
 -12  12  -6    0.18    0.16
 -14  12  -6    0.93    0.25
 -14  12  -6    1.02    0.24
 -16  12  -6    0.21    0.19
 -16  12  -6   -0.26    0.15
 -18  12  -6    0.05    0.19
 -18  12  -6   -0.05    0.16
 -20  12  -6   -0.08    0.20
 -20  12  -6    0.19    0.21
 -22  12  -6    0.23    0.26
 -24  12  -6    0.38    0.25
 -26  12  -6    0.71    0.31
 -28  12  -6    0.46    0.31
 -30  12  -6   -0.16    0.29
 -30 -10   6    3.75    0.55
 -28 -10   6    0.08    0.23
 -26 -10   6    5.60    0.56
 -24 -10   6    1.62    0.35
 -22 -10   6   16.44    0.83
 -20 -10   6    0.61    0.22
 -18 -10   6   15.78    0.75
 -16 -10   6    0.46    0.18
 -14 -10   6   19.91    0.77
  12  10  -6   -0.06    0.11
 -12 -10   6    0.04    0.10
  10  10  -6   34.46    0.92
 -10 -10   6   35.92    0.99
 -10 -10   6   35.54    0.71
   8  10  -6    0.23    0.12
  -8 -10   6    0.22    0.11
   6  10  -6   75.79    1.48
  -6 -10   6   76.94    1.48
   4  10  -6    3.78    0.28
  -4 -10   6    3.15    0.24
   2  10  -6   39.56    0.95
  -2 -10   6   39.13    0.87
   0 -10   6   32.26    0.73
  -2  10  -6   39.90    0.78
  -2  10  -6   38.10    0.95
   2 -10   6   39.04    0.79
  -4  10  -6    3.32    0.23
  -4  10  -6    3.45    0.28
   4 -10   6    3.39    0.19
  -6  10  -6   80.28    1.61
  -6  10  -6   80.94    1.51
   6 -10   6   81.54    1.25
  -8  10  -6    0.02    0.11
  -8  10  -6    0.19    0.13
   8 -10   6    0.17    0.06
 -10  10  -6   36.65    1.00
 -10  10  -6   36.97    1.01
 -12  10  -6    0.10    0.14
 -12  10  -6   -0.02    0.13
 -14  10  -6   20.85    0.82
 -14  10  -6   20.62    0.76
 -16  10  -6    0.48    0.20
 -16  10  -6    0.99    0.27
 -18  10  -6   15.77    0.79
 -18  10  -6   16.45    0.71
 -20  10  -6    1.01    0.30
 -20  10  -6    0.59    0.23
 -22  10  -6   19.69    0.96
 -24  10  -6    1.32    0.37
 -26  10  -6    4.63    0.58
 -28  10  -6   -0.19    0.21
 -30  10  -6    4.99    0.65
 -32  10  -6    0.33    0.31
 -30  -8   6    0.27    0.26
 -28  -8   6    0.00    0.25
 -26  -8   6   -0.25    0.18
 -24  -8   6    0.34    0.24
 -22  -8   6    1.09    0.27
 -20  -8   6    0.13    0.18
 -18  -8   6    0.38    0.17
 -18  -8   6    0.16    0.14
 -16  -8   6    0.25    0.14
 -16  -8   6    0.10    0.14
 -14  -8   6    8.31    0.48
 -14  -8   6    7.67    0.37
 -12  -8   6    0.01    0.09
 -12  -8   6    0.13    0.13
  10   8  -6    0.32    0.13
 -10  -8   6   -0.01    0.07
 -10  -8   6    0.23    0.12
   8   8  -6    0.49    0.14
  -8  -8   6    0.76    0.16
   6   8  -6    1.20    0.16
  -6  -8   6    1.87    0.20
   4   8  -6    0.02    0.07
  -4  -8   6    0.15    0.08
   2   8  -6    0.62    0.13
  -2  -8   6    0.58    0.11
   0   8  -6    0.20    0.10
   0  -8   6   -0.01    0.05
  -2   8  -6    0.61    0.13
  -2   8  -6    0.56    0.09
   2  -8   6    0.55    0.09
  -4   8  -6    0.07    0.09
  -4   8  -6    0.22    0.09
   4  -8   6    0.13    0.06
  -6   8  -6    1.74    0.19
  -6   8  -6    1.47    0.17
   6  -8   6    1.44    0.12
  -8   8  -6    0.61    0.08
  -8   8  -6    0.57    0.15
  -8   8  -6    0.55    0.14
   8  -8   6    0.35    0.07
 -10   8  -6    0.09    0.11
 -10   8  -6    0.15    0.12
  10  -8   6    0.19    0.07
 -12   8  -6    0.23    0.13
 -12   8  -6    0.07    0.13
  12  -8   6    0.06    0.07
 -14   8  -6    7.54    0.49
 -14   8  -6    8.45    0.46
 -16   8  -6   -0.12    0.16
 -16   8  -6    0.30    0.17
 -18   8  -6    0.11    0.15
 -18   8  -6    0.17    0.21
 -20   8  -6    0.14    0.18
 -22   8  -6    1.80    0.38
 -24   8  -6    1.11    0.33
 -26   8  -6    0.21    0.23
 -28   8  -6    0.13    0.25
 -30   8  -6    0.03    0.32
 -32   8  -6   -0.20    0.34
 -28  -6   6   -0.17    0.21
 -26  -6   6    3.65    0.46
 -24  -6   6   -0.10    0.15
 -22  -6   6   22.49    0.92
 -22  -6   6   20.87    0.86
 -20  -6   6    0.53    0.20
 -20  -6   6    0.18    0.17
 -18  -6   6   20.20    0.79
 -18  -6   6   18.28    0.71
 -16  -6   6    1.17    0.22
 -16  -6   6    1.40    0.22
 -14  -6   6   26.40    0.74
 -14  -6   6   25.54    0.83
 -12  -6   6    0.91    0.15
 -12  -6   6    0.75    0.17
 -10  -6   6   79.56    1.52
 -10  -6   6   78.18    1.35
   8   6  -6    1.23    0.17
  -8  -6   6    1.33    0.18
  -8  -6   6    1.48    0.12
   6   6  -6  113.94    1.90
  -6  -6   6  111.30    1.84
   4   6  -6    8.78    0.37
  -4  -6   6    8.56    0.34
  -2  -6   6   42.80    0.85
   0   6  -6    5.02    0.27
   0  -6   6    5.27    0.24
  -2   6  -6   46.08    0.81
  -2   6  -6   43.59    0.93
   2  -6   6   44.43    0.81
  -4   6  -6    8.30    0.35
  -4   6  -6    8.65    0.32
   4  -6   6    8.35    0.28
  -6   6  -6  117.13    1.95
  -6   6  -6  120.32    1.96
   6  -6   6  116.97    1.71
  -8   6  -6    1.58    0.18
  -8   6  -6    1.19    0.18
   8  -6   6    1.73    0.13
 -10   6  -6   78.90    1.48
 -10   6  -6   78.06    1.58
  10  -6   6   80.28    1.26
 -12   6  -6    1.21    0.18
 -12   6  -6    0.99    0.21
  12  -6   6    1.04    0.12
 -14   6  -6   25.83    0.76
 -14   6  -6   26.93    0.90
  14  -6   6   27.62    0.62
 -16   6  -6    0.55    0.21
 -16   6  -6    1.26    0.21
 -18   6  -6   19.19    0.85
 -18   6  -6   19.74    0.69
 -20   6  -6    0.01    0.17
 -22   6  -6   21.38    0.98
 -24   6  -6   -0.12    0.21
 -26   6  -6    4.26    0.54
 -28   6  -6   -0.17    0.28
 -30   6  -6    3.83    0.60
 -32   6  -6   -0.27    0.34
 -26  -4   6    1.67    0.36
 -26  -4   6    1.98    0.35
 -24  -4   6    0.32    0.21
 -24  -4   6    0.09    0.23
 -22  -4   6    0.85    0.22
 -22  -4   6    0.40    0.22
 -20  -4   6    0.18    0.15
 -20  -4   6    0.43    0.20
 -18  -4   6    0.55    0.18
 -18  -4   6    0.26    0.17
 -16  -4   6   -0.04    0.11
 -16  -4   6    0.07    0.13
 -14  -4   6    0.47    0.15
 -14  -4   6    1.33    0.19
 -12  -4   6    1.26    0.19
 -12  -4   6    1.57    0.19
 -10  -4   6    3.23    0.22
 -10  -4   6    3.61    0.27
  -8  -4   6    0.09    0.07
  -8  -4   6    0.07    0.07
   6   4  -6    8.32    0.35
  -6  -4   6    8.16    0.34
   4   4  -6    0.78    0.13
  -4  -4   6    0.41    0.09
   2   4  -6    1.79    0.16
  -2  -4   6    1.35    0.13
   0   4  -6    0.14    0.07
   0  -4   6    0.15    0.06
  -2   4  -6    1.56    0.12
  -2   4  -6    1.79    0.16
   2  -4   6    1.73    0.13
  -4   4  -6    0.67    0.11
  -4   4  -6    0.58    0.10
   4  -4   6    0.50    0.09
  -6   4  -6    8.23    0.34
  -6   4  -6    7.92    0.31
  -6   4  -6    8.19    0.27
   6  -4   6    8.24    0.28
  -8   4  -6    0.03    0.09
  -8   4  -6    0.00    0.06
   8  -4   6    0.14    0.06
 -10   4  -6    3.35    0.22
 -10   4  -6    3.04    0.27
  10  -4   6    3.27    0.19
 -12   4  -6    1.19    0.16
 -12   4  -6    0.95    0.21
  12  -4   6    1.51    0.15
 -14   4  -6    1.34    0.23
 -14   4  -6    0.71    0.15
  14  -4   6    0.56    0.11
 -16   4  -6   -0.01    0.15
 -16   4  -6    0.04    0.12
  16  -4   6    0.12    0.09
 -18   4  -6    0.22    0.19
 -20   4  -6    0.51    0.24
 -22   4  -6    0.68    0.29
 -24   4  -6    0.22    0.26
 -26   4  -6    1.47    0.37
 -28   4  -6   -0.05    0.26
 -30   4  -6    0.11    0.32
 -32   4  -6    0.04    0.33
 -30  -2   6    3.96    0.54
 -28  -2   6    0.02    0.26
 -26  -2   6    4.49    0.51
 -24  -2   6    0.48    0.28
 -24  -2   6    0.34    0.20
 -22  -2   6   16.76    0.74
 -22  -2   6   17.94    0.81
 -20  -2   6    0.71    0.19
 -20  -2   6    0.38    0.20
 -18  -2   6   16.81    0.70
 -18  -2   6   15.74    0.65
 -16  -2   6    0.01    0.11
 -16  -2   6    0.08    0.13
 -14  -2   6   19.32    0.64
 -14  -2   6   17.44    0.63
 -12  -2   6    2.27    0.23
 -12  -2   6    2.15    0.22
 -10  -2   6   39.03    0.86
 -10  -2   6   39.02    0.89
  -8  -2   6    0.40    0.09
  -8  -2   6    0.56    0.11
  -6  -2   6   43.88    0.81
  -6  -2   6   45.22    0.90
  -4  -2   6    1.45    0.14
   2   2  -6   31.74    0.69
  -2  -2   6   30.25    0.64
   0  -2   6   16.47    0.43
  -2   2  -6   31.15    0.65
  -2   2  -6   30.23    0.61
   2  -2   6   31.36    0.63
  -4   2  -6    1.80    0.15
  -4   2  -6    1.70    0.14
   4  -2   6    1.99    0.14
  -6   2  -6   45.21    0.83
  -6   2  -6   45.20    0.84
  -6   2  -6   45.16    0.93
   6  -2   6   45.08    0.82
  -8   2  -6    0.59    0.10
  -8   2  -6    0.55    0.13
   8  -2   6    0.54    0.09
 -10   2  -6   41.07    0.80
 -10   2  -6   39.64    0.99
  10  -2   6   39.70    0.81
 -12   2  -6    1.95    0.25
 -12   2  -6    2.11    0.17
  12  -2   6    2.28    0.18
 -14   2  -6   17.61    0.71
 -14   2  -6   19.11    0.55
 -14   2  -6   18.88    0.52
 -16   2  -6    0.05    0.10
 -16   2  -6   -0.09    0.13
 -18   2  -6   15.60    0.56
 -18   2  -6   16.42    0.76
 -20   2  -6    0.52    0.25
 -22   2  -6   16.61    0.84
 -24   2  -6    0.42    0.28
 -26   2  -6    6.52    0.63
 -28   2  -6    0.10    0.25
 -32   2  -6   -0.41    0.32
 -32   0   6   -0.10    0.31
 -30   0   6    0.39    0.30
 -28   0   6   -0.25    0.24
 -26   0   6    0.19    0.27
 -24   0   6    0.26    0.24
 -22   0   6    2.03    0.28
 -22   0   6    1.71    0.32
 -20   0   6   -0.10    0.14
 -20   0   6    0.13    0.15
 -18   0   6    2.31    0.30
 -18   0   6    1.92    0.24
 -16   0   6    0.15    0.14
 -16   0   6   -0.05    0.09
 -14   0   6    6.01    0.35
 -14   0   6    6.65    0.39
 -12   0   6    0.28    0.11
 -12   0   6    0.02    0.10
 -10   0   6   30.56    0.76
 -10   0   6   30.91    0.74
  -8   0   6    0.14    0.08
  -8   0   6    0.02    0.06
  -6   0   6    5.46    0.26
  -6   0   6    5.08    0.24
  -4   0   6    0.07    0.06
  -4   0   6    0.02    0.05
  -2   0   6   16.86    0.44
   0   0   6    0.35    0.08
  -2   0  -6   15.86    0.40
  -2   0  -6   16.21    0.42
   2   0   6   15.06    0.41
  -4   0  -6    0.06    0.06
  -4   0  -6    0.15    0.06
  -4   0  -6    0.11    0.07
   4   0   6    0.04    0.05
  -6   0  -6    5.03    0.26
   6   0   6    5.12    0.23
  -8   0  -6    0.03    0.07
   8   0   6    0.13    0.06
 -10   0  -6   31.12    0.71
 -10   0  -6   30.99    0.84
 -12   0  -6    0.05    0.08
 -12   0  -6   -0.06    0.06
 -12   0  -6    0.09    0.11
 -14   0  -6    6.04    0.41
 -14   0  -6    6.69    0.34
 -14   0  -6    6.95    0.26
 -16   0  -6    0.01    0.11
 -16   0  -6    0.23    0.16
 -18   0  -6    1.33    0.27
 -18   0  -6    2.23    0.25
 -20   0  -6   -0.04    0.16
 -20   0  -6    0.02    0.15
 -22   0  -6    1.64    0.25
 -22   0  -6    1.79    0.35
 -24   0  -6   -0.10    0.23
 -26   0  -6    0.03    0.23
 -28   0  -6    0.03    0.26
 -30   0  -6   -0.02    0.30
 -32   0  -6    0.10    0.33
 -32   2   6    0.35    0.38
 -30   2   6    3.98    0.56
 -28   2   6    0.04    0.27
 -26   2   6    4.68    0.51
 -24   2   6    0.64    0.29
 -22   2   6   16.25    0.81
 -20   2   6    0.62    0.20
 -20   2   6    0.64    0.24
 -18   2   6   17.47    0.76
 -18   2   6   15.99    0.61
 -16   2   6    0.38    0.17
 -16   2   6    0.24    0.12
 -14   2   6   19.70    0.61
 -14   2   6   18.83    0.68
 -12   2   6    2.41    0.21
 -12   2   6    2.82    0.26
 -10   2   6   39.77    0.85
 -10   2   6   40.38    0.94
  -8   2   6    0.63    0.12
  -8   2   6    0.44    0.10
  -6   2   6   42.16    0.83
  -6   2   6   44.17    0.90
  -4   2   6    1.75    0.15
  -4   2   6    1.42    0.14
  -2   2   6   33.98    0.69
   0   2   6   16.60    0.44
  -2  -2  -6   31.11    0.65
   2   2   6   30.94    0.64
  -4  -2  -6    1.74    0.16
   4   2   6    1.55    0.14
  -6  -2  -6   42.61    0.92
   6   2   6   42.74    0.84
  -8  -2  -6    0.50    0.13
  -8  -2  -6    0.58    0.11
 -10  -2  -6   39.65    0.87
 -10  -2  -6   38.62    0.97
 -12  -2  -6    2.77    0.23
 -12  -2  -6    2.18    0.25
 -14  -2  -6   17.18    0.69
 -14  -2  -6   18.70    0.61
 -16  -2  -6    0.16    0.14
 -16  -2  -6    0.17    0.11
 -18  -2  -6   17.11    0.65
 -18  -2  -6   17.26    0.78
 -20  -2  -6    0.43    0.24
 -20  -2  -6    0.57    0.18
 -22  -2  -6   17.58    0.71
 -22  -2  -6   16.79    0.85
 -24  -2  -6    0.67    0.22
 -24  -2  -6    0.16    0.25
 -26  -2  -6    6.96    0.65
 -28  -2  -6    0.01    0.29
 -30  -2  -6    6.26    0.70
 -32  -2  -6   -0.11    0.35
 -32   4   6   -0.35    0.32
 -30   4   6    0.06    0.33
 -28   4   6    0.29    0.29
 -26   4   6    1.41    0.37
 -24   4   6    0.08    0.24
 -22   4   6    0.14    0.20
 -20   4   6    0.64    0.24
 -18   4   6    0.39    0.20
 -18   4   6    0.50    0.16
 -16   4   6    0.03    0.09
 -16   4   6    0.14    0.16
 -14   4   6    1.15    0.21
 -14   4   6    0.85    0.14
 -12   4   6    1.58    0.17
 -12   4   6    1.24    0.19
 -10   4   6    3.77    0.22
 -10   4   6    3.49    0.28
  -8   4   6    0.07    0.08
  -8   4   6    0.10    0.07
  -6   4   6    8.36    0.31
  -6   4   6    8.77    0.37
  -4   4   6    0.66    0.12
  -4   4   6    0.64    0.10
  -2   4   6    1.64    0.14
   0  -4  -6    0.10    0.06
   0   4   6    0.27    0.07
   2   4   6    1.51    0.14
   4   4   6    0.44    0.09
  -6  -4  -6    7.97    0.36
  -6  -4  -6    8.58    0.34
  -8  -4  -6    0.17    0.08
  -8  -4  -6    0.01    0.07
 -10  -4  -6    3.06    0.24
 -10  -4  -6    3.53    0.28
 -12  -4  -6    1.47    0.20
 -12  -4  -6    1.54    0.22
 -14  -4  -6    0.94    0.21
 -14  -4  -6    0.99    0.18
 -16  -4  -6    0.16    0.15
 -16  -4  -6    0.01    0.12
 -18  -4  -6    0.32    0.17
 -18  -4  -6    0.41    0.16
 -20  -4  -6    0.25    0.20
 -20  -4  -6    0.37    0.18
 -22  -4  -6    0.39    0.23
 -22  -4  -6    0.39    0.19
 -24  -4  -6    0.37    0.21
 -24  -4  -6    0.11    0.27
 -26  -4  -6    1.42    0.39
 -28  -4  -6   -0.05    0.25
 -30  -4  -6    0.02    0.31
 -32  -4  -6    0.17    0.32
 -32   6   6    0.21    0.33
 -30   6   6    3.89    0.58
 -28   6   6   -0.16    0.26
 -26   6   6    4.90    0.56
 -24   6   6   -0.04    0.23
 -22   6   6   20.87    0.97
 -20   6   6    0.07    0.19
 -18   6   6   19.09    0.83
 -16   6   6    0.41    0.18
 -16   6   6    0.96    0.16
 -14   6   6   28.08    0.69
 -14   6   6   26.66    0.89
 -12   6   6    0.81    0.19
 -12   6   6    0.84    0.13
 -10   6   6   79.21    1.33
 -10   6   6   79.72    1.61
  -8   6   6    1.26    0.18
  -8   6   6    1.76    0.15
  -6   6   6  115.07    1.75
  -4   6   6    8.17    0.31
  -4   6   6    7.75    0.36
   2  -6  -6   43.47    0.83
  -2   6   6   43.45    0.84
   0   6   6    4.59    0.23
   2   6   6   45.19    0.90
   4   6   6    7.99    0.33
  -6  -6  -6  116.99    1.89
  -6  -6  -6  113.44    2.00
  -8  -6  -6    1.16    0.18
  -8  -6  -6    1.61    0.19
 -10  -6  -6   79.40    1.60
 -10  -6  -6   77.81    1.50
 -12  -6  -6    0.99    0.18
 -12  -6  -6    1.10    0.20
 -14  -6  -6   26.74    0.88
 -14  -6  -6   26.99    0.82
 -16  -6  -6    1.06    0.24
 -16  -6  -6    1.14    0.22
 -18  -6  -6   17.81    0.80
 -18  -6  -6   19.49    0.74
 -20  -6  -6    0.09    0.20
 -20  -6  -6    0.16    0.14
 -22  -6  -6   20.80    0.96
 -22  -6  -6   21.76    0.85
 -24  -6  -6   -0.03    0.22
 -24  -6  -6   -0.10    0.16
 -26  -6  -6    4.81    0.47
 -26  -6  -6    3.84    0.52
 -28  -6  -6   -0.06    0.27
 -30  -6  -6    3.08    0.56
 -32  -6  -6    0.19    0.36
 -32   8   6    0.23    0.36
 -30   8   6    0.15    0.35
 -28   8   6    0.01    0.28
 -26   8   6   -0.25    0.24
 -24   8   6    0.51    0.31
 -22   8   6    1.58    0.35
 -20   8   6    0.22    0.22
 -18   8   6    0.13    0.17
 -16   8   6    0.03    0.15
 -14   8   6    9.06    0.35
 -14   8   6    9.01    0.53
 -12   8   6    0.11    0.13
 -12   8   6    0.00    0.08
 -10   8   6    0.26    0.14
 -10   8   6    0.20    0.08
  -8   8   6    0.88    0.17
  -8   8   6    0.66    0.11
  -6   8   6    1.54    0.14
  -6   8   6    1.78    0.21
   4  -8  -6    0.01    0.05
  -4   8   6    0.27    0.11
  -4   8   6    0.16    0.08
  -2   8   6    0.60    0.10
   0   8   6    0.12    0.06
   2   8   6    0.45    0.11
  -4  -8  -6    0.10    0.08
  -6  -8  -6    1.41    0.18
  -8  -8  -6    0.54    0.14
 -10  -8  -6    0.17    0.10
 -10  -8  -6    0.20    0.11
 -12  -8  -6    0.10    0.13
 -12  -8  -6    0.07    0.13
 -14  -8  -6    7.99    0.49
 -14  -8  -6    8.46    0.47
 -16  -8  -6    0.06    0.14
 -16  -8  -6    0.15    0.15
 -18  -8  -6    0.25    0.13
 -18  -8  -6   -0.06    0.14
 -20  -8  -6    0.41    0.24
 -20  -8  -6   -0.03    0.15
 -22  -8  -6    1.48    0.29
 -22  -8  -6    1.84    0.37
 -24  -8  -6    0.73    0.30
 -24  -8  -6   -0.06    0.20
 -26  -8  -6    0.18    0.25
 -26  -8  -6   -0.04    0.20
 -28  -8  -6    0.54    0.32
 -28  -8  -6    0.21    0.25
 -30  -8  -6    0.45    0.35
 -32  -8  -6    0.30    0.36
 -32  10   6    0.68    0.45
 -30  10   6    5.95    0.71
 -28  10   6    0.29    0.35
 -26  10   6    6.13    0.66
 -24  10   6    1.18    0.34
 -22  10   6   15.94    0.87
 -20  10   6    1.24    0.33
 -18  10   6   15.97    0.80
 -16  10   6    0.52    0.22
 -14  10   6   19.67    0.80
 -12  10   6    0.05    0.13
 -12  10   6    0.09    0.08
 -10  10   6   37.62    0.76
 -10  10   6   37.33    1.06
   8 -10  -6    0.21    0.08
  -8  10   6    0.15    0.12
  -8  10   6    0.26    0.09
   6 -10  -6   77.25    1.28
  -6  10   6   75.46    1.56
  -6  10   6   74.57    1.29
  -4  10   6    3.02    0.20
  -4  10   6    3.24    0.28
  -2  10   6   39.11    0.82
   0  10   6   31.59    0.75
  -2 -10  -6   40.00    0.88
   2  10   6   37.37    0.87
  -4 -10  -6    2.96    0.24
  -6 -10  -6   79.16    1.52
  -8 -10  -6    0.25    0.11
 -12 -10  -6    0.03    0.10
 -12 -10  -6    0.01    0.12
 -14 -10  -6   20.45    0.80
 -14 -10  -6   19.25    0.75
 -16 -10  -6    0.26    0.15
 -16 -10  -6    0.29    0.18
 -18 -10  -6   14.89    0.74
 -18 -10  -6   15.33    0.72
 -20 -10  -6    1.14    0.26
 -20 -10  -6    0.38    0.22
 -22 -10  -6   17.93    0.84
 -22 -10  -6   18.63    0.91
 -24 -10  -6    0.59    0.30
 -24 -10  -6    1.01    0.27
 -26 -10  -6    5.59    0.59
 -26 -10  -6    4.61    0.50
 -28 -10  -6    0.15    0.25
 -28 -10  -6   -0.06    0.28
 -30 -10  -6    4.81    0.64
 -30 -10  -6    6.70    0.63
 -32 -10  -6   -0.25    0.37
 -30  12   6   -0.01    0.35
 -28  12   6    0.05    0.34
 -26  12   6    0.74    0.37
 -24  12   6   -0.02    0.24
 -22  12   6   -0.06    0.20
 -20  12   6   -0.02    0.20
 -18  12   6    0.05    0.19
 -16  12   6    0.14    0.19
 -14  12   6    0.90    0.25
 -12  12   6    0.10    0.15
 -10  12   6    0.14    0.08
 -10  12   6   -0.11    0.13
  -8  12   6    0.14    0.14
  -8  12   6    0.08    0.08
  -6  12   6    0.82    0.13
  -6  12   6    0.71    0.18
  -4  12   6    1.09    0.14
  -4  12   6    1.31    0.21
  -2  12   6    1.84    0.18
  -2  12   6    2.37    0.27
   0  12   6   -0.04    0.07
  -2 -12  -6    2.22    0.22
  -4 -12  -6    1.60    0.21
  -6 -12  -6    0.84    0.17
  -8 -12  -6    0.04    0.11
 -10 -12  -6   -0.09    0.09
 -12 -12  -6   -0.02    0.13
 -14 -12  -6    1.14    0.24
 -14 -12  -6    1.01    0.24
 -16 -12  -6    0.21    0.17
 -16 -12  -6    0.05    0.15
 -18 -12  -6   -0.04    0.17
 -18 -12  -6    0.09    0.14
 -20 -12  -6   -0.05    0.15
 -20 -12  -6    0.37    0.24
 -22 -12  -6    0.15    0.24
 -22 -12  -6    0.16    0.19
 -24 -12  -6    0.13    0.25
 -24 -12  -6   -0.19    0.20
 -26 -12  -6    1.41    0.35
 -26 -12  -6    0.20    0.29
 -28 -12  -6    0.24    0.32
 -28 -12  -6   -0.11    0.24
 -30 -12  -6    0.25    0.27
 -30 -12  -6    0.18    0.36
 -30  14   6    5.15    0.71
 -28  14   6    0.16    0.32
 -26  14   6    5.95    0.67
 -24  14   6   -0.20    0.22
 -22  14   6   11.71    0.81
 -20  14   6    0.30    0.27
 -18  14   6   13.30    0.77
 -16  14   6    3.79    0.43
 -14  14   6   21.94    0.91
 -12  14   6    0.46    0.21
 -10  14   6   19.95    0.81
  -8  14   6    8.22    0.50
  -8  14   6    7.93    0.34
  -6  14   6   27.43    0.69
  -6  14   6   28.71    0.93
  -4  14   6    0.98    0.15
  -4  14   6    0.80    0.20
  -2  14   6   19.25    0.59
  -2  14   6   17.65    0.69
   0  14   6    7.15    0.37
  -2 -14  -6   19.46    0.64
  -4 -14  -6    0.78    0.18
  -6 -14  -6   26.25    0.82
  -8 -14  -6    8.89    0.48
 -10 -14  -6   19.78    0.76
 -12 -14  -6    1.15    0.24
 -14 -14  -6   20.49    0.84
 -16 -14  -6    3.23    0.38
 -18 -14  -6   14.63    0.76
 -18 -14  -6   14.11    0.76
 -20 -14  -6    0.30    0.17
 -20 -14  -6    0.36    0.25
 -22 -14  -6   10.12    0.68
 -22 -14  -6    9.86    0.71
 -24 -14  -6    0.77    0.28
 -24 -14  -6    0.18    0.28
 -26 -14  -6    6.06    0.59
 -26 -14  -6    7.35    0.69
 -28 -14  -6    0.06    0.24
 -28  16   6    0.03    0.35
 -26  16   6   -0.08    0.29
 -24  16   6    0.20    0.29
 -22  16   6    0.59    0.29
 -20  16   6    0.10    0.20
 -18  16   6    0.06    0.18
 -16  16   6    0.30    0.22
 -14  16   6    3.11    0.39
 -12  16   6    0.14    0.17
 -10  16   6    0.85    0.24
  -8  16   6    0.21    0.18
  -6  16   6    1.02    0.25
  -6  16   6    0.82    0.15
  -4  16   6   -0.14    0.13
  -4  16   6    0.11    0.11
  -2  16   6    0.07    0.14
  -2  16   6    0.09    0.10
   0  16   6    0.02    0.10
  -2 -16  -6    0.04    0.11
  -4 -16  -6    0.04    0.13
  -6 -16  -6    1.60    0.24
  -8 -16  -6    0.01    0.13
   8  16   6    0.02    0.13
 -10 -16  -6    0.87    0.23
 -12 -16  -6   -0.08    0.15
 -14 -16  -6    2.83    0.37
 -16 -16  -6    0.29    0.24
 -18 -16  -6    0.02    0.16
 -20 -16  -6    0.00    0.20
 -22 -16  -6    0.70    0.25
 -24 -16  -6    0.29    0.27
 -26 -16  -6    0.11    0.24
 -28  18   6    0.06    0.30
 -26  18   6    4.48    0.64
 -24  18   6    0.40    0.28
 -22  18   6    6.08    0.66
 -20  18   6   -0.14    0.19
 -18  18   6   11.20    0.76
 -16  18   6   -0.13    0.16
 -14  18   6   14.93    0.81
 -12  18   6    0.08    0.15
 -10  18   6   17.11    0.81
  -8  18   6    0.24    0.17
  -6  18   6   19.19    0.82
  -4  18   6    0.18    0.11
  -4  18   6    0.55    0.21
  -2  18   6   17.35    0.74
  -2  18   6   16.29    0.60
   0  18   6    1.56    0.27
   0  18   6    2.43    0.26
  -2 -18  -6   16.85    0.66
  -4 -18  -6    0.40    0.17
  -6 -18  -6   21.45    0.80
  -8 -18  -6    0.32    0.18
 -10 -18  -6   16.14    0.75
 -12 -18  -6    0.19    0.16
 -14 -18  -6   15.14    0.76
 -16 -18  -6   -0.15    0.17
 -18 -18  -6   10.77    0.69
 -20 -18  -6    0.05    0.18
 -22 -18  -6    7.23    0.64
 -24 -18  -6    0.64    0.30
 -26  20   6    0.61    0.32
 -24  20   6    0.73    0.36
 -22  20   6   -0.17    0.20
 -20  20   6    0.43    0.28
 -18  20   6    0.05    0.24
 -16  20   6   -0.03    0.17
 -14  20   6    0.14    0.20
 -12  20   6    0.37    0.22
 -10  20   6    0.25    0.21
  -8  20   6    0.11    0.18
  -6  20   6   -0.11    0.17
  -4  20   6    0.89    0.25
  -2  20   6    0.72    0.23
  -2  20   6    0.60    0.18
   0  20   6    0.14    0.17
   0  20   6   -0.05    0.12
  -2 -20  -6    1.03    0.23
  -4 -20  -6    0.49    0.19
  -6 -20  -6    0.08    0.15
   6  20   6   -0.19    0.16
  -8 -20  -6    0.07    0.17
 -10 -20  -6    0.99    0.26
 -12 -20  -6   -0.11    0.19
 -14 -20  -6    0.31    0.20
 -16 -20  -6   -0.14    0.24
 -18 -20  -6    0.15    0.25
 -20 -20  -6    0.38    0.29
 -22 -20  -6    0.06    0.21
 -24 -20  -6   -0.06    0.23
 -24  22   6    0.16    0.32
 -22  22   6    8.58    0.79
 -20  22   6    0.04    0.26
 -18  22   6    6.94    0.68
 -16  22   6    1.05    0.34
 -14  22   6   11.10    0.75
 -12  22   6   -0.02    0.20
 -10  22   6   19.57    0.93
  -8  22   6    2.02    0.36
  -6  22   6   24.08    0.99
  -4  22   6    0.70    0.25
  -2  22   6   17.67    0.83
   0  22   6    2.78    0.37
   0  22   6    2.23    0.28
  -2 -22  -6   17.19    0.73
   2  22   6   18.22    0.83
  -4 -22  -6    0.38    0.19
  -6 -22  -6   21.76    0.88
  -8 -22  -6    2.52    0.36
 -10 -22  -6   20.03    0.89
 -12 -22  -6    0.24    0.22
 -14 -22  -6   10.24    0.69
 -16 -22  -6    0.93    0.32
 -18 -22  -6    5.88    0.61
 -20 -22  -6    0.35    0.27
 -22 -22  -6   10.02    0.81
 -22  24   6    0.15    0.31
 -20  24   6    0.76    0.34
 -18  24   6    0.40    0.32
 -16  24   6    0.58    0.30
 -14  24   6    0.19    0.25
 -12  24   6    0.15    0.24
 -10  24   6    0.76    0.32
  -8  24   6    0.25    0.24
  -6  24   6    0.15    0.23
  -4  24   6    0.44    0.25
  -2  24   6   -0.07    0.19
   0  24   6    0.00    0.19
  -2 -24  -6    0.81    0.25
   2  24   6    0.43    0.26
  -4 -24  -6    0.17    0.23
   4  24   6   -0.01    0.23
   4  24   6    0.40    0.26
  -6 -24  -6   -0.09    0.19
  -8 -24  -6    0.31    0.25
 -10 -24  -6    1.50    0.34
 -12 -24  -6   -0.13    0.24
 -14 -24  -6    0.26    0.25
 -16 -24  -6    0.02    0.27
 -18 -24  -6    0.23    0.27
 -20 -24  -6    0.44    0.36
 -20  26   6    0.66    0.36
 -18  26   6    5.98    0.69
 -16  26   6   -0.17    0.22
 -14  26   6    6.82    0.66
 -12  26   6    1.16    0.36
 -10  26   6    5.05    0.55
  -8  26   6   -0.08    0.20
  -6  26   6    4.55    0.50
  -4  26   6    1.46    0.34
  -2  26   6    5.37    0.51
   0  26   6   -0.02    0.21
   2  26   6    6.20    0.53
   2  26   6    4.84    0.49
  -6 -26  -6    4.35    0.47
  -8 -26  -6    0.18    0.21
 -10 -26  -6    5.23    0.53
 -12 -26  -6    0.80    0.28
 -14 -26  -6    7.05    0.65
 -16 -26  -6    0.02    0.27
 -18  28   6    0.20    0.32
 -16  28   6    0.55    0.32
 -14  28   6   -0.02    0.27
 -12  28   6    0.36    0.29
 -10  28   6    0.02    0.26
  -8  28   6    0.29    0.28
  -6  28   6   -0.15    0.22
  -4  28   6    0.19    0.25
   0  28   6   -0.35    0.22
   2  28   6   -0.06    0.21
  -8 -28  -6   -0.36    0.23
 -10 -28  -6    0.25    0.27
 -12 -28  -6    0.03    0.29
 -14 -28  -6   -0.01    0.30
 -14  30   6    5.23    0.65
 -12  30   6   -0.48    0.24
 -10  30   6    5.86    0.64
  -8  30   6    0.07    0.28
  -4  30   6   -0.18    0.23
  -2  30   6    3.76    0.51
   0  30   6    0.08    0.26
 -10 -30  -6    4.54    0.56
 -12 -30  -6    0.15    0.35
 -10  32   6    0.00    0.28
  -8  32   6    0.13    0.30
  -6  32   6    0.15    0.28
  -4  32   6    0.23    0.28
  -2  32   6   -0.13    0.26
   0  32   6   -0.29    0.26
   5  33  -7   -0.02    0.31
   3  33  -7    0.34    0.35
   1  33  -7   -0.03    0.28
  -1  33  -7    0.13    0.29
  -3  33  -7   -0.10    0.28
  -5  33  -7    0.03    0.27
   5  31  -7    0.14    0.28
   3  31  -7   -0.20    0.27
   1  31  -7   -0.02    0.26
  -1  31  -7   -0.15    0.27
  -3  31  -7   -0.13    0.26
  -5  31  -7    0.01    0.25
  -7  31  -7    0.49    0.31
  -9  31  -7    0.01    0.26
 -11  31  -7   -0.14    0.29
 -13 -29   7   -0.03    0.31
 -11 -29   7    0.27    0.30
   7  29  -7   -0.16    0.27
   5  29  -7   -0.09    0.24
   3  29  -7    0.25    0.28
   1  29  -7   -0.22    0.21
  -1  29  -7   -0.14    0.23
  -3  29  -7    0.27    0.27
  -5  29  -7   -0.16    0.22
  -7  29  -7   -0.09    0.22
  -9  29  -7   -0.17    0.20
 -11  29  -7    0.45    0.32
 -13  29  -7   -0.22    0.30
 -15  29  -7    0.41    0.37
 -15 -27   7    0.25    0.28
 -13 -27   7    0.07    0.26
 -11 -27   7    0.14    0.25
   9  27  -7    0.26    0.27
  -9 -27   7   -0.25    0.18
   7  27  -7    0.17    0.27
   5  27  -7   -0.08    0.23
   3  27  -7    0.17    0.24
   1  27  -7    0.29    0.26
  -1  27  -7    0.87    0.32
  -3  27  -7    0.07    0.22
  -5  27  -7   -0.03    0.18
  -7  27  -7   -0.01    0.20
  -9  27  -7   -0.04    0.23
 -11  27  -7    0.00    0.27
 -13  27  -7   -0.15    0.27
 -15  27  -7    0.07    0.32
 -17  27  -7    0.22    0.34
 -19  27  -7    0.18    0.35
 -17 -25   7   -0.30    0.29
 -15 -25   7   -0.06    0.23
 -13 -25   7    0.06    0.23
 -11 -25   7   -0.25    0.18
   9  25  -7    0.07    0.22
  -9 -25   7    0.09    0.22
   7  25  -7    0.06    0.22
  -7 -25   7   -0.01    0.20
   5  25  -7   -0.05    0.21
  -5 -25   7   -0.07    0.20
   3  25  -7    0.23    0.21
   1  25  -7    0.22    0.21
  -1  25  -7    0.64    0.27
  -3  25  -7    0.14    0.20
  -5  25  -7    0.02    0.18
  -7  25  -7    0.00    0.22
  -9  25  -7   -0.20    0.22
 -11  25  -7   -0.01    0.26
 -13  25  -7   -0.28    0.21
 -15  25  -7   -0.15    0.26
 -17  25  -7   -0.07    0.26
 -19  25  -7    0.12    0.32
 -21  25  -7    0.03    0.34
 -19 -23   7    0.11    0.25
 -17 -23   7    0.25    0.27
 -15 -23   7    0.21    0.26
 -13 -23   7    0.16    0.24
  11  23  -7   -0.11    0.18
 -11 -23   7    0.17    0.22
   9  23  -7    0.10    0.22
  -9 -23   7    0.15    0.20
   7  23  -7   -0.15    0.20
  -7 -23   7   -0.14    0.17
   5  23  -7    0.28    0.27
  -5 -23   7    0.83    0.26
   3  23  -7    0.21    0.23
  -3 -23   7   -0.04    0.17
   1  23  -7    0.11    0.19
  -1  23  -7    0.54    0.25
  -3  23  -7    0.20    0.19
  -5  23  -7    1.12    0.29
  -7  23  -7   -0.03    0.20
  -9  23  -7    0.02    0.23
 -11  23  -7   -0.06    0.24
 -13  23  -7    0.15    0.28
 -15  23  -7    0.20    0.29
 -17  23  -7    0.05    0.27
 -17  23  -7    0.33    0.31
 -19  23  -7   -0.18    0.25
 -19  23  -7   -0.16    0.27
 -21  23  -7   -0.21    0.28
 -21  23  -7   -0.04    0.30
 -23  23  -7    0.13    0.36
 -23  23  -7    0.00    0.33
 -21 -21   7    0.00    0.27
 -19 -21   7    0.17    0.27
 -17 -21   7    0.12    0.23
 -15 -21   7    0.06    0.22
 -13 -21   7    0.55    0.24
  11  21  -7    2.00    0.35
 -11 -21   7    1.98    0.35
   9  21  -7    0.12    0.19
  -9 -21   7    0.12    0.19
   7  21  -7   -0.32    0.16
  -7 -21   7    0.13    0.18
   5  21  -7   -0.06    0.16
  -5 -21   7   -0.04    0.14
   3  21  -7    0.09    0.19
  -3 -21   7    0.03    0.15
   1  21  -7    0.04    0.18
  -1 -21   7    0.28    0.15
  -1  21  -7    0.49    0.22
  -3  21  -7   -0.16    0.13
  -5  21  -7   -0.04    0.19
  -7  21  -7   -0.14    0.18
  -9  21  -7    0.13    0.22
 -11  21  -7    2.02    0.37
 -13  21  -7   -0.13    0.22
 -13  21  -7    0.61    0.27
 -15  21  -7    0.24    0.26
 -15  21  -7    0.09    0.23
 -17  21  -7    0.39    0.27
 -17  21  -7   -0.01    0.28
 -19  21  -7    0.14    0.30
 -19  21  -7    0.22    0.28
 -21  21  -7    0.14    0.29
 -21  21  -7   -0.20    0.27
 -23  21  -7    0.14    0.31
 -23  21  -7    0.11    0.35
 -25  21  -7    0.24    0.35
 -23 -19   7    0.04    0.21
 -21 -19   7    0.38    0.27
 -19 -19   7    0.01    0.20
 -17 -19   7    0.69    0.27
 -15 -19   7   -0.06    0.17
  13  19  -7    0.56    0.24
 -13 -19   7    0.29    0.21
  11  19  -7    0.10    0.20
 -11 -19   7    0.08    0.16
   9  19  -7    0.56    0.23
  -9 -19   7    0.37    0.18
   7  19  -7   -0.08    0.18
  -7 -19   7   -0.07    0.13
   5  19  -7   -0.02    0.15
  -5 -19   7   -0.12    0.12
   3  19  -7    0.75    0.23
  -3 -19   7    0.61    0.19
   1  19  -7    0.79    0.24
  -1 -19   7    0.74    0.19
  -1  19  -7    0.72    0.23
   1 -19   7    0.81    0.18
  -3  19  -7    0.22    0.18
  -5  19  -7    0.03    0.17
  -7  19  -7    0.31    0.21
  -9  19  -7    0.21    0.21
  -9  19  -7    0.91    0.27
 -11  19  -7    0.16    0.22
 -11  19  -7   -0.15    0.19
 -13  19  -7    0.23    0.24
 -13  19  -7    0.46    0.26
 -15  19  -7    0.45    0.25
 -15  19  -7    0.13    0.22
 -17  19  -7    1.17    0.33
 -17  19  -7    0.61    0.29
 -19  19  -7   -0.10    0.23
 -19  19  -7   -0.13    0.24
 -21  19  -7    0.04    0.27
 -21  19  -7    0.34    0.30
 -23  19  -7    0.39    0.31
 -23  19  -7   -0.20    0.28
 -25  19  -7    0.20    0.33
 -27  19  -7    0.18    0.30
 -25 -17   7    0.04    0.21
 -23 -17   7    0.26    0.24
 -21 -17   7   -0.14    0.18
 -19 -17   7    0.89    0.28
 -17 -17   7   -0.25    0.15
 -15 -17   7   -0.12    0.14
  13  17  -7    1.69    0.30
 -13 -17   7    1.65    0.32
  11  17  -7   -0.03    0.17
 -11 -17   7    0.02    0.16
   9  17  -7   -0.06    0.15
  -9 -17   7   -0.05    0.12
   7  17  -7    0.09    0.15
  -7 -17   7   -0.02    0.13
   5  17  -7   -0.17    0.12
  -5 -17   7   -0.13    0.12
   3  17  -7    1.06    0.24
  -3 -17   7    1.35    0.22
   1  17  -7    0.13    0.15
  -1 -17   7    0.09    0.12
  -1  17  -7    0.33    0.18
   1 -17   7    0.07    0.11
  -3  17  -7    1.43    0.26
   3 -17   7    1.28    0.18
  -5  17  -7   -0.04    0.15
  -5  17  -7   -0.06    0.12
  -7  17  -7   -0.02    0.14
  -7  17  -7   -0.04    0.15
  -9  17  -7    0.06    0.16
  -9  17  -7    0.17    0.18
 -11  17  -7    0.18    0.20
 -11  17  -7    0.10    0.18
 -13  17  -7    1.59    0.31
 -13  17  -7    1.49    0.32
 -15  17  -7   -0.15    0.21
 -15  17  -7    0.06    0.20
 -17  17  -7   -0.26    0.17
 -17  17  -7   -0.06    0.20
 -19  17  -7    0.69    0.29
 -19  17  -7    0.36    0.25
 -21  17  -7    0.12    0.26
 -21  17  -7   -0.29    0.21
 -23  17  -7    0.25    0.29
 -25  17  -7    0.01    0.29
 -27  17  -7   -0.19    0.25
 -27 -15   7   -0.25    0.21
 -25 -15   7   -0.16    0.17
 -23 -15   7   -0.35    0.15
 -21 -15   7    0.52    0.26
 -19 -15   7   -0.02    0.17
 -17 -15   7    0.10    0.16
 -15 -15   7    0.07    0.17
  13  15  -7    0.02    0.16
 -13 -15   7   -0.02    0.14
  11  15  -7    0.10    0.15
 -11 -15   7   -0.10    0.13
   9  15  -7    0.60    0.20
  -9 -15   7    0.69    0.20
   7  15  -7    0.19    0.15
  -7 -15   7    0.08    0.12
   5  15  -7    2.05    0.28
  -5 -15   7    2.46    0.28
   3  15  -7    0.07    0.13
  -3 -15   7    0.53    0.16
   1  15  -7    0.09    0.13
  -1 -15   7    0.38    0.13
  -1  15  -7    0.10    0.13
  -1  15  -7    0.11    0.10
   1 -15   7    0.03    0.10
  -3  15  -7    0.83    0.22
  -3  15  -7    0.28    0.12
   3 -15   7    0.33    0.11
  -5  15  -7    1.82    0.28
  -5  15  -7    1.81    0.22
   5 -15   7    1.99    0.18
  -7  15  -7    0.11    0.15
  -7  15  -7   -0.07    0.13
  -9  15  -7    0.57    0.21
  -9  15  -7    0.36    0.17
 -11  15  -7    0.00    0.15
 -11  15  -7    0.14    0.18
 -13  15  -7   -0.17    0.18
 -13  15  -7    0.04    0.17
 -15  15  -7    0.08    0.20
 -15  15  -7    0.15    0.19
 -17  15  -7    0.14    0.23
 -17  15  -7   -0.11    0.19
 -19  15  -7   -0.07    0.21
 -19  15  -7    0.00    0.22
 -21  15  -7    0.28    0.24
 -21  15  -7    0.32    0.27
 -23  15  -7    0.12    0.26
 -25  15  -7    0.09    0.27
 -27  15  -7    0.13    0.33
 -29  15  -7   -0.18    0.26
 -29 -13   7    0.14    0.29
 -27 -13   7    0.12    0.27
 -25 -13   7    0.15    0.21
 -23 -13   7    0.10    0.21
 -21 -13   7    0.34    0.23
 -19 -13   7    0.41    0.21
 -17 -13   7    1.26    0.28
 -15 -13   7    0.10    0.14
  13  13  -7    0.04    0.16
 -13 -13   7   -0.06    0.13
  11  13  -7    0.17    0.16
 -11 -13   7    0.23    0.15
   9  13  -7    0.19    0.14
  -9 -13   7    0.43    0.17
   7  13  -7   -0.02    0.12
  -7 -13   7   -0.05    0.10
   5  13  -7    0.39    0.15
  -5 -13   7    0.56    0.17
   3  13  -7    1.19    0.20
  -3 -13   7    0.93    0.18
   1  13  -7    0.46    0.15
  -1 -13   7    0.95    0.16
  -1  13  -7    1.11    0.21
  -1  13  -7    1.05    0.13
   1 -13   7    0.82    0.14
  -3  13  -7    1.14    0.16
  -3  13  -7    0.83    0.19
   3 -13   7    0.75    0.13
  -5  13  -7    0.54    0.19
  -5  13  -7    0.59    0.15
   5 -13   7    0.46    0.10
  -7  13  -7   -0.06    0.10
  -7  13  -7   -0.04    0.11
   7 -13   7   -0.12    0.06
  -9  13  -7    0.35    0.18
  -9  13  -7    0.18    0.15
 -11  13  -7    0.11    0.16
 -11  13  -7    0.57    0.21
 -13  13  -7   -0.11    0.16
 -13  13  -7    0.04    0.15
 -15  13  -7    0.07    0.20
 -15  13  -7    0.05    0.16
 -17  13  -7    1.05    0.28
 -17  13  -7    1.62    0.31
 -19  13  -7    0.68    0.29
 -19  13  -7    0.36    0.22
 -21  13  -7    0.33    0.25
 -21  13  -7    0.80    0.28
 -23  13  -7    0.13    0.22
 -25  13  -7   -0.30    0.20
 -27  13  -7    0.22    0.29
 -29  13  -7   -0.07    0.30
 -29 -11   7    0.27    0.28
 -27 -11   7   -0.01    0.22
 -25 -11   7   -0.10    0.18
 -23 -11   7    0.11    0.17
 -21 -11   7    0.94    0.26
 -19 -11   7   -0.04    0.12
 -17 -11   7    0.16    0.14
 -15 -11   7   -0.01    0.10
  13  11  -7    0.11    0.16
 -13 -11   7    0.26    0.15
  11  11  -7    0.00    0.13
 -11 -11   7    0.10    0.12
   9  11  -7    0.81    0.19
  -9 -11   7    0.79    0.18
   7  11  -7    0.00    0.10
  -7 -11   7    0.03    0.10
   5  11  -7    1.35    0.20
  -5 -11   7    0.99    0.17
   3  11  -7    0.01    0.11
  -3 -11   7    0.01    0.08
   1  11  -7    3.69    0.30
  -1 -11   7    3.87    0.26
  -1  11  -7    4.71    0.33
  -1  11  -7    4.10    0.21
   1 -11   7    3.86    0.24
  -3  11  -7    0.26    0.13
  -3  11  -7    0.20    0.10
   3 -11   7    0.00    0.06
  -5  11  -7    1.51    0.22
  -5  11  -7    1.22    0.17
   5 -11   7    1.22    0.13
  -7  11  -7    0.02    0.11
  -7  11  -7    0.07    0.11
   7 -11   7    0.02    0.06
  -9  11  -7    0.72    0.19
  -9  11  -7    1.22    0.22
 -11  11  -7   -0.10    0.11
 -11  11  -7    0.21    0.15
 -13  11  -7   -0.07    0.15
 -13  11  -7    0.01    0.15
 -15  11  -7    0.15    0.19
 -15  11  -7    0.08    0.16
 -17  11  -7    0.05    0.20
 -17  11  -7   -0.08    0.15
 -19  11  -7    0.14    0.19
 -19  11  -7    0.28    0.21
 -21  11  -7    1.41    0.33
 -23  11  -7    0.41    0.25
 -25  11  -7   -0.06    0.22
 -27  11  -7   -0.24    0.21
 -29  11  -7    0.20    0.32
 -31  11  -7    0.09    0.27
 -31  -9   7   -0.18    0.23
 -29  -9   7   -0.04    0.23
 -27  -9   7    0.06    0.20
 -25  -9   7    0.25    0.23
 -23  -9   7    0.41    0.21
 -21  -9   7   -0.01    0.16
 -19  -9   7    0.62    0.21
 -17  -9   7   -0.03    0.12
 -15  -9   7    0.28    0.13
 -13  -9   7    0.11    0.12
  11   9  -7    0.73    0.18
 -11  -9   7    0.55    0.16
 -11  -9   7    1.29    0.14
   9   9  -7    0.06    0.11
  -9  -9   7   -0.08    0.09
   7   9  -7    0.00    0.10
  -7  -9   7   -0.06    0.07
   5   9  -7    1.57    0.20
  -5  -9   7    1.63    0.19
   3   9  -7    0.12    0.10
  -3  -9   7    0.17    0.09
   1   9  -7   10.64    0.45
  -1  -9   7   10.88    0.40
  -1   9  -7   10.25    0.44
   1  -9   7   10.25    0.37
  -3   9  -7    0.22    0.10
  -3   9  -7    0.15    0.08
   3  -9   7    0.16    0.07
  -5   9  -7    1.79    0.18
  -5   9  -7    1.50    0.19
   5  -9   7    2.04    0.15
  -7   9  -7    0.02    0.10
  -7   9  -7    0.11    0.11
   7  -9   7    0.05    0.06
  -9   9  -7    0.05    0.05
  -9   9  -7   -0.01    0.10
  -9   9  -7   -0.02    0.10
   9  -9   7    0.02    0.06
 -11   9  -7    0.89    0.20
 -11   9  -7    0.75    0.18
  11  -9   7    1.17    0.12
 -13   9  -7    0.25    0.15
 -13   9  -7    0.09    0.15
 -15   9  -7    0.22    0.16
 -15   9  -7    0.42    0.21
 -17   9  -7   -0.02    0.18
 -17   9  -7   -0.06    0.14
 -19   9  -7    0.23    0.20
 -19   9  -7    0.90    0.24
 -21   9  -7   -0.22    0.16
 -23   9  -7    0.12    0.22
 -25   9  -7    0.17    0.23
 -27   9  -7    0.16    0.25
 -29   9  -7    0.00    0.27
 -31   9  -7   -0.29    0.22
 -29  -7   7    0.03    0.23
 -27  -7   7    0.05    0.22
 -25  -7   7   -0.09    0.18
 -23  -7   7   -0.13    0.15
 -21  -7   7   -0.03    0.16
 -19  -7   7    0.08    0.14
 -17  -7   7   -0.04    0.12
 -17  -7   7   -0.05    0.09
 -15  -7   7    0.02    0.12
 -15  -7   7    0.13    0.13
 -13  -7   7   -0.02    0.10
 -13  -7   7   -0.09    0.08
 -11  -7   7   -0.05    0.08
 -11  -7   7   -0.04    0.07
   9   7  -7   -0.08    0.09
  -9  -7   7   -0.05    0.06
  -9  -7   7   -0.03    0.07
   7   7  -7    0.00    0.08
  -7  -7   7   -0.04    0.07
   5   7  -7   -0.07    0.08
  -5  -7   7   -0.05    0.06
   3   7  -7    0.03    0.09
  -3  -7   7   -0.02    0.06
   1   7  -7   -0.06    0.06
  -1  -7   7    0.11    0.07
  -1   7  -7    0.08    0.08
   1  -7   7    0.02    0.06
  -3   7  -7    0.04    0.06
  -3   7  -7    0.02    0.08
   3  -7   7    0.02    0.05
  -5   7  -7   -0.01    0.07
  -5   7  -7   -0.04    0.07
   5  -7   7   -0.03    0.04
  -7   7  -7   -0.03    0.08
  -7   7  -7    0.01    0.09
   7  -7   7    0.03    0.06
  -9   7  -7   -0.02    0.08
  -9   7  -7   -0.05    0.08
   9  -7   7   -0.01    0.06
 -11   7  -7    0.03    0.10
 -11   7  -7    0.03    0.11
  11  -7   7   -0.04    0.06
 -13   7  -7    0.08    0.15
 -13   7  -7   -0.04    0.11
  13  -7   7   -0.03    0.07
 -15   7  -7    0.17    0.15
 -15   7  -7    0.01    0.11
 -17   7  -7    0.04    0.13
 -17   7  -7    0.24    0.17
 -19   7  -7    0.19    0.21
 -21   7  -7    0.06    0.19
 -23   7  -7   -0.21    0.19
 -25   7  -7    0.25    0.26
 -27   7  -7    0.11    0.26
 -29   7  -7   -0.10    0.25
 -31   7  -7    0.07    0.34
 -27  -5   7    0.37    0.23
 -25  -5   7   -0.26    0.15
 -23  -5   7    1.24    0.27
 -23  -5   7    0.72    0.27
 -21  -5   7    0.05    0.16
 -21  -5   7   -0.01    0.19
 -19  -5   7    0.20    0.15
 -19  -5   7    0.02    0.15
 -17  -5   7   -0.12    0.10
 -17  -5   7   -0.08    0.11
 -15  -5   7    1.91    0.23
 -15  -5   7    1.96    0.26
 -13  -5   7    0.45    0.13
 -13  -5   7    0.45    0.16
 -11  -5   7    1.18    0.19
 -11  -5   7    1.30    0.16
  -9  -5   7    1.87    0.20
  -9  -5   7    1.41    0.14
   7   5  -7    0.00    0.08
  -7  -5   7    0.03    0.07
   5   5  -7    0.05    0.09
  -5  -5   7   -0.12    0.06
   3   5  -7    0.66    0.13
  -3  -5   7    0.62    0.11
   1   5  -7    5.31    0.28
  -1  -5   7    4.74    0.24
  -1   5  -7    5.29    0.28
   1  -5   7    4.96    0.24
  -3   5  -7    0.57    0.11
  -3   5  -7    0.64    0.10
   3  -5   7    0.31    0.08
  -5   5  -7    0.01    0.07
  -5   5  -7    0.00    0.07
   5  -5   7    0.01    0.05
  -7   5  -7   -0.04    0.07
  -7   5  -7   -0.04    0.08
  -7   5  -7    0.00    0.05
   7  -5   7    0.02    0.06
  -9   5  -7    1.77    0.22
  -9   5  -7    2.16    0.20
   9  -5   7    1.82    0.16
 -11   5  -7    1.15    0.16
 -11   5  -7    1.39    0.22
  11  -5   7    0.92    0.13
 -13   5  -7    0.45    0.13
 -13   5  -7    0.52    0.18
  13  -5   7    0.39    0.10
 -15   5  -7    1.53    0.21
 -15   5  -7    1.98    0.30
  15  -5   7    1.77    0.17
 -17   5  -7   -0.08    0.15
 -19   5  -7    0.03    0.16
 -21   5  -7    0.01    0.20
 -23   5  -7    0.86    0.30
 -25   5  -7   -0.21    0.22
 -27   5  -7    0.33    0.25
 -29   5  -7    0.23    0.31
 -31   5  -7    0.21    0.30
 -33   5  -7    0.13    0.36
 -27  -3   7    0.33    0.26
 -25  -3   7    0.06    0.18
 -25  -3   7   -0.01    0.24
 -23  -3   7   -0.04    0.20
 -23  -3   7    0.14    0.17
 -21  -3   7    0.03    0.14
 -21  -3   7    0.05    0.16
 -19  -3   7    0.40    0.18
 -19  -3   7    0.57    0.19
 -17  -3   7    1.94    0.26
 -17  -3   7    1.34    0.23
 -15  -3   7    0.15    0.12
 -15  -3   7    0.39    0.15
 -13  -3   7    0.83    0.17
 -13  -3   7    0.69    0.16
 -11  -3   7    0.06    0.08
 -11  -3   7    0.05    0.09
  -9  -3   7    0.09    0.08
  -9  -3   7    0.09    0.08
  -7  -3   7    0.00    0.06
  -7  -3   7   -0.05    0.05
  -5  -3   7    0.37    0.10
   3   3  -7    0.00    0.07
  -3  -3   7    0.06    0.06
  -1  -3   7   23.00    0.56
  -1   3  -7   25.15    0.61
  -1   3  -7   24.26    0.51
   1  -3   7   23.02    0.56
  -3   3  -7   -0.04    0.06
  -3   3  -7    0.01    0.06
   3  -3   7    0.05    0.06
  -5   3  -7    0.54    0.10
  -5   3  -7    0.56    0.10
   5  -3   7    0.44    0.09
  -7   3  -7    0.05    0.07
  -7   3  -7    0.10    0.08
  -7   3  -7    0.00    0.06
   7  -3   7    0.03    0.06
  -9   3  -7    0.19    0.10
  -9   3  -7    0.17    0.08
   9  -3   7    0.17    0.08
 -11   3  -7    0.15    0.11
 -11   3  -7    0.11    0.08
  11  -3   7    0.01    0.07
 -13   3  -7    0.92    0.15
 -13   3  -7    0.85    0.19
  13  -3   7    0.91    0.14
 -15   3  -7    0.20    0.12
 -15   3  -7    0.70    0.22
  15  -3   7    0.48    0.13
 -17   3  -7    1.19    0.27
  17  -3   7    1.30    0.18
 -19   3  -7    0.20    0.18
 -21   3  -7    0.16    0.20
 -23   3  -7    0.41    0.25
 -25   3  -7   -0.12    0.20
 -27   3  -7    0.06    0.27
 -29   3  -7   -0.06    0.26
 -31   3  -7    0.01    0.34
 -33   3  -7    0.12    0.35
 -31  -1   7    0.20    0.32
 -29  -1   7   -0.47    0.25
 -27  -1   7    0.43    0.29
 -25  -1   7    0.04    0.23
 -23  -1   7    0.23    0.22
 -23  -1   7    0.33    0.20
 -21  -1   7    0.11    0.14
 -21  -1   7    0.02    0.19
 -19  -1   7    1.19    0.26
 -19  -1   7    1.10    0.22
 -17  -1   7   -0.10    0.15
 -17  -1   7   -0.08    0.12
 -15  -1   7    0.31    0.14
 -15  -1   7    0.15    0.12
 -13  -1   7    1.00    0.18
 -13  -1   7    0.79    0.17
 -11  -1   7    3.91    0.27
 -11  -1   7    3.88    0.27
  -9  -1   7   10.96    0.42
  -9  -1   7   10.23    0.39
  -7  -1   7   -0.06    0.05
  -7  -1   7    0.02    0.06
  -5  -1   7    4.95    0.26
  -5  -1   7    5.40    0.23
  -3  -1   7   24.14    0.59
   1   1  -7    0.04    0.07
  -1  -1   7    0.07    0.06
  -1   1  -7    0.08    0.06
   1  -1   7    0.00    0.05
  -3   1  -7   24.25    0.57
  -3   1  -7   23.93    0.56
   3  -1   7   24.50    0.58
  -5   1  -7    4.97    0.26
  -5   1  -7    5.18    0.23
  -5   1  -7    5.55    0.24
   5  -1   7    5.76    0.25
  -7   1  -7   -0.04    0.06
  -7   1  -7    0.03    0.07
   7  -1   7    0.03    0.05
  -9   1  -7   10.09    0.44
  -9   1  -7   10.53    0.33
   9  -1   7   10.41    0.37
 -11   1  -7    4.06    0.32
 -11   1  -7    4.07    0.22
  11  -1   7    4.05    0.25
 -13   1  -7    0.83    0.19
 -13   1  -7    1.23    0.13
  13  -1   7    0.91    0.14
 -15   1  -7    0.11    0.12
 -15   1  -7    0.20    0.17
  15  -1   7    0.01    0.09
 -17   1  -7    0.04    0.11
 -17   1  -7    0.05    0.16
 -19   1  -7    0.64    0.24
 -19   1  -7    0.70    0.18
 -21   1  -7    0.12    0.19
 -23   1  -7    0.37    0.23
 -25   1  -7    0.01    0.22
 -27   1  -7    0.46    0.29
 -29   1  -7   -0.07    0.28
 -31   1  -7    0.24    0.35
 -33   1  -7    0.23    0.37
 -33   1   7    0.00    0.35
 -31   1   7   -0.13    0.31
 -29   1   7   -0.32    0.25
 -27   1   7    0.21    0.26
 -25   1   7    0.00    0.23
 -23   1   7    0.69    0.28
 -21   1   7    0.33    0.21
 -21   1   7    0.05    0.14
 -19   1   7    0.69    0.23
 -19   1   7    0.95    0.20
 -17   1   7    0.22    0.14
 -17   1   7    0.14    0.17
 -15   1   7    0.18    0.14
 -15   1   7    0.53    0.15
 -13   1   7    1.24    0.20
 -13   1   7    1.08    0.17
 -11   1   7    3.91    0.26
 -11   1   7    3.35    0.26
  -9   1   7   10.22    0.41
  -9   1   7   10.48    0.40
  -7   1   7    0.03    0.06
  -7   1   7    0.01    0.06
  -5   1   7    4.75    0.24
  -5   1   7    5.12    0.25
  -3   1   7   24.58    0.59
  -1   1   7   -0.07    0.05
   1   1   7    0.05    0.06
  -3  -1  -7   24.87    0.58
  -3  -1  -7   23.66    0.60
   3   1   7   23.39    0.57
  -5  -1  -7    4.75    0.26
  -5  -1  -7    4.68    0.21
   5   1   7    4.92    0.24
  -7  -1  -7    0.02    0.07
   7   1   7    0.04    0.06
  -9  -1  -7   10.16    0.45
   9   1   7    9.82    0.38
 -11  -1  -7    3.64    0.25
 -11  -1  -7    3.63    0.30
  11   1   7    4.26    0.26
 -13  -1  -7    0.95    0.16
 -13  -1  -7    1.22    0.21
 -15  -1  -7    0.18    0.11
 -15  -1  -7    0.31    0.17
 -17  -1  -7    0.34    0.19
 -17  -1  -7    0.33    0.15
 -19  -1  -7    0.56    0.23
 -19  -1  -7    1.10    0.22
 -21  -1  -7    0.29    0.15
 -21  -1  -7    0.19    0.22
 -23  -1  -7    0.44    0.25
 -25  -1  -7    0.03    0.24
 -27  -1  -7    0.01    0.24
 -29  -1  -7    0.17    0.27
 -31  -1  -7   -0.01    0.33
 -33  -1  -7    0.35    0.38
 -33   3   7    0.55    0.42
 -31   3   7    0.16    0.33
 -29   3   7   -0.20    0.26
 -27   3   7   -0.06    0.23
 -25   3   7   -0.12    0.20
 -23   3   7   -0.19    0.20
 -21   3   7   -0.20    0.19
 -19   3   7    0.45    0.21
 -19   3   7    0.12    0.14
 -17   3   7    1.54    0.22
 -17   3   7    1.22    0.26
 -15   3   7    0.18    0.13
 -15   3   7    0.36    0.12
 -13   3   7    0.89    0.16
 -13   3   7    0.82    0.19
 -11   3   7    0.08    0.08
 -11   3   7    0.06    0.10
  -9   3   7    0.02    0.08
  -9   3   7    0.03    0.09
  -7   3   7   -0.04    0.06
  -7   3   7    0.06    0.08
  -5   3   7    0.65    0.11
  -5   3   7    0.59    0.12
  -3   3   7   -0.04    0.05
  -1   3   7   23.99    0.59
  -1  -3  -7   23.78    0.58
  -3  -3  -7   -0.06    0.05
   3   3   7    0.00    0.04
  -5  -3  -7    0.37    0.10
   5   3   7    0.50    0.10
  -7  -3  -7    0.03    0.07
   7   3   7    0.06    0.07
  -9  -3  -7    0.24    0.12
  -9  -3  -7    0.19    0.09
 -11  -3  -7   -0.06    0.07
 -11  -3  -7   -0.02    0.08
 -13  -3  -7    0.86    0.19
 -13  -3  -7    0.57    0.14
 -15  -3  -7    0.33    0.17
 -15  -3  -7    0.21    0.14
 -17  -3  -7    1.29    0.22
 -17  -3  -7    1.44    0.28
 -19  -3  -7    0.10    0.14
 -19  -3  -7    0.36    0.22
 -21  -3  -7   -0.21    0.14
 -21  -3  -7   -0.12    0.19
 -23  -3  -7   -0.02    0.18
 -23  -3  -7   -0.03    0.23
 -25  -3  -7    0.07    0.24
 -27  -3  -7   -0.01    0.29
 -29  -3  -7   -0.40    0.27
 -31  -3  -7    0.36    0.33
 -33  -3  -7   -0.10    0.34
 -33   5   7   -0.13    0.36
 -31   5   7   -0.14    0.36
 -29   5   7   -0.18    0.27
 -27   5   7    0.10    0.28
 -25   5   7   -0.11    0.24
 -23   5   7    0.83    0.30
 -21   5   7    0.09    0.20
 -19   5   7    0.01    0.15
 -17   5   7   -0.07    0.10
 -17   5   7    0.07    0.15
 -15   5   7    1.86    0.20
 -15   5   7    1.24    0.23
 -13   5   7    0.50    0.13
 -13   5   7    0.50    0.16
 -11   5   7    1.36    0.16
 -11   5   7    1.25    0.20
  -9   5   7    1.65    0.21
  -9   5   7    1.78    0.17
  -7   5   7   -0.07    0.07
  -7   5   7    0.13    0.07
  -5   5   7    0.02    0.07
  -5   5   7   -0.05    0.05
  -3   5   7    0.51    0.10
   1  -5  -7    4.93    0.25
  -1   5   7    5.60    0.26
  -1  -5  -7    4.70    0.25
   3   5   7    0.48    0.10
   5   5   7    0.23    0.08
  -7  -5  -7    0.05    0.08
  -7  -5  -7    0.08    0.07
  -9  -5  -7    1.89    0.22
  -9  -5  -7    1.81    0.20
 -11  -5  -7    1.49    0.21
 -11  -5  -7    1.21    0.18
 -13  -5  -7    0.50    0.14
 -13  -5  -7    0.41    0.16
 -15  -5  -7    1.63    0.27
 -15  -5  -7    1.74    0.23
 -17  -5  -7    0.03    0.16
 -17  -5  -7   -0.09    0.09
 -19  -5  -7    0.11    0.12
 -19  -5  -7   -0.05    0.16
 -21  -5  -7    0.10    0.15
 -21  -5  -7   -0.13    0.16
 -23  -5  -7    0.49    0.27
 -23  -5  -7    0.63    0.23
 -25  -5  -7   -0.01    0.16
 -25  -5  -7   -0.01    0.22
 -27  -5  -7   -0.08    0.26
 -29  -5  -7   -0.30    0.26
 -31  -5  -7    0.45    0.38
 -33  -5  -7    0.54    0.39
 -31   7   7    0.02    0.28
 -29   7   7   -0.57    0.25
 -27   7   7   -0.17    0.25
 -25   7   7   -0.14    0.26
 -23   7   7   -0.05    0.24
 -21   7   7   -0.11    0.20
 -19   7   7    0.32    0.21
 -17   7   7   -0.13    0.15
 -15   7   7    0.02    0.09
 -15   7   7    0.18    0.16
 -13   7   7   -0.02    0.12
 -13   7   7   -0.14    0.08
 -11   7   7   -0.06    0.07
 -11   7   7    0.05    0.10
  -9   7   7   -0.12    0.06
  -9   7   7    0.00    0.10
  -7   7   7    0.02    0.08
  -7   7   7    0.04    0.07
  -5   7   7    0.01    0.06
  -5   7   7    0.08    0.09
   3  -7  -7    0.03    0.07
  -3   7   7    0.00    0.06
   1  -7  -7    0.02    0.06
  -1   7   7    0.10    0.06
   1   7   7   -0.03    0.05
   3   7   7   -0.02    0.06
  -5  -7  -7    0.15    0.09
   5   7   7    0.03    0.06
  -7  -7  -7    0.01    0.09
  -9  -7  -7    0.01    0.09
  -9  -7  -7    0.07    0.10
 -11  -7  -7    0.06    0.11
 -11  -7  -7   -0.13    0.09
 -13  -7  -7    0.01    0.12
 -13  -7  -7    0.09    0.11
 -15  -7  -7   -0.06    0.10
 -15  -7  -7    0.09    0.15
 -17  -7  -7    0.16    0.16
 -17  -7  -7   -0.06    0.11
 -19  -7  -7    0.28    0.17
 -19  -7  -7   -0.10    0.16
 -21  -7  -7   -0.17    0.19
 -21  -7  -7   -0.13    0.13
 -23  -7  -7    0.00    0.20
 -23  -7  -7   -0.08    0.18
 -25  -7  -7    0.15    0.17
 -25  -7  -7    0.11    0.26
 -27  -7  -7   -0.24    0.18
 -27  -7  -7   -0.13    0.26
 -29  -7  -7   -0.04    0.26
 -31  -7  -7   -0.27    0.33
 -31   9   7   -0.06    0.34
 -29   9   7   -0.18    0.26
 -27   9   7   -0.14    0.24
 -25   9   7    0.05    0.28
 -23   9   7    0.31    0.25
 -21   9   7   -0.06    0.22
 -19   9   7    0.93    0.29
 -17   9   7    0.00    0.14
 -15   9   7    0.72    0.23
 -13   9   7    0.12    0.10
 -13   9   7    0.10    0.13
 -11   9   7    0.77    0.20
 -11   9   7    1.06    0.14
  -9   9   7   -0.07    0.07
  -9   9   7   -0.04    0.09
  -7   9   7    0.03    0.10
  -7   9   7    0.10    0.08
  -5   9   7    1.77    0.17
  -5   9   7    1.57    0.22
  -3   9   7    0.10    0.09
  -3   9   7    0.13    0.08
  -1   9   7   10.22    0.39
   1   9   7   10.03    0.40
   3   9   7    0.04    0.08
  -5  -9  -7    1.54    0.19
  -7  -9  -7   -0.01    0.09
  -9  -9  -7    0.05    0.10
 -11  -9  -7    1.26    0.21
 -11  -9  -7    1.13    0.21
 -13  -9  -7    0.27    0.16
 -13  -9  -7    0.29    0.14
 -15  -9  -7    0.87    0.23
 -15  -9  -7    0.49    0.17
 -17  -9  -7   -0.12    0.15
 -17  -9  -7   -0.06    0.12
 -19  -9  -7    0.40    0.18
 -19  -9  -7    0.30    0.22
 -21  -9  -7   -0.22    0.17
 -21  -9  -7   -0.07    0.15
 -23  -9  -7   -0.10    0.16
 -23  -9  -7    0.19    0.27
 -25  -9  -7   -0.07    0.24
 -25  -9  -7    0.05    0.18
 -27  -9  -7    0.13    0.25
 -27  -9  -7    0.09    0.21
 -29  -9  -7   -0.18    0.22
 -29  -9  -7    0.10    0.27
 -31  -9  -7    0.11    0.36
 -31  11   7    0.09    0.31
 -29  11   7   -0.16    0.30
 -27  11   7   -0.21    0.26
 -25  11   7   -0.24    0.23
 -23  11   7   -0.19    0.19
 -21  11   7    1.67    0.38
 -19  11   7    0.00    0.18
 -17  11   7    0.27    0.22
 -15  11   7   -0.15    0.14
 -13  11   7    0.20    0.16
 -11  11   7    0.05    0.09
 -11  11   7    0.19    0.14
   9 -11  -7    1.06    0.14
  -9  11   7    1.30    0.16
  -9  11   7    0.66    0.19
   7 -11  -7    0.06    0.08
  -7  11   7   -0.08    0.07
  -7  11   7    0.09    0.12
  -5  11   7    1.68    0.17
  -5  11   7    1.01    0.20
  -3  11   7    0.08    0.11
  -3  11   7    0.03    0.08
  -1  11   7    4.25    0.27
   1  11   7    3.87    0.27
  -3 -11  -7    0.14    0.11
   3  11   7    0.09    0.09
  -5 -11  -7    1.64    0.21
  -7 -11  -7   -0.05    0.10
  -9 -11  -7    1.30    0.22
 -11 -11  -7   -0.20    0.09
 -13 -11  -7    0.17    0.15
 -13 -11  -7    0.37    0.16
 -15 -11  -7    0.10    0.13
 -15 -11  -7    0.04    0.15
 -17 -11  -7    0.37    0.17
 -17 -11  -7   -0.01    0.18
 -19 -11  -7   -0.06    0.14
 -19 -11  -7    0.16    0.21
 -21 -11  -7    1.17    0.29
 -21 -11  -7    1.98    0.38
 -23 -11  -7   -0.31    0.13
 -23 -11  -7   -0.09    0.24
 -25 -11  -7    0.04    0.28
 -25 -11  -7    0.09    0.21
 -27 -11  -7   -0.13    0.30
 -27 -11  -7    0.38    0.25
 -29 -11  -7    0.28    0.26
 -29 -11  -7   -0.11    0.34
 -31 -11  -7    0.17    0.37
 -31 -11  -7    0.00    0.29
 -29  13   7    0.06    0.36
 -27  13   7   -0.07    0.26
 -25  13   7   -0.17    0.25
 -23  13   7   -0.25    0.23
 -21  13   7    0.82    0.31
 -19  13   7    0.20    0.24
 -17  13   7    1.49    0.33
 -15  13   7    0.02    0.16
 -13  13   7    0.22    0.17
 -11  13   7    0.09    0.15
  -9  13   7    0.23    0.11
  -9  13   7    0.31    0.17
  -7  13   7    0.01    0.09
  -7  13   7    0.00    0.12
  -5  13   7    0.38    0.12
  -5  13   7    0.51    0.17
  -3  13   7    0.76    0.19
  -3  13   7    0.68    0.14
  -1  13   7    1.16    0.17
   1  13   7    0.95    0.17
  -3 -13  -7    0.93    0.18
  -5 -13  -7    0.52    0.15
  -7 -13  -7    0.15    0.11
  -9 -13  -7    0.20    0.13
 -11 -13  -7    0.20    0.13
 -13 -13  -7   -0.03    0.12
 -15 -13  -7   -0.04    0.12
 -17 -13  -7    1.71    0.32
 -17 -13  -7    1.30    0.29
 -19 -13  -7    0.09    0.17
 -19 -13  -7    0.27    0.24
 -21 -13  -7    0.72    0.30
 -21 -13  -7    0.77    0.25
 -23 -13  -7    0.45    0.24
 -23 -13  -7    0.20    0.25
 -25 -13  -7    0.30    0.23
 -25 -13  -7   -0.11    0.24
 -27 -13  -7    0.10    0.23
 -27 -13  -7    0.32    0.30
 -29 -13  -7   -0.35    0.28
 -29 -13  -7   -0.05    0.27
 -29  15   7    0.40    0.36
 -27  15   7    0.29    0.33
 -25  15   7    0.15    0.34
 -23  15   7   -0.35    0.23
 -21  15   7   -0.05    0.23
 -19  15   7   -0.03    0.17
 -17  15   7    0.01    0.16
 -15  15   7    0.20    0.19
 -13  15   7    0.06    0.16
 -11  15   7   -0.11    0.14
  -9  15   7    0.22    0.15
  -7  15   7   -0.13    0.12
  -7  15   7    0.14    0.10
  -5  15   7    1.87    0.20
  -5  15   7    1.69    0.27
  -3  15   7    0.27    0.15
  -3  15   7    0.26    0.12
  -1  15   7    0.00    0.11
  -1  15   7    0.11    0.14
   1  15   7    0.24    0.13
  -3 -15  -7    0.20    0.14
  -5 -15  -7    2.33    0.28
  -7 -15  -7   -0.01    0.13
  -9 -15  -7    0.55    0.18
 -11 -15  -7   -0.06    0.13
 -13 -15  -7   -0.03    0.14
 -15 -15  -7   -0.04    0.15
 -17 -15  -7    0.01    0.14
 -19 -15  -7    0.05    0.17
 -21 -15  -7    0.29    0.20
 -23 -15  -7   -0.20    0.15
 -23 -15  -7    0.10    0.26
 -25 -15  -7    0.04    0.31
 -25 -15  -7    0.34    0.25
 -27 -15  -7    0.33    0.32
 -27 -15  -7    0.02    0.22
 -27  17   7   -0.02    0.34
 -25  17   7    0.41    0.35
 -23  17   7   -0.06    0.23
 -21  17   7    0.20    0.22
 -19  17   7    0.08    0.22
 -17  17   7    0.25    0.19
 -15  17   7    0.03    0.16
 -13  17   7    1.36    0.31
 -11  17   7    0.01    0.15
  -9  17   7   -0.09    0.14
  -7  17   7    0.00    0.14
  -5  17   7    0.10    0.11
  -5  17   7    0.03    0.15
  -3  17   7    1.50    0.26
  -3  17   7    1.26    0.20
  -1  17   7    0.23    0.12
  -1  17   7    0.10    0.15
   1  17   7    0.10    0.12
  -3 -17  -7    1.32    0.23
  -5 -17  -7    0.07    0.13
  -7 -17  -7   -0.16    0.12
  -9 -17  -7    0.14    0.15
 -11 -17  -7    0.11    0.15
 -13 -17  -7    1.35    0.30
 -15 -17  -7    0.11    0.18
 -17 -17  -7   -0.28    0.13
 -19 -17  -7    0.50    0.23
 -21 -17  -7    0.03    0.20
 -23 -17  -7    0.05    0.21
 -25 -17  -7    0.02    0.20
 -27  19   7    0.36    0.34
 -25  19   7    0.00    0.27
 -23  19   7    0.07    0.26
 -21  19   7    0.64    0.34
 -19  19   7   -0.26    0.19
 -17  19   7    0.62    0.27
 -15  19   7    0.03    0.18
 -13  19   7    0.11    0.22
 -11  19   7   -0.07    0.16
  -9  19   7    0.37    0.22
  -7  19   7   -0.01    0.16
  -5  19   7    0.08    0.16
  -3  19   7    0.49    0.20
  -3  19   7    0.45    0.17
  -1  19   7    1.16    0.22
  -1  19   7    0.91    0.24
   1  19   7    0.96    0.21
  -3 -19  -7    0.65    0.21
  -5 -19  -7    0.07    0.15
  -7 -19  -7   -0.02    0.14
  -9 -19  -7    0.37    0.18
 -11 -19  -7    0.07    0.18
 -13 -19  -7    0.34    0.23
 -15 -19  -7    0.07    0.17
 -17 -19  -7    1.31    0.33
 -19 -19  -7   -0.09    0.17
 -21 -19  -7    0.42    0.25
 -23 -19  -7   -0.15    0.21
 -25  21   7    0.03    0.29
 -23  21   7   -0.15    0.25
 -21  21   7    0.09    0.26
 -19  21   7    0.47    0.30
 -17  21   7    0.07    0.20
 -15  21   7    0.32    0.25
 -13  21   7    1.38    0.35
 -11  21   7    2.54    0.40
  -9  21   7   -0.09    0.17
  -7  21   7    0.18    0.18
  -5  21   7    0.13    0.19
  -3  21   7    0.02    0.16
  -1  21   7    0.23    0.18
  -1  21   7    0.22    0.18
   1  21   7    0.48    0.21
   1  21   7    0.22    0.15
  -3 -21  -7    0.08    0.15
  -5 -21  -7    0.17    0.17
  -7 -21  -7    0.11    0.17
  -9 -21  -7   -0.16    0.14
 -11 -21  -7    1.61    0.33
 -13 -21  -7    0.78    0.29
 -15 -21  -7    0.28    0.25
 -17 -21  -7    0.03    0.20
 -19 -21  -7    0.26    0.24
 -21 -21  -7    0.44    0.30
 -23  23   7   -0.30    0.25
 -21  23   7   -0.25    0.29
 -19  23   7   -0.03    0.25
 -17  23   7    0.42    0.29
 -15  23   7   -0.18    0.21
 -13  23   7    0.00    0.20
 -11  23   7   -0.12    0.22
  -9  23   7   -0.01    0.20
  -7  23   7    0.10    0.18
  -5  23   7    0.32    0.21
  -3  23   7    0.06    0.17
  -1  23   7    0.36    0.22
   1  23   7    0.26    0.18
   1  23   7    0.35    0.21
  -3 -23  -7   -0.12    0.16
   3  23   7    0.02    0.13
   3  23   7   -0.09    0.19
  -5 -23  -7    0.74    0.25
  -7 -23  -7   -0.13    0.18
  -9 -23  -7    0.05    0.17
 -11 -23  -7    0.22    0.24
 -13 -23  -7    0.26    0.25
 -15 -23  -7   -0.42    0.20
 -17 -23  -7    0.33    0.26
 -19 -23  -7   -0.16    0.23
 -21  25   7   -0.20    0.28
 -19  25   7    0.29    0.32
 -17  25   7    0.05    0.26
 -15  25   7    0.14    0.24
 -13  25   7    0.03    0.22
 -11  25   7   -0.24    0.19
  -9  25   7    0.00    0.20
  -7  25   7   -0.14    0.17
  -5  25   7   -0.18    0.18
  -3  25   7   -0.06    0.19
  -1  25   7    0.17    0.22
   1  25   7    0.18    0.21
   3  25   7    0.13    0.17
   3  25   7   -0.08    0.16
   3  25   7    0.14    0.20
  -5 -25  -7   -0.10    0.19
   5  25   7   -0.09    0.19
  -7 -25  -7   -0.09    0.19
  -9 -25  -7   -0.35    0.18
 -11 -25  -7    0.06    0.19
 -13 -25  -7   -0.19    0.22
 -15 -25  -7   -0.12    0.23
 -17 -25  -7    0.24    0.28
 -19  27   7   -0.10    0.25
 -17  27   7   -0.24    0.26
 -15  27   7   -0.12    0.24
 -13  27   7   -0.24    0.23
 -11  27   7    0.03    0.25
  -9  27   7    0.14    0.25
  -7  27   7    0.14    0.22
  -5  27   7   -0.02    0.20
  -3  27   7    0.14    0.23
  -1  27   7   -0.01    0.19
   1  27   7    0.04    0.21
   1  27   7    0.07    0.23
  -7 -27  -7   -0.23    0.20
  -9 -27  -7    0.01    0.25
 -11 -27  -7    0.23    0.24
 -13 -27  -7    0.47    0.28
 -15 -27  -7   -0.17    0.29
 -15  29   7   -0.06    0.27
 -13  29   7    0.02    0.28
 -11  29   7    0.64    0.32
  -9  29   7   -0.06    0.24
  -7  29   7    0.16    0.24
  -5  29   7    0.21    0.28
  -3  29   7    0.44    0.28
  -1  29   7    0.01    0.24
   1  29   7    0.11    0.23
  -9 -29  -7    0.03    0.27
 -11 -29  -7    0.26    0.26
 -13 -29  -7    0.10    0.30
 -11  31   7    0.14    0.30
  -9  31   7    0.12    0.32
  -3  31   7   -0.22    0.23
  -1  31   7    0.60    0.30
 -11 -31  -7    0.20    0.37
  -5  33   7    0.40    0.34
  -3  33   7    0.39    0.32
  -1  33   7    0.01    0.29
   6  32  -8    0.26    0.32
   4  32  -8   14.43    0.98
   2  32  -8    0.29    0.31
   0  32  -8   21.68    1.19
  -2  32  -8   -0.21    0.27
  -4  32  -8   14.23    0.98
  -6  32  -8    0.24    0.32
  -8  32  -8   15.23    1.02
 -12 -30   8    0.37    0.35
   6  30  -8    0.15    0.29
   4  30  -8   -0.25    0.23
   2  30  -8   -0.25    0.25
   0  30  -8   -0.04    0.26
  -2  30  -8   -0.01    0.23
  -4  30  -8    0.20    0.27
  -6  30  -8   -0.08    0.24
  -8  30  -8   -0.03    0.23
 -10  30  -8   -0.02    0.29
 -12  30  -8   -0.56    0.24
 -14  30  -8    0.09    0.35
 -14 -28   8    0.26    0.32
 -12 -28   8   24.97    1.18
 -10 -28   8   -0.10    0.23
   8  28  -8   23.51    1.12
   6  28  -8    0.55    0.31
   4  28  -8   27.56    1.22
   2  28  -8    0.27    0.27
   0  28  -8   22.10    1.11
  -2  28  -8    0.20    0.25
  -4  28  -8   29.36    1.29
  -6  28  -8   -0.27    0.25
  -8  28  -8   22.55    1.15
 -10  28  -8   -0.05    0.30
 -12  28  -8   24.00    1.23
 -14  28  -8    0.09    0.30
 -16 -26   8    0.00    0.28
 -14 -26   8    0.12    0.28
 -12 -26   8    0.12    0.24
  10  26  -8    1.10    0.33
 -10 -26   8    1.21    0.34
   8  26  -8   -0.19    0.20
  -8 -26   8    0.21    0.22
   6  26  -8    0.18    0.23
   4  26  -8   -0.18    0.20
   2  26  -8    0.41    0.27
   0  26  -8   -0.22    0.17
  -2  26  -8    0.28    0.22
  -4  26  -8   -0.05    0.18
  -6  26  -8    0.03    0.21
  -8  26  -8    0.24    0.26
 -10  26  -8    0.73    0.33
 -12  26  -8    0.42    0.33
 -14  26  -8    0.43    0.34
 -16  26  -8    0.61    0.39
 -18  26  -8    0.67    0.38
 -20  26  -8    0.41    0.39
 -18 -24   8    0.47    0.30
 -16 -24   8   30.36    1.30
 -14 -24   8    0.62    0.28
 -12 -24   8   27.75    1.18
  10  24  -8    0.26    0.24
 -10 -24   8    0.37    0.25
   8  24  -8   68.70    1.86
  -8 -24   8   69.30    1.85
   6  24  -8    0.33    0.26
  -6 -24   8    1.02    0.29
   4  24  -8   56.10    1.67
  -4 -24   8   58.98    1.57
   2  24  -8    1.39    0.34
   0  24  -8   78.75    2.07
  -2  24  -8    0.96    0.32
  -4  24  -8   55.65    1.70
  -6  24  -8    0.98    0.33
  -8  24  -8   70.93    2.00
 -10  24  -8    0.49    0.31
 -12  24  -8   26.57    1.21
 -14  24  -8    1.22    0.38
 -16  24  -8   32.97    1.39
 -18  24  -8    0.22    0.31
 -20  24  -8   20.68    1.15
 -22  24  -8    0.15    0.34
 -20 -22   8    0.22    0.27
 -18 -22   8    0.18    0.27
 -16 -22   8    0.05    0.24
 -14 -22   8    1.00    0.32
  12  22  -8   -0.10    0.19
 -12 -22   8    0.17    0.19
  10  22  -8    0.02    0.23
 -10 -22   8   -0.01    0.18
   8  22  -8    0.19    0.21
  -8 -22   8    0.12    0.17
   6  22  -8    1.78    0.35
  -6 -22   8    1.46    0.30
   4  22  -8   -0.01    0.18
  -4 -22   8    0.02    0.16
   2  22  -8    1.03    0.29
  -2 -22   8    0.37    0.20
   0  22  -8    0.11    0.19
  -2  22  -8    1.08    0.29
  -4  22  -8    0.18    0.19
  -6  22  -8    1.99    0.36
  -8  22  -8    0.44    0.27
 -10  22  -8   -0.17    0.21
 -12  22  -8    0.10    0.23
 -14  22  -8    1.22    0.36
 -16  22  -8   -0.07    0.24
 -18  22  -8    0.36    0.30
 -18  22  -8    0.43    0.31
 -20  22  -8    0.31    0.32
 -20  22  -8   -0.12    0.31
 -22  22  -8    2.80    0.52
 -22  22  -8    2.34    0.49
 -24  22  -8   -0.06    0.32
 -22 -20   8   -0.05    0.21
 -20 -20   8   37.36    1.47
 -18 -20   8    0.12    0.23
 -16 -20   8   44.29    1.52
 -14 -20   8    0.01    0.19
  12  20  -8   52.81    1.49
 -12 -20   8   57.52    1.63
  10  20  -8    0.41    0.23
 -10 -20   8    0.21    0.20
   8  20  -8   86.15    2.00
  -8 -20   8   87.80    2.01
   6  20  -8    0.29    0.19
  -6 -20   8    0.55    0.22
   4  20  -8   88.00    2.02
  -4 -20   8   86.84    1.88
   2  20  -8    0.59    0.25
  -2 -20   8    0.73    0.21
   0  20  -8   57.25    1.58
   0 -20   8   59.18    1.37
  -2  20  -8    0.78    0.24
  -4  20  -8   91.52    2.14
  -6  20  -8    0.36    0.23
  -8  20  -8   88.90    2.16
 -10  20  -8   -0.12    0.22
 -12  20  -8   52.52    1.60
 -12  20  -8   53.83    1.50
 -14  20  -8   -0.32    0.22
 -14  20  -8    0.16    0.22
 -16  20  -8   46.97    1.56
 -16  20  -8   45.22    1.48
 -18  20  -8   -0.10    0.21
 -18  20  -8    0.08    0.25
 -20  20  -8   36.55    1.42
 -20  20  -8   40.06    1.48
 -22  20  -8    0.06    0.30
 -22  20  -8    0.41    0.30
 -24  20  -8   21.73    1.17
 -26  20  -8    0.26    0.32
 -24 -18   8    0.10    0.22
 -22 -18   8    0.33    0.22
 -20 -18   8    0.23    0.24
 -18 -18   8    0.26    0.26
 -16 -18   8    0.25    0.18
 -14 -18   8    0.71    0.26
  12  18  -8   -0.02    0.19
 -12 -18   8   -0.06    0.15
  10  18  -8    3.96    0.40
 -10 -18   8    3.37    0.38
   8  18  -8    0.17    0.18
  -8 -18   8    0.10    0.16
   6  18  -8   -0.03    0.17
  -6 -18   8    0.06    0.14
   4  18  -8    0.00    0.16
  -4 -18   8    0.02    0.13
   2  18  -8    0.06    0.16
  -2 -18   8    0.10    0.14
   0  18  -8   -0.04    0.16
   0 -18   8    0.04    0.11
  -2  18  -8   -0.08    0.12
   2 -18   8    0.10    0.11
  -4  18  -8    0.06    0.15
  -6  18  -8    0.27    0.20
  -8  18  -8    0.14    0.20
  -8  18  -8    0.01    0.17
 -10  18  -8    3.78    0.43
 -10  18  -8    2.74    0.36
 -12  18  -8    0.05    0.21
 -12  18  -8    0.04    0.18
 -14  18  -8    0.58    0.26
 -14  18  -8    0.83    0.28
 -16  18  -8   -0.08    0.19
 -16  18  -8    0.11    0.23
 -18  18  -8    1.14    0.35
 -18  18  -8    1.18    0.34
 -20  18  -8    0.16    0.28
 -20  18  -8    0.33    0.28
 -22  18  -8    0.03    0.26
 -22  18  -8   -0.11    0.25
 -24  18  -8    0.14    0.29
 -26  18  -8    1.28    0.44
 -26 -16   8   -0.01    0.24
 -24 -16   8   31.64    1.33
 -22 -16   8    0.25    0.21
 -20 -16   8   43.22    1.48
 -18 -16   8    0.11    0.18
 -16 -16   8   92.29    2.20
  14  16  -8    0.34    0.23
 -14 -16   8    0.72    0.24
  12  16  -8   65.78    1.57
 -12 -16   8   62.07    1.62
  10  16  -8    0.41    0.21
 -10 -16   8    0.26    0.17
   8  16  -8  133.77    2.52
  -8 -16   8  132.42    2.50
   6  16  -8    0.41    0.19
  -6 -16   8    0.47    0.17
   4  16  -8  117.21    2.30
  -4 -16   8  118.99    2.19
   2  16  -8    1.18    0.25
  -2 -16   8    1.16    0.21
   0  16  -8  174.39    3.13
   0 -16   8  179.28    2.82
  -2  16  -8    1.18    0.25
   2 -16   8    1.11    0.18
  -4  16  -8  114.54    2.34
  -4  16  -8  116.76    2.04
   4 -16   8  119.68    1.94
  -6  16  -8    0.08    0.16
  -6  16  -8    0.22    0.15
  -8  16  -8  132.90    2.65
  -8  16  -8  137.68    2.47
 -10  16  -8    0.17    0.17
 -10  16  -8   -0.02    0.20
 -12  16  -8   65.14    1.61
 -12  16  -8   64.24    1.67
 -14  16  -8    0.39    0.21
 -14  16  -8    0.74    0.26
 -16  16  -8   89.24    2.13
 -16  16  -8   95.33    2.18
 -18  16  -8   -0.14    0.22
 -18  16  -8    0.05    0.19
 -20  16  -8   47.52    1.57
 -20  16  -8   46.38    1.48
 -22  16  -8    0.11    0.27
 -24  16  -8   37.76    1.50
 -26  16  -8    0.37    0.31
 -28  16  -8   11.95    0.93
 -28 -14   8    0.25    0.26
 -26 -14   8   -0.38    0.21
 -24 -14   8    0.50    0.29
 -22 -14   8    0.83    0.28
 -20 -14   8    0.21    0.20
 -18 -14   8    1.08    0.27
 -16 -14   8    0.47    0.20
  14  14  -8    5.96    0.45
 -14 -14   8    6.53    0.51
  12  14  -8    0.62    0.21
 -12 -14   8    0.37    0.17
  10  14  -8    0.16    0.16
 -10 -14   8   -0.07    0.12
   8  14  -8   -0.10    0.12
  -8 -14   8    0.04    0.12
   6  14  -8    8.80    0.50
  -6 -14   8    8.60    0.47
   4  14  -8    0.12    0.13
  -4 -14   8    0.06    0.10
   2  14  -8    0.34    0.16
  -2 -14   8    0.02    0.10
   0  14  -8    0.02    0.13
   0 -14   8   -0.04    0.07
  -2  14  -8   -0.01    0.10
  -2  14  -8    0.13    0.14
   2 -14   8    0.10    0.09
  -4  14  -8    0.12    0.14
  -4  14  -8    0.23    0.12
   4 -14   8    0.10    0.08
  -6  14  -8    8.63    0.51
  -6  14  -8    8.12    0.42
   6 -14   8    8.14    0.33
  -8  14  -8   -0.06    0.12
  -8  14  -8    0.16    0.15
 -10  14  -8   -0.06    0.14
 -10  14  -8    0.06    0.16
 -12  14  -8    0.18    0.18
 -12  14  -8    0.05    0.17
 -14  14  -8    5.56    0.48
 -14  14  -8    6.10    0.48
 -16  14  -8    0.89    0.26
 -16  14  -8    0.54    0.25
 -18  14  -8    0.54    0.26
 -18  14  -8    0.33    0.22
 -20  14  -8    0.35    0.27
 -20  14  -8    0.14    0.25
 -22  14  -8    1.54    0.37
 -24  14  -8    0.62    0.32
 -26  14  -8    0.29    0.29
 -28  14  -8   -0.06    0.29
 -30  14  -8    0.60    0.37
 -28 -12   8   22.82    1.15
 -26 -12   8    0.09    0.23
 -24 -12   8   26.90    1.17
 -22 -12   8   -0.06    0.16
 -20 -12   8   58.86    1.68
 -18 -12   8   -0.05    0.12
 -16 -12   8   62.97    1.63
 -14 -12   8    0.28    0.16
  12  12  -8  121.78    2.32
 -12 -12   8  126.01    2.39
  10  12  -8    0.05    0.14
 -10 -12   8    0.03    0.11
   8  12  -8  152.56    2.67
  -8 -12   8  153.10    2.63
   6  12  -8    0.26    0.15
  -6 -12   8   -0.07    0.09
   4  12  -8  232.15    3.71
  -4 -12   8  236.13    3.53
   2  12  -8    0.26    0.14
  -2 -12   8    0.39    0.12
   0 -12   8  143.85    2.28
  -2  12  -8    0.26    0.14
  -2  12  -8    0.33    0.10
   2 -12   8    0.30    0.10
  -4  12  -8  235.32    3.75
  -4  12  -8  232.19    3.48
   4 -12   8  235.96    3.30
  -6  12  -8    0.15    0.11
  -6  12  -8    0.19    0.14
   6 -12   8    0.17    0.08
  -8  12  -8  151.80    2.73
  -8  12  -8  154.82    2.62
   8 -12   8  154.10    2.21
 -10  12  -8    0.00    0.13
 -10  12  -8    0.08    0.14
 -12  12  -8  126.60    2.42
 -12  12  -8  124.25    2.40
 -14  12  -8    0.12    0.18
 -14  12  -8    0.24    0.20
 -16  12  -8   64.96    1.60
 -16  12  -8   66.42    1.70
 -18  12  -8    0.27    0.21
 -18  12  -8   -0.09    0.17
 -20  12  -8   58.51    1.72
 -20  12  -8   57.61    1.55
 -22  12  -8    0.16    0.24
 -24  12  -8   27.45    1.22
 -26  12  -8    0.06    0.25
 -28  12  -8   25.12    1.29
 -30  12  -8   -0.02    0.28
 -30 -10   8    0.01    0.26
 -28 -10   8   -0.02    0.22
 -26 -10   8    1.80    0.39
 -24 -10   8    0.65    0.28
 -22 -10   8    0.06    0.17
 -20 -10   8    0.15    0.18
 -18 -10   8    3.75    0.40
 -16 -10   8    0.22    0.15
 -14 -10   8   -0.16    0.09
  12  10  -8   -0.08    0.14
 -12 -10   8    0.09    0.10
  10  10  -8    2.10    0.26
 -10 -10   8    1.93    0.25
   8  10  -8    0.81    0.18
  -8 -10   8    0.70    0.17
   6  10  -8    0.16    0.13
  -6 -10   8    0.19    0.12
   4  10  -8    0.20    0.13
  -4 -10   8    0.21    0.10
   2  10  -8   10.65    0.48
  -2 -10   8   10.97    0.44
   0  10  -8    0.03    0.10
   0 -10   8    0.00    0.07
  -2  10  -8   10.26    0.48
  -2  10  -8   10.55    0.34
   2 -10   8   10.47    0.39
  -4  10  -8    0.22    0.12
  -4  10  -8    0.06    0.09
   4 -10   8    0.09    0.07
  -6  10  -8    0.18    0.11
  -6  10  -8    0.04    0.11
   6 -10   8    0.28    0.09
  -8  10  -8    0.59    0.16
  -8  10  -8    0.54    0.17
   8 -10   8    0.62    0.10
 -10  10  -8    1.75    0.24
 -10  10  -8    1.60    0.24
 -10  10  -8    1.88    0.15
  10 -10   8    1.43    0.13
 -12  10  -8    0.12    0.14
 -12  10  -8   -0.16    0.14
 -14  10  -8    0.01    0.16
 -14  10  -8    0.05    0.14
 -16  10  -8    0.14    0.16
 -16  10  -8    0.26    0.21
 -18  10  -8    3.14    0.41
 -18  10  -8    4.09    0.39
 -20  10  -8    0.30    0.23
 -22  10  -8    0.12    0.24
 -24  10  -8    0.85    0.33
 -26  10  -8    1.14    0.36
 -28  10  -8   -0.08    0.28
 -30  10  -8    0.09    0.26
 -30  -8   8    0.22    0.26
 -28  -8   8   22.22    1.08
 -26  -8   8    0.14    0.21
 -24  -8   8   71.13    1.90
 -22  -8   8    0.41    0.21
 -20  -8   8   84.88    1.98
 -18  -8   8    0.12    0.15
 -16  -8   8  134.93    2.54
 -14  -8   8    0.06    0.11
 -12  -8   8  148.64    2.31
 -12  -8   8  147.69    2.57
  10   8  -8    0.87    0.19
 -10  -8   8    0.59    0.10
 -10  -8   8    0.88    0.18
   8   8  -8  211.29    3.38
  -8  -8   8  215.43    3.28
   6   8  -8    0.79    0.17
  -6  -8   8    0.75    0.15
   4   8  -8  228.19    3.51
  -4  -8   8  226.32    3.33
   2   8  -8    0.22    0.12
  -2  -8   8    0.09    0.08
   0   8  -8  272.84    4.09
   0  -8   8  276.87    3.83
  -2   8  -8    0.18    0.06
  -2   8  -8    0.16    0.11
   2  -8   8    0.14    0.07
  -4   8  -8  233.59    3.36
  -4   8  -8  224.60    3.51
   4  -8   8  229.63    3.19
  -6   8  -8    0.81    0.16
  -6   8  -8    0.67    0.14
   6  -8   8    0.72    0.11
  -8   8  -8  218.23    3.40
  -8   8  -8  220.02    3.39
   8  -8   8  211.54    2.99
 -10   8  -8    0.64    0.18
 -10   8  -8    0.66    0.17
  10  -8   8    0.71    0.11
 -12   8  -8  145.78    2.66
 -12   8  -8  149.48    2.54
  12  -8   8  147.53    2.17
 -14   8  -8    0.06    0.11
 -14   8  -8    0.10    0.14
 -16   8  -8  140.44    2.73
 -16   8  -8  135.45    2.46
 -18   8  -8   -0.17    0.14
 -18   8  -8    0.01    0.19
 -20   8  -8   96.16    2.29
 -22   8  -8    0.26    0.23
 -24   8  -8   70.70    2.04
 -26   8  -8   -0.33    0.22
 -28   8  -8   26.13    1.27
 -30   8  -8   -0.24    0.24
 -32   8  -8   16.76    1.10
 -28  -6   8    0.29    0.25
 -26  -6   8    0.28    0.25
 -24  -6   8    0.89    0.27
 -22  -6   8    2.40    0.35
 -20  -6   8    0.05    0.14
 -18  -6   8    0.19    0.16
 -18  -6   8    0.12    0.16
 -16  -6   8    0.30    0.16
 -16  -6   8    0.05    0.12
 -14  -6   8    7.52    0.44
 -14  -6   8    7.90    0.39
 -12  -6   8    0.08    0.11
 -12  -6   8    0.10    0.09
 -10  -6   8    0.20    0.09
 -10  -6   8    0.47    0.13
   8   6  -8    0.31    0.14
  -8  -6   8    0.60    0.09
  -8  -6   8    0.33    0.12
   6   6  -8    1.54    0.20
  -6  -6   8    1.37    0.18
   4   6  -8    0.09    0.09
  -4  -6   8    0.00    0.06
   2   6  -8    0.67    0.14
  -2  -6   8    0.55    0.11
   0   6  -8    0.14    0.08
   0  -6   8    0.05    0.07
  -2   6  -8    1.10    0.15
  -2   6  -8    0.61    0.09
   2  -6   8    0.63    0.11
  -4   6  -8    0.08    0.07
  -4   6  -8    0.09    0.09
   4  -6   8    0.07    0.07
  -6   6  -8    1.42    0.17
  -6   6  -8    1.75    0.19
   6  -6   8    1.69    0.15
  -8   6  -8    0.84    0.15
  -8   6  -8    0.71    0.15
  -8   6  -8    0.55    0.10
   8  -6   8    0.87    0.12
 -10   6  -8    0.16    0.13
 -10   6  -8    0.12    0.12
  10  -6   8    0.20    0.09
 -12   6  -8    0.09    0.11
 -12   6  -8    0.09    0.12
  12  -6   8    0.19    0.09
 -14   6  -8    8.82    0.43
 -14   6  -8    7.67    0.49
  14  -6   8    8.88    0.36
 -16   6  -8    0.20    0.18
 -16   6  -8    0.17    0.15
 -18   6  -8    0.32    0.21
 -20   6  -8   -0.10    0.15
 -22   6  -8    1.56    0.35
 -24   6  -8    0.91    0.32
 -26   6  -8    0.22    0.22
 -28   6  -8   -0.01    0.23
 -30   6  -8    0.00    0.33
 -32   6  -8    0.00    0.36
 -26  -4   8   -0.08    0.18
 -24  -4   8   58.88    1.61
 -24  -4   8   56.65    1.59
 -22  -4   8   -0.17    0.13
 -22  -4   8    0.01    0.18
 -20  -4   8   85.71    1.89
 -20  -4   8   85.66    1.87
 -18  -4   8   -0.02    0.10
 -18  -4   8    0.22    0.15
 -16  -4   8  117.60    2.21
 -16  -4   8  120.46    2.19
 -14  -4   8    0.13    0.10
 -14  -4   8   -0.02    0.09
 -12  -4   8  234.35    3.51
 -12  -4   8  230.68    3.53
 -10  -4   8    0.15    0.10
 -10  -4   8    0.22    0.09
  -8  -4   8  228.82    3.39
  -8  -4   8  231.06    3.29
  -6  -4   8    0.17    0.09
   4   4  -8  181.62    2.84
   2   4  -8    0.41    0.11
  -2  -4   8    0.18    0.08
   0   4  -8  199.52    3.04
   0  -4   8  203.85    2.89
  -2   4  -8    0.31    0.10
  -2   4  -8    0.42    0.08
   2  -4   8    0.40    0.10
  -4   4  -8  185.09    2.78
  -4   4  -8  188.46    2.82
   4  -4   8  184.21    2.68
  -6   4  -8    0.20    0.09
  -6   4  -8    0.05    0.08
   6  -4   8   -0.04    0.06
  -8   4  -8  226.82    3.49
  -8   4  -8  225.80    3.20
  -8   4  -8  231.74    3.36
   8  -4   8  222.98    3.18
 -10   4  -8    0.19    0.10
 -10   4  -8    0.07    0.09
  10  -4   8    0.03    0.07
 -12   4  -8  232.10    3.76
 -12   4  -8  237.36    3.47
  12  -4   8  228.75    3.29
 -14   4  -8    0.09    0.10
 -14   4  -8   -0.03    0.12
  14  -4   8    0.17    0.09
 -16   4  -8  113.40    2.33
  16  -4   8  114.65    1.90
 -18   4  -8    0.14    0.18
 -20   4  -8   90.08    2.14
 -22   4  -8    0.12    0.19
 -24   4  -8   56.17    1.74
 -26   4  -8   -0.19    0.23
 -28   4  -8   30.81    1.38
 -30   4  -8   -0.17    0.31
 -32   4  -8   16.49    1.12
 -26  -2   8    0.22    0.25
 -24  -2   8    1.69    0.30
 -24  -2   8    1.18    0.32
 -22  -2   8    0.85    0.27
 -22  -2   8    0.70    0.21
 -20  -2   8    0.47    0.22
 -20  -2   8    0.54    0.20
 -18  -2   8    0.04    0.12
 -18  -2   8    0.01    0.14
 -16  -2   8    1.78    0.25
 -16  -2   8    1.37    0.23
 -14  -2   8    0.14    0.12
 -14  -2   8    0.16    0.12
 -12  -2   8    0.34    0.13
 -12  -2   8    0.40    0.13
 -10  -2   8   10.00    0.43
 -10  -2   8    9.87    0.39
  -8  -2   8    0.03    0.06
  -8  -2   8    0.08    0.08
  -6  -2   8    0.66    0.12
  -6  -2   8    0.63    0.10
  -4  -2   8    0.20    0.09
  -4  -2   8    0.24    0.07
   2   2  -8    0.42    0.11
  -2  -2   8    0.59    0.11
   0   2  -8    0.11    0.09
   0  -2   8    0.00    0.06
  -2   2  -8    0.48    0.11
  -2   2  -8    0.87    0.11
   2  -2   8    0.69    0.12
  -4   2  -8    0.36    0.09
  -4   2  -8    0.38    0.10
   4  -2   8    0.43    0.10
  -6   2  -8    0.48    0.11
  -6   2  -8    0.46    0.10
  -6   2  -8    0.65    0.10
   6  -2   8    0.56    0.11
  -8   2  -8    0.07    0.09
  -8   2  -8    0.22    0.09
   8  -2   8    0.19    0.08
 -10   2  -8   10.70    0.38
 -10   2  -8   10.29    0.48
  10  -2   8   10.79    0.39
 -12   2  -8    0.29    0.11
 -12   2  -8    0.18    0.13
  12  -2   8    0.38    0.11
 -14   2  -8    0.02    0.12
 -14   2  -8    0.01    0.09
  14  -2   8    0.20    0.10
 -16   2  -8    1.09    0.25
  16  -2   8    1.10    0.18
 -18   2  -8    0.01    0.17
  18  -2   8   -0.07    0.11
 -20   2  -8    0.39    0.23
 -22   2  -8    0.97    0.30
 -24   2  -8    1.03    0.37
 -26   2  -8    0.13    0.27
 -28   2  -8   -0.01    0.29
 -30   2  -8    0.52    0.36
 -32   2  -8   -0.02    0.36
 -30   0   8    0.19    0.29
 -28   0   8   21.97    1.07
 -26   0   8   -0.09    0.25
 -24   0   8   78.04    1.99
 -22   0   8   -0.01    0.17
 -22   0   8    0.11    0.17
 -20   0   8   57.16    1.40
 -20   0   8   58.96    1.54
 -18   0   8   -0.01    0.11
 -18   0   8   -0.02    0.14
 -16   0   8  176.34    2.85
 -16   0   8  172.51    2.99
 -14   0   8   -0.05    0.10
 -14   0   8   -0.03    0.09
 -12   0   8  144.67    2.33
 -12   0   8  141.29    2.41
 -10   0   8    0.06    0.09
 -10   0   8   -0.07    0.06
  -8   0   8  279.66    4.04
  -8   0   8  276.07    3.91
  -6   0   8    0.05    0.07
  -6   0   8    0.02    0.07
  -4   0   8  200.01    2.95
  -2   0   8    0.12    0.08
   0   0   8  977.62   12.39
  -2   0  -8    0.18    0.08
   2   0   8    0.19    0.08
  -4   0  -8  198.95    2.88
  -4   0  -8  197.73    2.98
  -4   0  -8  197.93    2.87
   4   0   8  196.75    2.84
  -6   0  -8    0.02    0.06
  -6   0  -8   -0.04    0.05
  -6   0  -8    0.13    0.08
   6   0   8    0.03    0.06
  -8   0  -8  277.09    4.14
  -8   0  -8  282.06    3.85
   8   0   8  267.43    3.81
 -10   0  -8    0.02    0.07
 -10   0  -8    0.15    0.10
  10   0   8    0.02    0.06
 -12   0  -8  145.74    2.59
 -12   0  -8  145.64    2.15
  12   0   8  142.98    2.30
 -14   0  -8    0.04    0.13
  14   0   8    0.02    0.08
 -16   0  -8  171.06    3.11
  16   0   8  168.53    2.70
 -18   0  -8    0.03    0.11
 -18   0  -8   -0.05    0.15
  18   0   8   -0.06    0.09
 -20   0  -8   53.62    1.27
 -20   0  -8   54.35    1.57
 -22   0  -8   -0.22    0.18
 -24   0  -8   82.23    2.17
 -26   0  -8    0.28    0.27
 -28   0  -8   19.58    1.08
 -30   0  -8    0.17    0.32
 -32   0  -8   20.61    1.23
 -32   2   8    0.32    0.38
 -30   2   8   -0.08    0.30
 -28   2   8    0.49    0.32
 -26   2   8   -0.20    0.25
 -24   2   8    1.07    0.31
 -22   2   8    0.96    0.28
 -20   2   8    0.58    0.24
 -20   2   8    0.68    0.20
 -18   2   8    0.01    0.11
 -18   2   8   -0.05    0.15
 -16   2   8    1.14    0.20
 -16   2   8    1.34    0.25
 -14   2   8   -0.03    0.10
 -14   2   8   -0.02    0.12
 -12   2   8    0.42    0.13
 -12   2   8    0.23    0.14
 -10   2   8   10.87    0.47
 -10   2   8   11.99    0.45
  -8   2   8    0.06    0.08
  -8   2   8    0.15    0.08
  -6   2   8    0.40    0.11
  -6   2   8    0.34    0.10
  -4   2   8    0.55    0.12
  -4   2   8    0.37    0.10
  -2   2   8    0.60    0.12
   0   2   8    0.05    0.07
  -2  -2  -8    0.52    0.10
   2   2   8    0.59    0.11
  -4  -2  -8    0.34    0.10
  -4  -2  -8    0.43    0.10
   4   2   8    0.42    0.10
  -6  -2  -8    0.48    0.12
   6   2   8    0.33    0.09
  -8  -2  -8    0.09    0.09
   8   2   8    0.10    0.07
 -10  -2  -8    9.23    0.46
  10   2   8    9.37    0.40
 -12  -2  -8    0.32    0.15
 -12  -2  -8    0.40    0.13
  12   2   8    0.37    0.12
 -14  -2  -8    0.25    0.16
 -14  -2  -8    0.01    0.11
 -16  -2  -8    1.05    0.24
 -16  -2  -8    0.95    0.19
 -18  -2  -8    0.09    0.15
 -18  -2  -8   -0.04    0.12
 -20  -2  -8    0.92    0.21
 -20  -2  -8    0.43    0.22
 -22  -2  -8    0.92    0.23
 -22  -2  -8    0.54    0.26
 -24  -2  -8    0.65    0.32
 -26  -2  -8    0.35    0.28
 -28  -2  -8    0.06    0.28
 -30  -2  -8   -0.17    0.30
 -32  -2  -8    0.38    0.38
 -32   4   8   16.72    1.08
 -30   4   8   -0.01    0.28
 -28   4   8   28.88    1.29
 -26   4   8   -0.10    0.24
 -24   4   8   58.19    1.73
 -22   4   8    0.17    0.20
 -20   4   8   84.53    1.99
 -18   4   8    0.33    0.18
 -18   4   8    0.05    0.13
 -16   4   8  114.24    2.27
 -16   4   8  113.38    1.98
 -14   4   8    0.11    0.13
 -14   4   8    0.11    0.10
 -12   4   8  230.69    3.73
 -12   4   8  239.26    3.42
 -10   4   8    0.11    0.08
 -10   4   8    0.03    0.10
  -8   4   8  227.63    3.26
  -8   4   8  229.02    3.53
  -6   4   8    0.08    0.07
  -6   4   8    0.13    0.08
  -4   4   8  187.55    2.96
  -4   4   8  190.54    2.77
  -2   4   8    0.58    0.12
   0   4   8  199.32    2.88
  -2  -4  -8    0.35    0.10
   2   4   8    0.41    0.10
   4   4   8  180.54    2.67
  -6  -4  -8    0.08    0.09
   6   4   8    0.14    0.08
  -8  -4  -8  219.56    3.44
   8   4   8  215.68    3.20
 -10  -4  -8    0.05    0.09
 -10  -4  -8    0.06    0.09
  10   4   8    0.20    0.10
 -12  -4  -8  226.13    3.71
 -12  -4  -8  230.80    3.46
 -14  -4  -8   -0.04    0.12
 -14  -4  -8    0.11    0.11
 -16  -4  -8  118.08    2.14
 -16  -4  -8  113.14    2.35
 -18  -4  -8    0.07    0.18
 -18  -4  -8    0.18    0.13
 -20  -4  -8   84.90    1.83
 -20  -4  -8   85.34    2.06
 -22  -4  -8   -0.15    0.18
 -22  -4  -8   -0.08    0.13
 -24  -4  -8   56.43    1.50
 -24  -4  -8   57.90    1.75
 -26  -4  -8   -0.22    0.24
 -28  -4  -8   28.46    1.30
 -30  -4  -8   -0.11    0.29
 -32  -4  -8   15.25    1.06
 -32   6   8    0.80    0.42
 -30   6   8    0.43    0.34
 -28   6   8    0.15    0.29
 -26   6   8   -0.02    0.28
 -24   6   8    1.10    0.35
 -22   6   8    1.96    0.37
 -20   6   8    0.37    0.24
 -18   6   8    0.18    0.20
 -16   6   8    0.21    0.18
 -16   6   8    0.09    0.11
 -14   6   8    8.18    0.49
 -14   6   8    8.35    0.39
 -12   6   8    0.17    0.13
 -12   6   8    0.07    0.09
 -10   6   8    0.24    0.12
 -10   6   8    0.03    0.08
  -8   6   8    0.64    0.13
  -8   6   8    0.72    0.16
  -6   6   8    1.23    0.15
  -6   6   8    1.18    0.18
  -4   6   8    0.17    0.08
  -4   6   8    0.09    0.09
   2  -6  -8    0.55    0.12
  -2   6   8    0.94    0.13
   0  -6  -8    0.00    0.06
   0   6   8    0.02    0.06
   2   6   8    0.69    0.12
   4   6   8    0.00    0.06
   6   6   8    1.60    0.18
  -8  -6  -8    0.76    0.15
  -8  -6  -8    0.33    0.14
   8   6   8    0.67    0.14
 -10  -6  -8    0.32    0.12
 -10  -6  -8    0.14    0.13
 -12  -6  -8    0.07    0.10
 -12  -6  -8    0.06    0.12
 -14  -6  -8    7.88    0.46
 -14  -6  -8    9.00    0.51
 -16  -6  -8   -0.07    0.13
 -16  -6  -8    0.03    0.13
 -18  -6  -8    0.11    0.14
 -18  -6  -8    0.30    0.19
 -20  -6  -8    0.08    0.18
 -20  -6  -8    0.32    0.17
 -22  -6  -8    1.58    0.30
 -22  -6  -8    1.45    0.35
 -24  -6  -8    0.53    0.24
 -24  -6  -8    1.12    0.33
 -26  -6  -8    0.00    0.27
 -26  -6  -8   -0.01    0.19
 -28  -6  -8    0.46    0.33
 -30  -6  -8    0.37    0.40
 -32  -6  -8    0.06    0.34
 -32   8   8   14.60    1.03
 -30   8   8   -0.26    0.26
 -28   8   8   21.80    1.17
 -26   8   8   -0.23    0.25
 -24   8   8   68.26    1.98
 -22   8   8    0.01    0.20
 -20   8   8   91.28    2.19
 -18   8   8    0.33    0.20
 -16   8   8  134.88    2.66
 -14   8   8    0.14    0.10
 -14   8   8    0.13    0.15
 -12   8   8  152.23    2.33
 -12   8   8  150.81    2.76
 -10   8   8    0.60    0.18
 -10   8   8    0.59    0.13
  -8   8   8  214.82    3.10
  -8   8   8  215.67    3.50
  -6   8   8    0.87    0.17
  -6   8   8    0.43    0.12
   4  -8  -8  223.94    3.26
  -4   8   8  227.51    3.59
  -4   8   8  225.47    3.25
   2  -8  -8    0.07    0.08
  -2   8   8    0.06    0.08
   0   8   8  269.20    3.79
   2   8   8    0.10    0.08
  -6  -8  -8    0.71    0.15
   6   8   8    0.35    0.12
  -8  -8  -8  214.94    3.30
 -10  -8  -8    0.51    0.18
 -10  -8  -8    0.50    0.15
 -12  -8  -8  154.07    2.61
 -12  -8  -8  147.09    2.73
 -14  -8  -8   -0.01    0.11
 -14  -8  -8    0.11    0.14
 -16  -8  -8  128.26    2.57
 -16  -8  -8  129.65    2.42
 -18  -8  -8    0.00    0.12
 -18  -8  -8   -0.04    0.16
 -20  -8  -8   86.29    2.09
 -20  -8  -8   85.61    1.93
 -22  -8  -8    0.30    0.18
 -22  -8  -8    0.03    0.23
 -24  -8  -8   68.72    1.79
 -24  -8  -8   66.96    1.93
 -26  -8  -8    0.13    0.27
 -26  -8  -8   -0.22    0.18
 -28  -8  -8   23.35    1.17
 -28  -8  -8   21.96    1.03
 -30  -8  -8    0.39    0.37
 -32  -8  -8   14.40    1.04
 -30  10   8    0.56    0.40
 -28  10   8    0.22    0.30
 -26  10   8    1.00    0.38
 -24  10   8    0.35    0.29
 -22  10   8    0.00    0.22
 -20  10   8    0.16    0.23
 -18  10   8    3.86    0.45
 -16  10   8    0.05    0.16
 -14  10   8    0.31    0.19
 -12  10   8    0.11    0.14
 -12  10   8    0.15    0.10
 -10  10   8    1.96    0.20
 -10  10   8    2.05    0.27
   8 -10  -8    0.78    0.13
  -8  10   8    0.69    0.14
  -8  10   8    0.38    0.15
   6 -10  -8    0.02    0.07
  -6  10   8    0.28    0.11
  -6  10   8    0.10    0.12
   4 -10  -8    0.06    0.09
  -4  10   8    0.14    0.10
  -4  10   8    0.06    0.09
  -2  10   8   10.28    0.41
   0  10   8    0.00    0.07
   2  10   8   10.41    0.44
   4  10   8    0.07    0.09
  -6 -10  -8    0.24    0.12
  -8 -10  -8    0.34    0.13
 -10 -10  -8    1.66    0.25
 -12 -10  -8    0.21    0.16
 -12 -10  -8    0.00    0.11
 -14 -10  -8    0.04    0.17
 -14 -10  -8    0.44    0.16
 -16 -10  -8    0.07    0.12
 -16 -10  -8    0.06    0.18
 -18 -10  -8    2.82    0.39
 -18 -10  -8    3.51    0.38
 -20 -10  -8    0.21    0.17
 -20 -10  -8    0.27    0.22
 -22 -10  -8    0.09    0.24
 -22 -10  -8    0.05    0.18
 -24 -10  -8    0.49    0.23
 -24 -10  -8    0.99    0.34
 -26 -10  -8    0.70    0.35
 -26 -10  -8    1.23    0.32
 -28 -10  -8    0.55    0.36
 -28 -10  -8    0.35    0.27
 -30 -10  -8    0.00    0.34
 -30 -10  -8    0.34    0.29
 -30  12   8    0.32    0.38
 -28  12   8   24.64    1.30
 -26  12   8   -0.17    0.28
 -24  12   8   26.57    1.23
 -22  12   8    0.06    0.24
 -20  12   8   54.60    1.68
 -18  12   8    0.09    0.20
 -16  12   8   62.53    1.69
 -14  12   8   -0.07    0.17
 -12  12   8  118.16    2.42
  10 -12  -8    0.04    0.10
 -10  12   8   -0.05    0.12
 -10  12   8    0.12    0.10
   8 -12  -8  153.84    2.35
  -8  12   8  149.27    2.35
  -6  12   8    0.10    0.10
  -6  12   8   -0.11    0.12
  -4  12   8  236.08    3.86
  -4  12   8  233.97    3.42
  -2  12   8    0.26    0.11
   0  12   8  143.11    2.33
   2  12   8    0.47    0.15
   4  12   8  227.23    3.46
  -6 -12  -8    0.04    0.11
  -8 -12  -8  149.97    2.60
 -10 -12  -8    0.22    0.14
 -12 -12  -8  122.64    2.34
 -14 -12  -8    0.21    0.15
 -16 -12  -8   63.69    1.67
 -16 -12  -8   60.00    1.56
 -18 -12  -8   -0.03    0.19
 -18 -12  -8    0.21    0.15
 -20 -12  -8   54.24    1.62
 -20 -12  -8   52.36    1.51
 -22 -12  -8    0.07    0.15
 -22 -12  -8   -0.18    0.22
 -24 -12  -8   25.61    1.09
 -24 -12  -8   27.03    1.20
 -26 -12  -8    0.05    0.24
 -26 -12  -8   -0.06    0.29
 -28 -12  -8   25.57    1.16
 -28 -12  -8   21.15    1.16
 -30 -12  -8    0.29    0.26
 -30 -12  -8   -0.34    0.33
 -30  14   8    0.14    0.36
 -28  14   8    0.20    0.37
 -26  14   8    0.03    0.28
 -24  14   8    0.21    0.30
 -22  14   8    1.05    0.37
 -20  14   8    0.10    0.23
 -18  14   8    1.15    0.31
 -16  14   8    0.38    0.23
 -14  14   8    7.72    0.57
 -12  14   8    0.17    0.19
 -10  14   8    0.13    0.16
  -8  14   8    0.24    0.16
  -8  14   8   -0.08    0.10
  -6  14   8    7.98    0.51
  -6  14   8    8.19    0.39
  -4  14   8    0.00    0.09
  -4  14   8   -0.01    0.11
  -2  14   8    0.20    0.11
  -2  14   8    0.09    0.15
   0  14   8    0.00    0.09
   2  14   8    0.03    0.10
  -4 -14  -8    0.08    0.11
   4  14   8    0.12    0.11
  -6 -14  -8    8.54    0.48
  -8 -14  -8    0.00    0.12
 -10 -14  -8   -0.07    0.13
 -12 -14  -8    0.26    0.17
 -14 -14  -8    6.06    0.47
 -16 -14  -8    0.40    0.17
 -18 -14  -8    0.43    0.20
 -20 -14  -8    0.39    0.26
 -20 -14  -8    0.12    0.16
 -22 -14  -8    1.12    0.36
 -22 -14  -8    1.64    0.35
 -24 -14  -8    0.30    0.23
 -24 -14  -8    0.36    0.30
 -26 -14  -8    0.14    0.25
 -26 -14  -8   -0.29    0.24
 -28 -14  -8   -0.18    0.25
 -28 -14  -8    0.26    0.34
 -30 -14  -8    0.02    0.39
 -28  16   8   12.84    0.99
 -26  16   8    0.43    0.35
 -24  16   8   32.70    1.45
 -22  16   8   -0.13    0.24
 -20  16   8   43.72    1.56
 -18  16   8    0.10    0.21
 -16  16   8   88.32    2.21
 -14  16   8    0.78    0.27
 -12  16   8   64.76    1.73
 -10  16   8    0.36    0.23
  -8  16   8  130.40    2.62
  -6  16   8    0.16    0.16
  -6  16   8    0.23    0.12
  -4  16   8  116.86    2.01
  -4  16   8  115.98    2.38
  -2  16   8    1.11    0.19
  -2  16   8    1.06    0.25
   0  16   8  174.78    2.84
   2  16   8    1.41    0.23
  -4 -16  -8  114.71    2.14
   4  16   8  114.25    2.14
  -6 -16  -8    0.03    0.12
  -8 -16  -8  130.76    2.47
 -10 -16  -8    0.35    0.20
 -12 -16  -8   62.50    1.60
 -14 -16  -8    0.33    0.22
 -16 -16  -8   94.51    2.17
 -18 -16  -8    0.25    0.19
 -20 -16  -8   45.85    1.49
 -22 -16  -8    0.16    0.18
 -24 -16  -8   29.61    1.24
 -26 -16  -8    0.27    0.27
 -26  18   8    0.66    0.41
 -24  18   8    0.14    0.30
 -22  18   8    0.05    0.26
 -20  18   8   -0.24    0.18
 -18  18   8    0.63    0.26
 -16  18   8   -0.02    0.18
 -14  18   8    0.56    0.24
 -12  18   8    0.03    0.16
 -10  18   8    3.35    0.41
  -8  18   8    0.15    0.16
  -6  18   8    0.43    0.21
  -4  18   8    0.23    0.16
  -4  18   8   -0.11    0.12
  -2  18   8   -0.03    0.12
  -2  18   8   -0.07    0.15
   0  18   8    0.03    0.16
   0  18   8    0.15    0.13
   2  18   8   -0.10    0.11
  -4 -18  -8    0.17    0.13
   4  18   8    0.10    0.12
  -6 -18  -8    0.00    0.15
  -8 -18  -8    0.05    0.14
 -10 -18  -8    3.41    0.40
 -12 -18  -8   -0.01    0.14
 -14 -18  -8    0.13    0.21
 -16 -18  -8    0.16    0.21
 -18 -18  -8    0.79    0.26
 -20 -18  -8   -0.05    0.16
 -22 -18  -8   -0.11    0.19
 -24 -18  -8    0.59    0.28
 -26  20   8    0.12    0.32
 -24  20   8   19.47    1.16
 -22  20   8    0.00    0.25
 -20  20   8   33.73    1.44
 -18  20   8   -0.03    0.18
 -16  20   8   44.47    1.56
 -14  20   8    0.27    0.24
 -12  20   8   52.92    1.63
 -10  20   8   -0.11    0.18
  -8  20   8   87.22    2.12
  -6  20   8    0.15    0.21
  -4  20   8   89.62    2.10
  -2  20   8    0.67    0.25
  -2  20   8    1.03    0.21
   0  20   8   59.27    1.61
   0  20   8   60.24    1.42
   2  20   8    0.65    0.20
  -4 -20  -8   88.84    1.89
   4  20   8   86.24    1.87
  -6 -20  -8    0.41    0.20
  -8 -20  -8   89.99    2.02
 -10 -20  -8    0.21    0.20
 -12 -20  -8   56.34    1.61
 -14 -20  -8    0.09    0.22
 -16 -20  -8   45.08    1.49
 -18 -20  -8    0.33    0.26
 -20 -20  -8   36.70    1.41
 -22 -20  -8    0.19    0.22
 -24  22   8    0.05    0.31
 -22  22   8    3.04    0.55
 -20  22   8    0.22    0.26
 -18  22   8    0.06    0.25
 -16  22   8    0.00    0.22
 -14  22   8    1.71    0.39
 -12  22   8    0.47    0.26
 -10  22   8    0.19    0.20
  -8  22   8   -0.07    0.16
  -6  22   8    1.75    0.34
  -4  22   8    0.11    0.19
  -2  22   8    1.04    0.29
   0  22   8   -0.10    0.14
   0  22   8    0.13    0.17
   2  22   8    0.77    0.23
   2  22   8    0.56    0.25
   4  22   8    0.01    0.13
  -6 -22  -8    2.71    0.38
  -8 -22  -8   -0.06    0.17
 -10 -22  -8    0.08    0.20
 -12 -22  -8    0.04    0.19
 -14 -22  -8    1.60    0.37
 -16 -22  -8   -0.16    0.22
 -18 -22  -8    0.37    0.25
 -20 -22  -8    0.14    0.27
 -22  24   8    0.31    0.35
 -20  24   8   20.89    1.18
 -18  24   8    0.23    0.25
 -16  24   8   34.71    1.44
 -14  24   8    0.11    0.24
 -12  24   8   29.55    1.27
 -10  24   8    0.46    0.29
  -8  24   8   69.40    1.95
  -6  24   8    0.60    0.30
  -4  24   8   58.79    1.70
  -2  24   8    1.34    0.34
   0  24   8   79.99    2.04
   2  24   8    1.14    0.27
   2  24   8    1.42    0.34
   4  24   8   57.66    1.53
  -6 -24  -8    0.92    0.29
  -8 -24  -8   71.31    1.86
 -10 -24  -8    0.85    0.31
 -12 -24  -8   27.60    1.15
 -14 -24  -8    0.07    0.26
 -16 -24  -8   36.55    1.43
 -18 -24  -8    0.14    0.28
 -20  26   8    0.25    0.32
 -18  26   8    0.90    0.38
 -16  26   8    0.10    0.25
 -14  26   8    0.03    0.22
 -12  26   8    0.20    0.24
 -10  26   8    0.78    0.33
  -8  26   8    0.24    0.23
  -6  26   8    0.37    0.24
  -4  26   8    0.16    0.22
  -2  26   8    0.09    0.18
   0  26   8    0.13    0.21
   2  26   8    0.17    0.21
   4  26   8    0.08    0.17
   4  26   8    0.10    0.22
  -6 -26  -8    0.11    0.22
   6  26   8    0.06    0.18
  -8 -26  -8   -0.17    0.21
 -10 -26  -8    1.56    0.37
 -12 -26  -8    0.08    0.24
 -14 -26  -8    0.10    0.23
 -16 -26  -8   -0.08    0.30
 -16  28   8   14.16    0.98
 -14  28   8    0.15    0.27
 -12  28   8   24.87    1.24
 -10  28   8    0.32    0.31
  -8  28   8   24.99    1.18
  -6  28   8    0.04    0.24
  -4  28   8   31.20    1.27
  -2  28   8    0.15    0.25
   0  28   8   21.83    1.04
  -8 -28  -8   21.61    1.03
 -10 -28  -8    0.15    0.29
 -12 -28  -8   23.46    1.14
 -14 -28  -8   -0.27    0.30
 -14  30   8    0.24    0.32
 -12  30   8   -0.19    0.28
 -10  30   8    0.19    0.28
  -8  30   8    0.20    0.28
  -6  30   8    0.00    0.27
  -4  30   8   -0.15    0.22
   0  30   8   -0.06    0.25
 -10 -30  -8   -0.04    0.29
  -4  32   8   16.38    1.01
  -2  32   8    0.20    0.29
   7  31  -9    0.16    0.30
   5  31  -9    0.18    0.34
   3  31  -9   -0.06    0.26
   1  31  -9    0.15    0.29
  -1  31  -9   -0.17    0.26
  -3  31  -9    0.23    0.30
  -5  31  -9    0.38    0.29
  -7  31  -9   -0.09    0.25
  -9  31  -9   -0.09    0.27
 -11  31  -9   -0.02    0.33
 -13 -29   9   -0.22    0.33
 -11 -29   9    0.04    0.27
   7  29  -9   -0.15    0.25
   5  29  -9    0.09    0.27
   3  29  -9   -0.01    0.27
   1  29  -9    0.36    0.30
  -1  29  -9    0.14    0.26
  -3  29  -9    0.42    0.30
  -5  29  -9    0.17    0.24
  -7  29  -9    0.37    0.27
  -9  29  -9   -0.11    0.26
 -11  29  -9    0.04    0.28
 -13  29  -9    0.05    0.32
 -15  29  -9    0.29    0.35
 -15 -27   9    0.33    0.31
 -13 -27   9   -0.26    0.23
 -11 -27   9   -0.29    0.22
   9  27  -9    0.22    0.30
  -9 -27   9   -0.15    0.23
   7  27  -9   -0.09    0.24
   5  27  -9    0.21    0.29
   3  27  -9    0.07    0.26
   1  27  -9    0.17    0.24
  -1  27  -9    0.32    0.26
  -3  27  -9   -0.04    0.26
  -5  27  -9    0.00    0.23
  -7  27  -9   -0.14    0.21
  -9  27  -9    0.21    0.24
 -11  27  -9    0.05    0.26
 -13  27  -9    0.01    0.30
 -15  27  -9    0.35    0.31
 -17  27  -9    0.17    0.35
 -17 -25   9    0.23    0.33
 -15 -25   9    0.23    0.28
 -13 -25   9   -0.14    0.22
  11  25  -9    0.08    0.25
 -11 -25   9    0.09    0.19
   9  25  -9   -0.01    0.21
  -9 -25   9    0.05    0.23
   7  25  -9   -0.19    0.21
  -7 -25   9    0.16    0.21
   5  25  -9    0.13    0.24
   3  25  -9    0.23    0.23
   1  25  -9   -0.01    0.20
  -1  25  -9   -0.12    0.16
  -3  25  -9    0.00    0.20
  -5  25  -9    0.46    0.24
  -7  25  -9    0.02    0.19
  -9  25  -9   -0.08    0.23
 -11  25  -9   -0.02    0.21
 -13  25  -9    0.00    0.28
 -15  25  -9   -0.08    0.27
 -17  25  -9    0.57    0.34
 -19  25  -9   -0.09    0.26
 -21  25  -9    0.24    0.35
 -19 -23   9    0.14    0.29
 -17 -23   9    0.32    0.28
 -15 -23   9    0.21    0.26
 -13 -23   9    0.19    0.24
  11  23  -9    0.31    0.26
 -11 -23   9   -0.01    0.20
   9  23  -9   -0.34    0.20
  -9 -23   9    0.03    0.18
   7  23  -9    0.15    0.20
  -7 -23   9   -0.06    0.17
   5  23  -9    0.03    0.23
  -5 -23   9   -0.03    0.17
   3  23  -9   -0.02    0.21
  -3 -23   9   -0.11    0.17
   1  23  -9   -0.16    0.22
  -1  23  -9    0.22    0.22
  -3  23  -9   -0.24    0.15
  -5  23  -9   -0.17    0.16
  -7  23  -9    0.06    0.22
  -9  23  -9   -0.10    0.25
 -11  23  -9   -0.03    0.22
 -13  23  -9    0.28    0.28
 -15  23  -9   -0.06    0.23
 -17  23  -9    0.18    0.29
 -19  23  -9    0.21    0.30
 -21  23  -9    0.10    0.35
 -23  23  -9   -0.38    0.31
 -23  23  -9   -0.25    0.30
 -21 -21   9   -0.02    0.28
 -19 -21   9    0.22    0.23
 -17 -21   9   -0.02    0.22
 -15 -21   9    0.41    0.24
 -13 -21   9    0.02    0.19
  11  21  -9    1.39    0.32
 -11 -21   9    0.64    0.25
   9  21  -9   -0.19    0.17
  -9 -21   9   -0.17    0.12
   7  21  -9   -0.36    0.16
  -7 -21   9    0.19    0.18
   5  21  -9   -0.20    0.15
  -5 -21   9    0.27    0.16
   3  21  -9    0.32    0.19
  -3 -21   9    0.27    0.18
   1  21  -9    0.07    0.18
  -1 -21   9   -0.03    0.15
  -1  21  -9   -0.06    0.17
  -3  21  -9    0.37    0.22
  -5  21  -9    0.05    0.16
  -7  21  -9   -0.02    0.19
  -9  21  -9   -0.18    0.18
 -11  21  -9    1.09    0.33
 -13  21  -9    0.05    0.23
 -15  21  -9    0.76    0.33
 -17  21  -9    0.08    0.24
 -17  21  -9    0.05    0.25
 -19  21  -9    0.51    0.34
 -19  21  -9    0.64    0.33
 -21  21  -9    0.06    0.30
 -21  21  -9   -0.43    0.24
 -23  21  -9    0.27    0.36
 -23  21  -9    0.46    0.31
 -25  21  -9    0.34    0.35
 -23 -19   9    0.03    0.24
 -21 -19   9    0.38    0.25
 -19 -19   9   -0.29    0.20
 -17 -19   9    0.48    0.24
 -15 -19   9    0.24    0.23
  13  19  -9   -0.23    0.21
 -13 -19   9   -0.15    0.17
  11  19  -9    0.72    0.26
 -11 -19   9    0.41    0.23
   9  19  -9   -0.14    0.19
  -9 -19   9    0.04    0.15
   7  19  -9    0.56    0.23
  -7 -19   9    0.74    0.22
   5  19  -9    0.03    0.18
  -5 -19   9    0.42    0.20
   3  19  -9    0.22    0.21
  -3 -19   9    0.14    0.15
   1  19  -9    0.60    0.24
  -1 -19   9    0.79    0.20
  -1  19  -9    0.94    0.26
   1 -19   9    0.35    0.16
  -3  19  -9   -0.06    0.16
  -5  19  -9   -0.01    0.17
  -7  19  -9    0.19    0.22
  -9  19  -9    0.00    0.20
 -11  19  -9    0.25    0.23
 -11  19  -9    0.08    0.22
 -13  19  -9   -0.11    0.23
 -13  19  -9    0.22    0.23
 -15  19  -9    0.21    0.23
 -15  19  -9   -0.01    0.23
 -17  19  -9   -0.10    0.23
 -17  19  -9    0.39    0.28
 -19  19  -9    0.09    0.26
 -19  19  -9    0.12    0.25
 -21  19  -9    0.38    0.30
 -21  19  -9    0.61    0.32
 -23  19  -9    0.39    0.30
 -25  19  -9   -0.03    0.27
 -25 -17   9    0.03    0.18
 -23 -17   9    0.14    0.21
 -21 -17   9   -0.08    0.18
 -19 -17   9    0.29    0.22
 -17 -17   9   -0.02    0.20
 -15 -17   9    0.25    0.20
  13  17  -9    0.11    0.21
 -13 -17   9    0.12    0.18
  11  17  -9    0.17    0.20
 -11 -17   9   -0.13    0.13
   9  17  -9   -0.01    0.17
  -9 -17   9    0.05    0.15
   7  17  -9   -0.03    0.16
  -7 -17   9   -0.07    0.11
   5  17  -9    0.23    0.19
  -5 -17   9    0.08    0.15
   3  17  -9    2.01    0.31
  -3 -17   9    2.18    0.27
   1  17  -9   -0.01    0.14
  -1 -17   9    0.04    0.12
  -1  17  -9   -0.06    0.15
   1 -17   9   -0.02    0.10
  -3  17  -9    2.45    0.33
   3 -17   9    2.29    0.25
  -5  17  -9    0.19    0.19
  -7  17  -9    0.21    0.17
  -9  17  -9   -0.29    0.14
  -9  17  -9    0.00    0.18
 -11  17  -9    0.19    0.22
 -11  17  -9   -0.12    0.16
 -13  17  -9    0.14    0.19
 -13  17  -9    0.07    0.21
 -15  17  -9    0.09    0.23
 -15  17  -9   -0.11    0.18
 -17  17  -9   -0.14    0.23
 -17  17  -9    0.05    0.23
 -19  17  -9    0.47    0.26
 -19  17  -9    0.63    0.29
 -21  17  -9   -0.03    0.25
 -21  17  -9    0.35    0.28
 -23  17  -9   -0.03    0.27
 -25  17  -9    0.06    0.30
 -27  17  -9   -0.27    0.30
 -27 -15   9   -0.18    0.23
 -25 -15   9    0.06    0.23
 -23 -15   9   -0.04    0.18
 -21 -15   9    0.74    0.26
 -19 -15   9    0.21    0.17
 -17 -15   9   -0.11    0.15
  15  15  -9    0.19    0.21
 -15 -15   9   -0.08    0.15
  13  15  -9   -0.07    0.19
 -13 -15   9    0.17    0.16
  11  15  -9   -0.03    0.18
 -11 -15   9    0.15    0.15
   9  15  -9   -0.03    0.17
  -9 -15   9    0.08    0.14
   7  15  -9    0.24    0.19
  -7 -15   9    0.63    0.20
   5  15  -9   -0.02    0.14
  -5 -15   9    0.00    0.11
   3  15  -9    0.67    0.21
  -3 -15   9    0.44    0.15
   1  15  -9    4.39    0.40
  -1 -15   9    3.68    0.30
  -1  15  -9    3.07    0.34
   1 -15   9    3.45    0.28
  -3  15  -9    0.32    0.19
   3 -15   9    0.61    0.14
  -5  15  -9   -0.03    0.14
  -5  15  -9   -0.26    0.10
   5 -15   9   -0.03    0.09
  -7  15  -9    0.17    0.16
  -7  15  -9    0.24    0.18
  -9  15  -9   -0.06    0.14
  -9  15  -9   -0.35    0.15
 -11  15  -9    0.27    0.19
 -11  15  -9    0.00    0.16
 -13  15  -9   -0.10    0.19
 -13  15  -9    0.12    0.20
 -15  15  -9    0.11    0.22
 -15  15  -9    0.02    0.18
 -17  15  -9    0.15    0.21
 -17  15  -9    0.07    0.22
 -19  15  -9   -0.12    0.20
 -19  15  -9   -0.01    0.21
 -21  15  -9    0.52    0.27
 -21  15  -9    0.39    0.28
 -23  15  -9   -0.16    0.25
 -25  15  -9    0.04    0.25
 -27  15  -9    0.21    0.31
 -29  15  -9    0.07    0.33
 -27 -13   9   -0.17    0.22
 -25 -13   9   -0.12    0.19
 -23 -13   9    0.33    0.21
 -21 -13   9    0.03    0.16
 -19 -13   9    0.13    0.19
 -17 -13   9    0.19    0.18
 -15 -13   9   -0.02    0.12
  13  13  -9   -0.13    0.16
 -13 -13   9   -0.16    0.11
  11  13  -9    0.41    0.20
 -11 -13   9    0.21    0.15
   9  13  -9   -0.15    0.13
  -9 -13   9   -0.12    0.10
   7  13  -9    0.17    0.15
  -7 -13   9    0.35    0.15
   5  13  -9    0.15    0.14
  -5 -13   9    0.01    0.11
   3  13  -9    0.25    0.15
  -3 -13   9    0.11    0.11
   1  13  -9    0.48    0.17
  -1 -13   9    0.61    0.14
  -1  13  -9    0.44    0.16
  -1  13  -9    0.32    0.09
   1 -13   9    0.51    0.13
  -3  13  -9    0.07    0.13
  -3  13  -9    0.11    0.11
   3 -13   9    0.13    0.09
  -5  13  -9    0.09    0.13
  -5  13  -9   -0.12    0.10
   5 -13   9   -0.01    0.08
  -7  13  -9    0.24    0.15
  -7  13  -9    0.18    0.13
   7 -13   9    0.22    0.10
  -9  13  -9    0.02    0.14
  -9  13  -9   -0.15    0.12
 -11  13  -9    0.24    0.17
 -11  13  -9    0.14    0.18
 -13  13  -9   -0.14    0.16
 -13  13  -9    0.17    0.17
 -15  13  -9    0.00    0.17
 -15  13  -9   -0.15    0.17
 -17  13  -9    0.00    0.19
 -17  13  -9    0.04    0.19
 -19  13  -9    0.18    0.22
 -19  13  -9   -0.01    0.21
 -21  13  -9   -0.09    0.22
 -23  13  -9   -0.01    0.23
 -25  13  -9    0.44    0.32
 -27  13  -9   -0.08    0.27
 -29  13  -9    0.34    0.29
 -29 -11   9   -0.30    0.23
 -27 -11   9    0.12    0.26
 -25 -11   9   -0.10    0.16
 -23 -11   9    0.29    0.21
 -21 -11   9    1.05    0.28
 -19 -11   9    0.33    0.19
 -17 -11   9    0.17    0.15
 -15 -11   9    0.03    0.12
 -13 -11   9    0.57    0.19
  11  11  -9   -0.16    0.13
 -11 -11   9   -0.18    0.09
   9  11  -9   -0.07    0.15
  -9 -11   9   -0.04    0.08
   7  11  -9    0.46    0.17
  -7 -11   9    1.00    0.20
   5  11  -9   -0.11    0.11
  -5 -11   9    0.07    0.10
   3  11  -9    0.90    0.20
  -3 -11   9    1.06    0.17
   1  11  -9    3.10    0.29
  -1 -11   9    3.17    0.25
  -1  11  -9    3.40    0.19
  -1  11  -9    3.11    0.29
   1 -11   9    3.41    0.25
  -3  11  -9    1.07    0.21
  -3  11  -9    1.45    0.16
   3 -11   9    1.62    0.17
  -5  11  -9   -0.13    0.08
  -5  11  -9   -0.18    0.08
   5 -11   9   -0.03    0.07
  -7  11  -9    0.94    0.21
  -7  11  -9    0.98    0.18
   7 -11   9    1.32    0.14
  -9  11  -9   -0.03    0.13
  -9  11  -9    0.04    0.14
   9 -11   9   -0.09    0.06
 -11  11  -9    0.06    0.16
 -11  11  -9    0.07    0.14
 -13  11  -9    0.71    0.21
 -13  11  -9    0.44    0.20
 -15  11  -9    0.19    0.17
 -15  11  -9    0.03    0.17
 -17  11  -9    0.08    0.21
 -17  11  -9    0.02    0.17
 -19  11  -9    0.37    0.23
 -19  11  -9    0.23    0.20
 -21  11  -9    1.41    0.36
 -23  11  -9    0.00    0.21
 -25  11  -9   -0.05    0.23
 -27  11  -9    0.56    0.28
 -29  11  -9    0.06    0.26
 -31  11  -9    0.00    0.28
 -31  -9   9   -0.16    0.25
 -29  -9   9   -0.04    0.25
 -27  -9   9   -0.21    0.20
 -25  -9   9    0.02    0.20
 -23  -9   9   -0.20    0.14
 -21  -9   9    0.03    0.17
 -19  -9   9    0.05    0.16
 -17  -9   9    0.03    0.14
 -15  -9   9    0.01    0.12
 -13  -9   9   -0.12    0.09
  11   9  -9    0.06    0.13
 -11  -9   9   -0.02    0.09
   9   9  -9   -0.03    0.12
  -9  -9   9    0.05    0.12
   7   9  -9   -0.08    0.10
  -7  -9   9    0.00    0.09
   5   9  -9   -0.06    0.10
  -5  -9   9    0.01    0.09
   3   9  -9   -0.02    0.10
  -3  -9   9   -0.02    0.08
   1   9  -9    0.04    0.10
  -1  -9   9   -0.03    0.07
  -1   9  -9    0.04    0.10
  -1   9  -9    0.05    0.05
   1  -9   9    0.06    0.07
  -3   9  -9    0.03    0.10
  -3   9  -9    0.02    0.07
   3  -9   9    0.00    0.06
  -5   9  -9    0.15    0.11
  -5   9  -9   -0.01    0.08
   5  -9   9   -0.03    0.05
  -7   9  -9    0.03    0.10
  -7   9  -9    0.08    0.12
   7  -9   9   -0.04    0.06
  -9   9  -9   -0.08    0.10
  -9   9  -9    0.00    0.09
  -9   9  -9   -0.05    0.06
   9  -9   9   -0.04    0.06
 -11   9  -9    0.01    0.13
 -11   9  -9   -0.03    0.12
  11  -9   9   -0.03    0.08
 -13   9  -9   -0.04    0.14
 -13   9  -9    0.00    0.12
 -15   9  -9   -0.08    0.16
 -15   9  -9   -0.14    0.14
 -17   9  -9    0.05    0.15
 -17   9  -9    0.03    0.17
 -19   9  -9   -0.13    0.17
 -21   9  -9   -0.20    0.17
 -23   9  -9    0.03    0.23
 -25   9  -9    0.24    0.25
 -27   9  -9    0.41    0.29
 -29   9  -9   -0.24    0.24
 -31   9  -9    0.66    0.34
 -29  -7   9   -0.07    0.22
 -27  -7   9    0.11    0.22
 -25  -7   9    0.03    0.18
 -23  -7   9    0.22    0.20
 -21  -7   9    0.10    0.16
 -19  -7   9    0.31    0.19
 -17  -7   9    0.08    0.13
 -15  -7   9    0.43    0.17
 -13  -7   9    0.58    0.17
 -11  -7   9    0.99    0.14
 -11  -7   9    1.25    0.21
   9   7  -9   -0.10    0.12
  -9  -7   9    0.01    0.09
  -9  -7   9    0.04    0.07
   7   7  -9   -0.08    0.10
  -7  -7   9    0.06    0.09
   5   7  -9    1.67    0.21
  -5  -7   9    1.39    0.18
   3   7  -9    0.02    0.09
  -3  -7   9    0.26    0.10
   1   7  -9    9.42    0.43
  -1  -7   9    9.41    0.38
  -1   7  -9   10.29    0.31
  -1   7  -9   10.79    0.45
   1  -7   9   10.73    0.40
  -3   7  -9    0.12    0.08
  -3   7  -9   -0.03    0.09
   3  -7   9    0.16    0.08
  -5   7  -9    1.89    0.21
  -5   7  -9    1.71    0.18
   5  -7   9    1.94    0.17
  -7   7  -9   -0.12    0.07
  -7   7  -9   -0.01    0.10
   7  -7   9    0.08    0.07
  -9   7  -9   -0.04    0.06
  -9   7  -9   -0.04    0.10
  -9   7  -9   -0.01    0.10
   9  -7   9   -0.07    0.07
 -11   7  -9    1.02    0.20
 -11   7  -9    0.90    0.18
  11  -7   9    1.40    0.16
 -13   7  -9    0.24    0.13
 -13   7  -9    0.56    0.19
  13  -7   9    0.18    0.11
 -15   7  -9    0.32    0.16
 -15   7  -9    0.52    0.23
 -17   7  -9   -0.07    0.15
 -17   7  -9    0.20    0.20
 -19   7  -9    0.84    0.26
 -21   7  -9   -0.21    0.18
 -23   7  -9    0.20    0.23
 -25   7  -9    0.24    0.22
 -27   7  -9   -0.37    0.21
 -29   7  -9   -0.25    0.21
 -31   7  -9    0.15    0.29
 -27  -5   9   -0.17    0.17
 -25  -5   9   -0.18    0.13
 -23  -5   9    0.32    0.21
 -21  -5   9   -0.22    0.14
 -19  -5   9    0.63    0.21
 -19  -5   9    0.18    0.16
 -17  -5   9    0.15    0.14
 -17  -5   9   -0.15    0.11
 -15  -5   9   -0.08    0.12
 -15  -5   9    0.08    0.11
 -13  -5   9    0.12    0.11
 -13  -5   9    0.06    0.11
 -11  -5   9    0.02    0.09
 -11  -5   9    0.04    0.09
  -9  -5   9   -0.01    0.06
  -9  -5   9    0.06    0.09
  -7  -5   9    1.22    0.17
  -7  -5   9    1.86    0.14
   5   5  -9    0.08    0.09
  -5  -5   9    0.06    0.08
   3   5  -9   -0.02    0.07
  -3  -5   9    0.11    0.07
   1   5  -9    0.84    0.16
  -1  -5   9    0.64    0.12
  -1   5  -9    0.79    0.10
  -1   5  -9    0.88    0.15
   1  -5   9    0.79    0.13
  -3   5  -9    0.17    0.07
  -3   5  -9   -0.02    0.08
   3  -5   9    0.02    0.07
  -5   5  -9   -0.02    0.07
  -5   5  -9   -0.03    0.08
   5  -5   9    0.04    0.07
  -7   5  -9    1.49    0.18
  -7   5  -9    1.81    0.20
   7  -5   9    1.65    0.17
  -9   5  -9   -0.06    0.09
  -9   5  -9    0.00    0.06
  -9   5  -9   -0.06    0.08
   9  -5   9   -0.02    0.06
 -11   5  -9   -0.03    0.10
 -11   5  -9   -0.04    0.09
  11  -5   9   -0.24    0.06
 -13   5  -9   -0.01    0.10
 -13   5  -9    0.12    0.13
  13  -5   9    0.10    0.09
 -15   5  -9    0.22    0.13
 -15   5  -9    0.23    0.15
  15  -5   9   -0.06    0.10
 -17   5  -9    0.24    0.17
 -19   5  -9    0.17    0.18
 -21   5  -9    0.18    0.18
 -23   5  -9   -0.11    0.17
 -25   5  -9    0.38    0.26
 -27   5  -9    0.04    0.21
 -29   5  -9   -0.30    0.27
 -31   5  -9    0.15    0.31
 -25  -3   9   -0.07    0.16
 -23  -3   9   -0.20    0.19
 -23  -3   9   -0.12    0.13
 -21  -3   9    0.28    0.21
 -21  -3   9    0.29    0.17
 -19  -3   9   -0.01    0.13
 -19  -3   9    0.01    0.13
 -17  -3   9    2.36    0.29
 -17  -3   9    2.22    0.28
 -15  -3   9    0.50    0.16
 -15  -3   9    0.26    0.14
 -13  -3   9    0.04    0.10
 -13  -3   9   -0.01    0.11
 -11  -3   9    1.47    0.18
 -11  -3   9    1.23    0.19
  -9  -3   9   -0.02    0.08
  -9  -3   9   -0.04    0.08
  -7  -3   9    0.12    0.06
  -7  -3   9    0.02    0.07
  -5  -3   9    0.06    0.06
  -5  -3   9   -0.05    0.06
   3   3  -9    0.01    0.08
  -3  -3   9    0.06    0.07
   1   3  -9    0.09    0.09
  -1  -3   9    0.11    0.08
  -1   3  -9    0.14    0.09
   1  -3   9    0.09    0.08
  -3   3  -9   -0.10    0.05
  -3   3  -9   -0.07    0.06
   3  -3   9   -0.05    0.06
  -5   3  -9    0.14    0.09
  -5   3  -9    0.04    0.08
   5  -3   9    0.11    0.08
  -7   3  -9    0.10    0.09
  -7   3  -9    0.05    0.10
  -7   3  -9    0.11    0.07
   7  -3   9    0.03    0.08
  -9   3  -9   -0.04    0.08
  -9   3  -9   -0.07    0.08
   9  -3   9    0.01    0.07
 -11   3  -9    1.35    0.17
 -11   3  -9    1.08    0.21
  11  -3   9    1.64    0.18
 -13   3  -9    0.18    0.14
 -13   3  -9    0.17    0.11
  13  -3   9    0.21    0.10
 -15   3  -9    0.31    0.19
  15  -3   9    0.19    0.11
 -17   3  -9    2.62    0.35
  17  -3   9    2.34    0.23
 -19   3  -9    0.10    0.17
 -21   3  -9    0.43    0.22
 -23   3  -9   -0.05    0.21
 -25   3  -9    0.40    0.25
 -27   3  -9    0.27    0.28
 -29   3  -9   -0.01    0.26
 -31   3  -9    0.15    0.34
 -27  -1   9   -0.09    0.25
 -25  -1   9    0.13    0.23
 -23  -1   9    0.07    0.18
 -23  -1   9    0.07    0.20
 -21  -1   9    0.14    0.15
 -21  -1   9   -0.05    0.19
 -19  -1   9    0.65    0.20
 -19  -1   9    0.65    0.23
 -17  -1   9   -0.07    0.11
 -17  -1   9    0.00    0.13
 -15  -1   9    3.02    0.29
 -15  -1   9    3.33    0.31
 -13  -1   9    0.62    0.15
 -13  -1   9    0.71    0.17
 -11  -1   9    3.12    0.25
 -11  -1   9    3.64    0.28
  -9  -1   9    0.01    0.07
  -9  -1   9    0.02    0.07
  -7  -1   9   10.31    0.37
  -7  -1   9   10.28    0.42
  -5  -1   9    0.61    0.10
  -5  -1   9    1.04    0.15
  -3  -1   9    0.23    0.09
  -1  -1   9   -0.04    0.06
  -1   1  -9   -0.02    0.07
   1  -1   9    0.01    0.07
  -3   1  -9    0.24    0.08
  -3   1  -9    0.34    0.10
   3  -1   9    0.38    0.10
  -5   1  -9    0.90    0.14
  -5   1  -9    0.83    0.13
  -5   1  -9    0.60    0.12
   5  -1   9    0.70    0.13
  -7   1  -9   10.84    0.44
  -7   1  -9   10.71    0.38
  -7   1  -9   10.40    0.39
   7  -1   9   10.09    0.39
  -9   1  -9   -0.07    0.07
  -9   1  -9    0.10    0.11
   9  -1   9   -0.01    0.06
 -11   1  -9    3.41    0.30
 -11   1  -9    2.94    0.21
  11  -1   9    3.25    0.24
 -13   1  -9    0.56    0.12
 -13   1  -9    0.36    0.16
  13  -1   9    0.30    0.12
 -15   1  -9    3.14    0.35
  15  -1   9    3.12    0.27
 -17   1  -9    0.19    0.16
  17  -1   9    0.02    0.10
 -19   1  -9    0.45    0.23
  19  -1   9    0.15    0.14
 -21   1  -9   -0.27    0.15
 -23   1  -9   -0.11    0.22
 -25   1  -9   -0.03    0.22
 -27   1  -9    0.19    0.30
 -29   1  -9    0.09    0.30
 -31   1  -9    0.01    0.34
 -31   1   9   -0.39    0.29
 -29   1   9    0.08    0.28
 -27   1   9    0.01    0.28
 -25   1   9    0.01    0.23
 -23   1   9    0.02    0.23
 -23   1   9    0.11    0.16
 -21   1   9    0.04    0.12
 -21   1   9   -0.22    0.16
 -19   1   9    0.46    0.17
 -19   1   9    0.55    0.21
 -17   1   9   -0.05    0.13
 -17   1   9   -0.07    0.11
 -15   1   9    3.28    0.32
 -15   1   9    3.18    0.29
 -13   1   9    0.32    0.13
 -13   1   9    0.61    0.16
 -11   1   9    3.21    0.26
 -11   1   9    3.40    0.27
  -9   1   9    0.02    0.08
  -9   1   9    0.07    0.10
  -7   1   9   10.86    0.42
  -7   1   9   10.01    0.40
  -5   1   9    0.70    0.13
  -5   1   9    0.88    0.13
  -3   1   9    0.28    0.10
  -1   1   9    0.04    0.08
   1   1   9    0.07    0.06
   3   1   9    0.28    0.10
  -5  -1  -9    0.57    0.12
  -5  -1  -9    0.86    0.14
   5   1   9    0.93    0.14
  -7  -1  -9    9.71    0.34
  -7  -1  -9    9.98    0.44
   7   1   9    9.98    0.39
  -9  -1  -9   -0.04    0.08
  -9  -1  -9    0.03    0.07
   9   1   9    0.04    0.07
 -11  -1  -9    2.77    0.19
 -11  -1  -9    3.31    0.31
  11   1   9    3.07    0.25
 -13  -1  -9    0.63    0.19
  13   1   9    0.58    0.15
 -15  -1  -9    3.12    0.35
  15   1   9    3.83    0.30
 -17  -1  -9   -0.18    0.13
  17   1   9   -0.04    0.10
 -19  -1  -9    0.31    0.22
  19   1   9    0.36    0.16
 -21  -1  -9    0.19    0.21
  21   1   9   -0.02    0.12
 -23  -1  -9   -0.42    0.20
 -25  -1  -9   -0.08    0.22
 -27  -1  -9    0.02    0.27
 -29  -1  -9   -0.29    0.26
 -31  -1  -9    0.15    0.35
 -31   3   9   -0.01    0.31
 -29   3   9    0.37    0.33
 -27   3   9   -0.06    0.23
 -25   3   9    0.37    0.28
 -23   3   9    0.26    0.23
 -21   3   9    0.14    0.20
 -19   3   9    0.13    0.18
 -19   3   9    0.21    0.14
 -17   3   9    2.26    0.31
 -17   3   9    2.13    0.25
 -15   3   9    0.34    0.17
 -15   3   9    0.48    0.15
 -13   3   9    0.37    0.13
 -13   3   9    0.21    0.13
 -11   3   9    1.27    0.20
 -11   3   9    1.49    0.19
  -9   3   9   -0.08    0.07
  -9   3   9    0.06    0.08
  -7   3   9    0.22    0.10
  -7   3   9    0.29    0.12
  -5   3   9    0.11    0.08
  -5   3   9    0.10    0.09
  -3   3   9    0.12    0.08
  -1   3   9    0.15    0.08
   1   3   9    0.30    0.10
  -3  -3  -9    0.05    0.06
   3   3   9   -0.01    0.06
  -5  -3  -9    0.05    0.08
   5   3   9    0.10    0.07
  -7  -3  -9    0.10    0.10
   7   3   9    0.06    0.08
  -9  -3  -9    0.06    0.09
   9   3   9   -0.02    0.06
 -11  -3  -9    1.35    0.22
  11   3   9    1.41    0.20
 -13  -3  -9    0.22    0.15
  13   3   9    0.10    0.10
 -15  -3  -9    0.25    0.15
 -15  -3  -9    0.71    0.23
  15   3   9    0.33    0.15
 -17  -3  -9    2.30    0.28
 -17  -3  -9    2.00    0.31
 -19  -3  -9   -0.02    0.18
 -19  -3  -9    0.13    0.15
 -21  -3  -9    0.28    0.17
 -21  -3  -9    0.15    0.20
 -23  -3  -9   -0.15    0.21
 -23  -3  -9   -0.12    0.16
 -25  -3  -9    0.37    0.27
 -27  -3  -9    0.00    0.27
 -29  -3  -9   -0.22    0.29
 -31  -3  -9   -0.09    0.34
 -31   5   9    0.65    0.39
 -29   5   9    0.07    0.32
 -27   5   9    0.02    0.27
 -25   5   9    0.27    0.27
 -23   5   9   -0.08    0.20
 -21   5   9    0.13    0.21
 -19   5   9    0.54    0.22
 -17   5   9    0.01    0.14
 -17   5   9    0.12    0.13
 -15   5   9    0.12    0.14
 -15   5   9    0.05    0.11
 -13   5   9    0.06    0.10
 -13   5   9    0.06    0.13
 -11   5   9    0.11    0.12
 -11   5   9    0.06    0.09
  -9   5   9   -0.07    0.07
  -9   5   9    0.03    0.08
  -7   5   9    1.83    0.21
  -7   5   9    1.76    0.19
  -5   5   9   -0.07    0.07
  -5   5   9   -0.13    0.06
  -3   5   9    0.11    0.08
  -1   5   9    0.72    0.13
  -1  -5  -9    0.88    0.14
   1   5   9    0.76    0.13
   3   5   9    0.08    0.07
   5   5   9    0.01    0.07
  -7  -5  -9    1.34    0.21
   7   5   9    1.96    0.20
  -9  -5  -9   -0.12    0.08
   9   5   9   -0.08    0.06
 -11  -5  -9   -0.07    0.08
 -11  -5  -9   -0.27    0.10
  11   5   9   -0.06    0.07
 -13  -5  -9    0.09    0.13
 -13  -5  -9    0.06    0.11
 -15  -5  -9   -0.11    0.15
 -15  -5  -9    0.11    0.12
 -17  -5  -9    0.06    0.16
 -17  -5  -9    0.44    0.17
 -19  -5  -9    0.52    0.20
 -19  -5  -9    0.10    0.19
 -21  -5  -9   -0.03    0.20
 -21  -5  -9    0.01    0.15
 -23  -5  -9   -0.22    0.21
 -23  -5  -9    0.04    0.18
 -25  -5  -9    0.33    0.26
 -25  -5  -9    0.05    0.19
 -27  -5  -9    0.32    0.31
 -29  -5  -9   -0.06    0.30
 -31  -5  -9   -0.14    0.33
 -31   7   9   -0.22    0.33
 -29   7   9    0.14    0.32
 -27   7   9   -0.05    0.27
 -25   7   9    0.25    0.26
 -23   7   9    0.00    0.23
 -21   7   9   -0.10    0.19
 -19   7   9    0.41    0.22
 -17   7   9    0.10    0.17
 -15   7   9    0.66    0.23
 -15   7   9    0.19    0.12
 -13   7   9    0.47    0.19
 -13   7   9    0.31    0.14
 -11   7   9    1.27    0.22
 -11   7   9    1.30    0.17
  -9   7   9   -0.02    0.08
  -9   7   9    0.00    0.10
  -7   7   9    0.06    0.09
  -7   7   9    0.16    0.12
  -5   7   9    1.61    0.18
  -5   7   9    1.71    0.22
   3  -7  -9    0.16    0.09
  -3   7   9    0.06    0.08
   1  -7  -9   10.16    0.40
  -1   7   9   10.20    0.41
   1   7   9    9.74    0.40
   3   7   9   -0.03    0.07
   5   7   9    1.40    0.18
   7   7   9    0.00    0.09
  -9  -7  -9    0.09    0.13
  -9  -7  -9    0.16    0.11
   9   7   9    0.14    0.10
 -11  -7  -9    1.25    0.23
 -11  -7  -9    0.83    0.19
 -13  -7  -9    0.34    0.16
 -13  -7  -9    0.36    0.16
 -15  -7  -9    0.17    0.16
 -15  -7  -9    0.97    0.25
 -17  -7  -9   -0.14    0.15
 -17  -7  -9    0.20    0.13
 -19  -7  -9    0.52    0.20
 -19  -7  -9    0.56    0.24
 -21  -7  -9   -0.04    0.20
 -21  -7  -9    0.11    0.17
 -23  -7  -9    0.42    0.26
 -23  -7  -9    0.02    0.18
 -25  -7  -9   -0.07    0.25
 -25  -7  -9   -0.14    0.19
 -27  -7  -9   -0.11    0.22
 -27  -7  -9    0.05    0.27
 -29  -7  -9   -0.14    0.28
 -31  -7  -9   -0.03    0.27
 -31   9   9    0.27    0.37
 -29   9   9    0.47    0.37
 -27   9   9   -0.32    0.27
 -25   9   9   -0.11    0.26
 -23   9   9   -0.10    0.24
 -21   9   9    0.00    0.20
 -19   9   9    0.07    0.19
 -17   9   9   -0.02    0.17
 -15   9   9   -0.03    0.14
 -13   9   9    0.01    0.10
 -13   9   9   -0.02    0.14
 -11   9   9   -0.06    0.12
 -11   9   9   -0.01    0.09
  -9   9   9   -0.10    0.09
  -9   9   9    0.02    0.12
  -7   9   9    0.08    0.10
  -7   9   9   -0.06    0.08
   5  -9  -9    0.03    0.08
  -5   9   9    0.05    0.10
  -5   9   9    0.04    0.09
   3  -9  -9    0.00    0.08
  -3   9   9    0.09    0.09
  -1   9   9   -0.01    0.06
   1   9   9    0.04    0.08
   3   9   9   -0.02    0.07
   5   9   9   -0.01    0.09
   7   9   9    0.00    0.09
  -9  -9  -9    0.02    0.10
 -11  -9  -9    0.18    0.12
 -11  -9  -9   -0.16    0.12
 -13  -9  -9    0.01    0.14
 -13  -9  -9    0.01    0.11
 -15  -9  -9   -0.18    0.17
 -15  -9  -9   -0.10    0.12
 -17  -9  -9   -0.23    0.11
 -17  -9  -9    0.07    0.17
 -19  -9  -9   -0.02    0.14
 -19  -9  -9   -0.14    0.17
 -21  -9  -9   -0.30    0.21
 -21  -9  -9    0.01    0.16
 -23  -9  -9   -0.18    0.16
 -23  -9  -9   -0.29    0.20
 -25  -9  -9    0.15    0.20
 -25  -9  -9   -0.11    0.25
 -27  -9  -9    0.01    0.28
 -27  -9  -9   -0.19    0.20
 -29  -9  -9    0.00    0.29
 -29  -9  -9    0.10    0.26
 -31  -9  -9   -0.25    0.36
 -31  11   9    0.02    0.32
 -29  11   9    0.05    0.35
 -27  11   9   -0.02    0.27
 -25  11   9    0.06    0.27
 -23  11   9    0.23    0.25
 -21  11   9    0.71    0.31
 -19  11   9    0.01    0.21
 -17  11   9    0.18    0.21
 -15  11   9    0.06    0.15
 -13  11   9    0.64    0.22
 -11  11   9    0.06    0.10
 -11  11   9    0.15    0.15
   9 -11  -9   -0.01    0.10
  -9  11   9    0.00    0.10
  -9  11   9    0.00    0.11
  -7  11   9    0.79    0.20
  -7  11   9    0.94    0.16
   5 -11  -9    0.04    0.10
  -5  11   9    0.03    0.10
  -5  11   9   -0.05    0.10
  -3  11   9    1.50    0.19
  -3  11   9    1.20    0.22
  -1  11   9    2.89    0.25
   1  11   9    3.13    0.26
   3  11   9    1.17    0.19
   5  11   9    0.00    0.09
  -7 -11  -9    1.19    0.22
   7  11   9    1.01    0.19
  -9 -11  -9    0.07    0.13
 -11 -11  -9   -0.01    0.11
 -13 -11  -9    0.22    0.14
 -15 -11  -9    0.19    0.19
 -15 -11  -9   -0.08    0.12
 -17 -11  -9    0.06    0.19
 -17 -11  -9    0.02    0.13
 -19 -11  -9    0.20    0.21
 -19 -11  -9   -0.25    0.14
 -21 -11  -9    0.56    0.23
 -21 -11  -9    1.03    0.34
 -23 -11  -9    0.24    0.27
 -23 -11  -9   -0.10    0.20
 -25 -11  -9   -0.03    0.20
 -25 -11  -9   -0.07    0.25
 -27 -11  -9   -0.12    0.23
 -27 -11  -9    0.04    0.31
 -29 -11  -9   -0.16    0.33
 -29 -11  -9   -0.05    0.26
 -31 -11  -9    0.64    0.43
 -29  13   9   -0.09    0.35
 -27  13   9   -0.26    0.30
 -25  13   9   -0.04    0.29
 -23  13   9    0.18    0.29
 -21  13   9   -0.18    0.21
 -19  13   9   -0.13    0.18
 -17  13   9    0.32    0.22
 -15  13   9    0.16    0.20
 -13  13   9   -0.18    0.11
 -11  13   9    0.37    0.19
   9 -13  -9    0.01    0.10
  -9  13   9   -0.06    0.13
  -9  13   9   -0.04    0.10
  -7  13   9    0.40    0.14
  -7  13   9    0.27    0.16
  -5  13   9    0.10    0.10
  -5  13   9    0.13    0.14
  -3  13   9    0.41    0.12
  -3  13   9    0.12    0.13
  -1  13   9    0.31    0.12
   1  13   9    0.27    0.13
   3  13   9    0.20    0.13
   5  13   9   -0.05    0.09
  -7 -13  -9    0.24    0.15
  -9 -13  -9   -0.03    0.11
 -11 -13  -9    0.35    0.17
 -13 -13  -9   -0.08    0.10
 -15 -13  -9    0.30    0.18
 -17 -13  -9    0.25    0.18
 -19 -13  -9   -0.10    0.22
 -19 -13  -9   -0.10    0.15
 -21 -13  -9   -0.02    0.17
 -21 -13  -9   -0.05    0.23
 -23 -13  -9    0.25    0.30
 -23 -13  -9   -0.11    0.17
 -25 -13  -9    0.13    0.22
 -25 -13  -9    0.14    0.29
 -27 -13  -9   -0.17    0.31
 -27 -13  -9    0.19    0.25
 -29 -13  -9    0.06    0.34
 -29 -13  -9   -0.36    0.22
 -29  15   9   -0.11    0.32
 -27  15   9   -0.04    0.30
 -25  15   9   -0.46    0.24
 -23  15   9    0.31    0.32
 -21  15   9    1.00    0.35
 -19  15   9    0.07    0.24
 -17  15   9    0.08    0.22
 -15  15   9   -0.20    0.16
 -13  15   9   -0.17    0.14
 -11  15   9    0.48    0.22
  -9  15   9    0.13    0.15
  -7  15   9    0.31    0.17
  -7  15   9    0.29    0.14
  -5  15   9    0.23    0.16
  -5  15   9   -0.03    0.11
  -3  15   9    0.47    0.18
  -3  15   9    0.12    0.11
  -1  15   9    3.23    0.29
   1  15   9    3.41    0.31
   3  15   9    0.36    0.15
   5  15   9    0.08    0.11
  -7 -15  -9    0.07    0.15
  -9 -15  -9   -0.07    0.12
 -11 -15  -9    0.22    0.17
 -13 -15  -9   -0.03    0.17
 -15 -15  -9   -0.10    0.14
 -17 -15  -9   -0.03    0.15
 -19 -15  -9    0.07    0.19
 -21 -15  -9   -0.08    0.16
 -23 -15  -9    0.06    0.22
 -25 -15  -9    0.20    0.28
 -25 -15  -9    0.39    0.26
 -27 -15  -9    0.33    0.35
 -27 -15  -9   -0.19    0.24
 -29 -15  -9   -0.10    0.35
 -27  17   9   -0.40    0.27
 -25  17   9   -0.31    0.29
 -23  17   9   -0.45    0.25
 -21  17   9    0.27    0.25
 -19  17   9    0.09    0.23
 -17  17   9   -0.11    0.16
 -15  17   9    0.06    0.19
 -13  17   9    0.31    0.21
 -11  17   9    0.12    0.16
  -9  17   9   -0.05    0.15
  -7  17   9   -0.10    0.14
  -5  17   9    0.16    0.15
  -5  17   9    0.22    0.14
  -3  17   9    1.83    0.30
  -3  17   9    1.96    0.24
  -1  17   9   -0.05    0.15
  -1  17   9   -0.03    0.10
   1  17   9   -0.14    0.10
   3  17   9    2.51    0.29
   5  17   9    0.34    0.15
  -7 -17  -9    0.20    0.16
  -9 -17  -9   -0.21    0.11
 -11 -17  -9    0.19    0.18
 -13 -17  -9    0.30    0.18
 -15 -17  -9    0.03    0.19
 -17 -17  -9   -0.06    0.18
 -19 -17  -9    0.08    0.17
 -21 -17  -9   -0.07    0.19
 -23 -17  -9   -0.03    0.20
 -25 -17  -9   -0.01    0.23
 -25  19   9    0.16    0.33
 -23  19   9   -0.11    0.27
 -21  19   9    0.33    0.29
 -19  19   9   -0.15    0.20
 -17  19   9    0.24    0.25
 -15  19   9    0.04    0.20
 -13  19   9   -0.12    0.18
 -11  19   9    0.24    0.20
  -9  19   9    0.22    0.19
  -7  19   9    0.44    0.21
  -5  19   9    0.29    0.20
  -3  19   9    0.30    0.19
  -3  19   9    0.24    0.15
  -1  19   9    0.25    0.20
  -1  19   9    0.14    0.15
   1  19   9    0.55    0.19
   3  19   9    0.24    0.15
   5  19   9    0.44    0.18
  -7 -19  -9    0.44    0.22
  -9 -19  -9   -0.12    0.14
 -11 -19  -9    0.27    0.20
 -13 -19  -9   -0.02    0.19
 -15 -19  -9   -0.06    0.19
 -17 -19  -9    0.36    0.24
 -19 -19  -9   -0.27    0.17
 -21 -19  -9    0.38    0.25
 -23 -19  -9   -0.18    0.18
 -25  21   9   -0.11    0.27
 -23  21   9    0.15    0.30
 -21  21   9   -0.20    0.26
 -19  21   9    0.03    0.25
 -17  21   9   -0.04    0.19
 -15  21   9    0.63    0.29
 -13  21   9   -0.24    0.16
 -11  21   9    1.74    0.37
  -9  21   9    0.13    0.19
  -7  21   9    0.21    0.21
  -5  21   9   -0.04    0.16
  -3  21   9    0.22    0.21
  -1  21   9    0.00    0.14
  -1  21   9   -0.03    0.14
   1  21   9   -0.28    0.11
   1  21   9   -0.01    0.18
   3  21   9    0.51    0.20
   5  21   9    0.11    0.15
  -7 -21  -9    0.09    0.17
  -9 -21  -9   -0.13    0.15
 -11 -21  -9    0.76    0.27
 -13 -21  -9    0.12    0.20
 -15 -21  -9    1.08    0.32
 -17 -21  -9    0.38    0.26
 -19 -21  -9    0.00    0.26
 -21 -21  -9    0.18    0.27
 -23  23   9    0.13    0.33
 -21  23   9    0.09    0.27
 -19  23   9   -0.24    0.20
 -17  23   9    0.36    0.27
 -15  23   9    0.12    0.26
 -13  23   9    0.19    0.25
 -11  23   9    0.02    0.22
  -9  23   9   -0.11    0.18
  -7  23   9    0.16    0.21
  -5  23   9    0.35    0.19
  -3  23   9    0.04    0.16
  -1  23   9    0.38    0.23
   1  23   9    0.03    0.20
   1  23   9    0.18    0.17
   3  23   9    0.03    0.14
   5  23   9   -0.06    0.14
  -7 -23  -9    0.19    0.22
   7  23   9    0.51    0.22
  -9 -23  -9    0.09    0.20
 -11 -23  -9   -0.03    0.22
 -13 -23  -9    0.46    0.29
 -15 -23  -9    0.11    0.22
 -17 -23  -9    0.26    0.28
 -19 -23  -9    0.10    0.28
 -21  25   9   -0.28    0.30
 -19  25   9   -0.15    0.24
 -17  25   9    0.36    0.31
 -15  25   9   -0.06    0.25
 -13  25   9    0.02    0.22
 -11  25   9    0.01    0.23
  -9  25   9   -0.01    0.22
  -7  25   9    0.31    0.22
  -5  25   9    0.49    0.26
  -3  25   9    0.14    0.21
  -1  25   9   -0.13    0.18
   1  25   9    0.08    0.19
   3  25   9    0.27    0.23
   3  25   9    0.02    0.17
   5  25   9   -0.03    0.15
   7  25   9    0.04    0.17
  -9 -25  -9   -0.02    0.21
 -11 -25  -9    0.09    0.24
 -13 -25  -9   -0.04    0.23
 -15 -25  -9    0.14    0.24
 -17 -25  -9   -0.04    0.32
 -17  27   9    0.09    0.27
 -15  27   9    0.26    0.30
 -13  27   9    0.07    0.28
 -11  27   9    0.00    0.25
  -9  27   9    0.04    0.21
  -7  27   9    0.18    0.24
  -5  27   9   -0.17    0.16
  -3  27   9   -0.11    0.18
  -1  27   9   -0.05    0.20
   1  27   9   -0.14    0.18
   3  27   9    0.07    0.22
   5  27   9   -0.05    0.22
   7  27   9   -0.05    0.16
  -9 -27  -9    0.22    0.26
   9  27   9    0.08    0.22
 -11 -27  -9   -0.10    0.28
 -13 -27  -9    0.35    0.29
 -15 -27  -9   -0.45    0.30
 -15  29   9    0.11    0.29
 -13  29   9    0.28    0.33
 -11  29   9    0.01    0.27
  -9  29   9   -0.34    0.22
  -7  29   9    0.19    0.29
  -5  29   9    0.16    0.26
  -3  29   9    0.33    0.26
  -1  29   9    0.36    0.28
   9  29   9    0.04    0.21
 -11 -29  -9    0.08    0.27
  11  29   9   -0.08    0.18
 -11  31   9    0.29    0.34
  -9  31   9   -0.21    0.28
  -7  31   9    0.04    0.28
  -5  31   9    0.33    0.33
  -1  31   9   -0.35    0.26
   6  32 -10   -0.10    0.32
   4  32 -10    0.14    0.33
   2  32 -10   -0.27    0.29
   0  32 -10   -0.14    0.28
  -2  32 -10    0.00    0.30
  -4  32 -10    0.29    0.34
  -6  32 -10   -0.03    0.28
   8  30 -10    0.18    0.32
   6  30 -10    6.15    0.67
   4  30 -10    1.56    0.41
   2  30 -10    7.42    0.71
   0  30 -10    0.07    0.28
  -2  30 -10    7.19    0.72
  -4  30 -10    2.00    0.46
  -6  30 -10    4.14    0.58
  -8  30 -10    0.28    0.31
 -10  30 -10    5.50    0.69
 -12  30 -10    0.28    0.34
 -14 -28  10    0.16    0.33
 -12 -28  10   -0.26    0.27
 -10 -28  10    0.29    0.28
   8  28 -10    0.26    0.29
   6  28 -10    0.01    0.25
   4  28 -10    0.02    0.26
   2  28 -10    0.37    0.30
   0  28 -10   -0.05    0.27
  -2  28 -10    0.27    0.28
  -4  28 -10   -0.01    0.25
  -6  28 -10    0.03    0.23
  -8  28 -10    0.24    0.27
 -10  28 -10    0.39    0.31
 -12  28 -10    0.34    0.34
 -14  28 -10    0.18    0.37
 -16  28 -10    0.73    0.40
 -16 -26  10    0.35    0.33
 -14 -26  10    6.08    0.64
 -12 -26  10    0.03    0.27
  10  26 -10    4.41    0.54
 -10 -26  10    4.66    0.55
   8  26 -10    1.31    0.36
  -8 -26  10    1.04    0.33
   6  26 -10    5.44    0.58
   4  26 -10    0.53    0.29
   2  26 -10    7.21    0.65
   0  26 -10    1.48    0.38
  -2  26 -10    7.06    0.65
  -4  26 -10   -0.10    0.21
  -6  26 -10    5.78    0.62
  -8  26 -10    0.91    0.36
 -10  26 -10    5.49    0.61
 -12  26 -10   -0.15    0.24
 -14  26 -10    6.15    0.70
 -16  26 -10   -0.14    0.31
 -18  26 -10    3.15    0.56
 -18 -24  10   -0.14    0.25
 -16 -24  10    0.84    0.34
 -14 -24  10    1.29    0.37
 -12 -24  10    0.08    0.23
  10  24 -10    0.07    0.22
 -10 -24  10   -0.16    0.20
   8  24 -10    0.64    0.29
  -8 -24  10    0.27    0.23
   6  24 -10    0.98    0.33
  -6 -24  10    1.54    0.33
   4  24 -10    0.42    0.28
   2  24 -10    1.33    0.36
   0  24 -10    0.43    0.25
  -2  24 -10    0.65    0.28
  -4  24 -10    0.28    0.24
  -6  24 -10    1.71    0.37
  -8  24 -10    0.55    0.29
 -10  24 -10    0.13    0.26
 -12  24 -10    0.26    0.30
 -14  24 -10    0.78    0.39
 -16  24 -10    0.01    0.30
 -18  24 -10   -0.03    0.28
 -20  24 -10    0.85    0.39
 -22  24 -10    0.22    0.39
 -20 -22  10    0.40    0.32
 -18 -22  10    5.32    0.61
 -16 -22  10    0.36    0.26
 -14 -22  10    6.00    0.59
  12  22 -10    0.28    0.24
 -12 -22  10    0.49    0.27
  10  22 -10   10.91    0.71
 -10 -22  10   11.09    0.71
   8  22 -10    0.34    0.24
  -8 -22  10   -0.01    0.17
   6  22 -10   19.53    0.92
  -6 -22  10   16.96    0.82
   4  22 -10    2.98    0.43
  -4 -22  10    3.63    0.40
   2  22 -10   13.39    0.77
  -2 -22  10   13.99    0.68
   0  22 -10   -0.14    0.18
  -2  22 -10   16.11    0.87
  -4  22 -10    2.35    0.39
  -6  22 -10   16.03    0.87
  -8  22 -10    0.08    0.22
 -10  22 -10   10.70    0.74
 -12  22 -10   -0.02    0.22
 -14  22 -10    6.92    0.64
 -16  22 -10    0.47    0.30
 -18  22 -10    4.31    0.57
 -20  22 -10   -0.04    0.32
 -22  22 -10    6.21    0.68
 -22  22 -10    7.22    0.72
 -24  22 -10    0.21    0.35
 -22 -20  10    0.14    0.26
 -20 -20  10    0.41    0.30
 -18 -20  10   -0.02    0.19
 -16 -20  10   -0.05    0.22
 -14 -20  10    2.43    0.41
  12  20 -10    0.83    0.28
 -12 -20  10    0.49    0.24
  10  20 -10    0.98    0.30
 -10 -20  10    0.78    0.27
   8  20 -10    0.16    0.21
  -8 -20  10    0.28    0.20
   6  20 -10    0.29    0.22
  -6 -20  10    1.11    0.26
   4  20 -10    0.32    0.22
  -4 -20  10    0.36    0.19
   2  20 -10    0.10    0.17
  -2 -20  10    0.04    0.15
   0  20 -10    0.23    0.20
   0 -20  10    0.16    0.15
  -2  20 -10    0.43    0.22
  -4  20 -10    0.52    0.24
  -6  20 -10    0.69    0.28
  -8  20 -10    0.15    0.20
 -10  20 -10    1.62    0.36
 -12  20 -10    0.18    0.24
 -14  20 -10    1.09    0.35
 -16  20 -10    0.47    0.28
 -16  20 -10    0.01    0.27
 -18  20 -10    0.19    0.25
 -18  20 -10   -0.02    0.26
 -20  20 -10    1.21    0.34
 -20  20 -10    0.71    0.36
 -22  20 -10   -0.35    0.26
 -22  20 -10    0.36    0.32
 -24  20 -10    1.27    0.44
 -24 -18  10    0.04    0.24
 -22 -18  10    4.87    0.58
 -20 -18  10   -0.01    0.22
 -18 -18  10    7.94    0.67
 -16 -18  10    0.44    0.24
  14  18 -10   10.43    0.67
 -14 -18  10   11.94    0.72
  12  18 -10    0.16    0.22
 -12 -18  10    0.61    0.23
  10  18 -10   10.01    0.63
 -10 -18  10    9.79    0.62
   8  18 -10    3.34    0.40
  -8 -18  10    3.76    0.40
   6  18 -10   16.71    0.78
  -6 -18  10   15.45    0.72
   4  18 -10    0.72    0.26
  -4 -18  10    1.18    0.24
   2  18 -10   16.87    0.80
  -2 -18  10   17.52    0.71
   0  18 -10    2.46    0.37
   0 -18  10    2.34    0.28
  -2  18 -10   14.91    0.75
   2 -18  10   15.60    0.61
  -4  18 -10    1.50    0.31
  -6  18 -10   14.84    0.76
  -8  18 -10    3.87    0.43
 -10  18 -10    9.35    0.63
 -12  18 -10    0.25    0.24
 -12  18 -10    0.42    0.24
 -14  18 -10   11.33    0.68
 -14  18 -10   11.86    0.74
 -16  18 -10    0.30    0.23
 -16  18 -10    0.92    0.32
 -18  18 -10    8.07    0.66
 -18  18 -10    9.28    0.69
 -20  18 -10   -0.13    0.25
 -20  18 -10   -0.13    0.23
 -22  18 -10    5.78    0.63
 -24  18 -10    0.52    0.34
 -26  18 -10    4.06    0.62
 -24 -16  10    0.44    0.27
 -22 -16  10    0.60    0.28
 -20 -16  10    0.20    0.23
 -18 -16  10    0.07    0.19
 -16 -16  10   -0.24    0.17
  14  16 -10    0.29    0.22
 -14 -16  10   -0.03    0.17
  12  16 -10    0.32    0.22
 -12 -16  10    0.44    0.20
  10  16 -10    0.04    0.17
 -10 -16  10    0.04    0.15
   8  16 -10    0.48    0.21
  -8 -16  10    0.11    0.17
   6  16 -10    0.74    0.23
  -6 -16  10    0.70    0.21
   4  16 -10    0.13    0.17
  -4 -16  10    0.08    0.13
   2  16 -10    3.63    0.37
  -2 -16  10    3.89    0.33
   0  16 -10    0.25    0.19
   0 -16  10    0.02    0.12
  -2  16 -10    4.08    0.40
   2 -16  10    3.80    0.29
  -4  16 -10   -0.03    0.17
   4 -16  10    0.01    0.10
  -6  16 -10    0.90    0.26
  -8  16 -10    0.43    0.21
  -8  16 -10    0.22    0.17
 -10  16 -10   -0.10    0.15
 -10  16 -10   -0.04    0.15
 -12  16 -10    0.31    0.23
 -12  16 -10    0.52    0.24
 -14  16 -10   -0.28    0.20
 -14  16 -10   -0.02    0.20
 -16  16 -10    0.26    0.26
 -16  16 -10    0.54    0.26
 -18  16 -10    0.64    0.27
 -18  16 -10   -0.01    0.25
 -20  16 -10   -0.07    0.25
 -20  16 -10    1.01    0.32
 -22  16 -10    0.78    0.33
 -24  16 -10    0.22    0.32
 -26  16 -10    0.22    0.32
 -28  16 -10    0.16    0.34
 -26 -14  10    4.93    0.58
 -24 -14  10    0.22    0.22
 -22 -14  10    6.78    0.62
 -20 -14  10    1.57    0.35
 -18 -14  10   11.58    0.71
 -16 -14  10   -0.14    0.13
  14  14 -10   14.50    0.72
 -14 -14  10   15.40    0.76
  12  14 -10    1.73    0.30
 -12 -14  10    1.58    0.30
  10  14 -10   11.62    0.62
 -10 -14  10   10.08    0.57
   8  14 -10    0.04    0.16
  -8 -14  10    0.31    0.16
   6  14 -10   21.05    0.81
  -6 -14  10   19.51    0.74
   4  14 -10   12.14    0.60
  -4 -14  10   12.57    0.56
   2  14 -10   17.30    0.73
  -2 -14  10   17.65    0.65
   0  14 -10    9.20    0.52
   0 -14  10    9.27    0.44
  -2  14 -10   17.84    0.74
   2 -14  10   17.62    0.59
  -4  14 -10   14.57    0.68
  -4  14 -10   13.80    0.49
   4 -14  10   13.81    0.50
  -6  14 -10   19.70    0.66
  -6  14 -10   20.26    0.81
   6 -14  10   20.40    0.59
  -8  14 -10   -0.05    0.15
  -8  14 -10   -0.08    0.15
 -10  14 -10   11.26    0.58
 -10  14 -10   10.77    0.61
 -12  14 -10    1.74    0.30
 -12  14 -10    1.61    0.29
 -14  14 -10   15.71    0.75
 -14  14 -10   15.78    0.75
 -16  14 -10    0.44    0.24
 -16  14 -10    0.08    0.20
 -18  14 -10   12.84    0.76
 -18  14 -10   11.36    0.69
 -20  14 -10    1.61    0.38
 -20  14 -10    1.49    0.34
 -22  14 -10    7.50    0.66
 -24  14 -10    0.64    0.34
 -26  14 -10    6.54    0.71
 -28  14 -10    0.13    0.33
 -28 -12  10    0.19    0.28
 -26 -12  10    0.15    0.22
 -24 -12  10    0.28    0.24
 -22 -12  10    0.20    0.20
 -20 -12  10    0.42    0.21
 -18 -12  10    0.14    0.15
 -16 -12  10    0.35    0.18
 -14 -12  10    1.33    0.27
  12  12 -10    0.39    0.19
 -12 -12  10    0.43    0.17
  10  12 -10   19.84    0.78
 -10 -12  10   17.62    0.73
   8  12 -10   -0.01    0.13
  -8 -12  10    0.14    0.13
   6  12 -10   -0.03    0.13
  -6 -12  10    0.04    0.10
   4  12 -10    0.88    0.20
  -4 -12  10    0.77    0.17
   2  12 -10    3.53    0.32
  -2 -12  10    3.50    0.28
   0  12 -10    0.04    0.13
   0 -12  10    0.07    0.09
  -2  12 -10    3.71    0.34
  -2  12 -10    3.69    0.22
   2 -12  10    4.10    0.28
  -4  12 -10    0.91    0.21
  -4  12 -10    1.05    0.16
   4 -12  10    0.92    0.15
  -6  12 -10    0.04    0.10
  -6  12 -10    0.18    0.14
   6 -12  10    0.06    0.08
  -8  12 -10    0.06    0.13
  -8  12 -10   -0.03    0.12
   8 -12  10    0.05    0.08
 -10  12 -10   18.86    0.75
 -10  12 -10   18.48    0.72
 -12  12 -10    0.49    0.21
 -12  12 -10    0.56    0.21
 -14  12 -10    1.83    0.32
 -14  12 -10    2.24    0.31
 -16  12 -10    0.77    0.23
 -16  12 -10    0.28    0.21
 -18  12 -10    0.55    0.25
 -18  12 -10    0.42    0.25
 -20  12 -10    0.36    0.24
 -22  12 -10    0.28    0.26
 -24  12 -10    0.04    0.27
 -26  12 -10    0.49    0.33
 -28  12 -10    0.19    0.31
 -30  12 -10    0.16    0.33
 -30 -10  10    4.96    0.62
 -28 -10  10    0.27    0.26
 -26 -10  10    4.28    0.52
 -24 -10  10    0.20    0.23
 -22 -10  10   11.09    0.71
 -20 -10  10    0.71    0.22
 -18 -10  10   11.55    0.66
 -16 -10  10    0.04    0.14
 -14 -10  10    9.98    0.56
 -12 -10  10   19.78    0.77
  10  10 -10   12.47    0.60
 -10 -10  10   12.61    0.59
   8  10 -10    1.91    0.27
  -8 -10  10    1.79    0.24
   6  10 -10   34.94    0.99
  -6 -10  10   35.18    0.95
   4  10 -10    5.72    0.39
  -4 -10  10    5.56    0.35
   2  10 -10   22.10    0.74
  -2 -10  10   22.96    0.69
   0  10 -10    0.40    0.15
   0 -10  10    0.13    0.09
  -2  10 -10   22.06    0.75
  -2  10 -10   22.52    0.54
   2 -10  10   22.33    0.64
  -4  10 -10    6.05    0.39
  -4  10 -10    5.41    0.29
   4 -10  10    5.76    0.30
  -6  10 -10   36.72    0.89
  -6  10 -10   35.60    1.00
   6 -10  10   35.86    0.80
  -8  10 -10    1.29    0.21
  -8  10 -10    2.04    0.26
   8 -10  10    1.77    0.17
 -10  10 -10   12.42    0.42
 -10  10 -10   13.27    0.58
 -10  10 -10   12.87    0.59
  10 -10  10   11.90    0.41
 -12  10 -10   19.75    0.74
 -12  10 -10   18.01    0.75
 -14  10 -10    9.94    0.55
 -14  10 -10   10.22    0.59
 -16  10 -10   -0.34    0.15
 -16  10 -10   -0.07    0.14
 -18  10 -10   11.03    0.68
 -18  10 -10    9.75    0.57
 -20  10 -10    1.03    0.32
 -22  10 -10   11.56    0.76
 -24  10 -10    0.43    0.28
 -26  10 -10    5.56    0.64
 -28  10 -10   -0.08    0.31
 -30  10 -10    7.25    0.76
 -30  -8  10   -0.02    0.25
 -28  -8  10   -0.22    0.24
 -26  -8  10    0.80    0.29
 -24  -8  10    0.20    0.20
 -22  -8  10    0.09    0.16
 -20  -8  10   -0.11    0.15
 -18  -8  10    3.50    0.38
 -16  -8  10   -0.06    0.13
 -14  -8  10    0.06    0.11
 -12  -8  10    0.19    0.13
 -10  -8  10    1.69    0.23
   8   8 -10    0.80    0.19
  -8  -8  10    0.97    0.19
   6   8 -10    0.17    0.14
  -6  -8  10    0.18    0.11
   4   8 -10    0.08    0.12
  -4  -8  10    0.10    0.09
   2   8 -10   10.45    0.48
  -2  -8  10   10.07    0.43
   0   8 -10    0.01    0.09
   0  -8  10    0.03    0.08
  -2   8 -10   10.09    0.47
  -2   8 -10   10.93    0.35
   2  -8  10   10.22    0.41
  -4   8 -10    0.22    0.10
  -4   8 -10    0.11    0.10
   4  -8  10    0.12    0.08
  -6   8 -10    0.24    0.11
  -6   8 -10    0.29    0.13
   6  -8  10    0.23    0.10
  -8   8 -10    0.58    0.16
  -8   8 -10    0.52    0.16
   8  -8  10    0.52    0.12
 -10   8 -10    1.61    0.23
 -10   8 -10    1.95    0.19
 -10   8 -10    2.11    0.25
  10  -8  10    2.20    0.20
 -12   8 -10    0.07    0.15
 -12   8 -10   -0.07    0.11
  12  -8  10    0.07    0.10
 -14   8 -10    0.03    0.15
 -14   8 -10    0.12    0.15
 -16   8 -10    0.03    0.14
 -16   8 -10   -0.03    0.18
 -18   8 -10    4.27    0.46
 -20   8 -10    0.47    0.24
 -22   8 -10    0.34    0.24
 -24   8 -10    1.20    0.36
 -26   8 -10    1.59    0.39
 -28   8 -10   -0.25    0.23
 -30   8 -10    0.15    0.31
 -28  -6  10    0.09    0.24
 -26  -6  10    4.47    0.50
 -24  -6  10    1.40    0.32
 -22  -6  10   17.20    0.82
 -20  -6  10    0.98    0.26
 -18  -6  10   15.99    0.74
 -16  -6  10    0.50    0.18
 -14  -6  10   20.99    0.78
 -12  -6  10   -0.04    0.09
 -12  -6  10    0.19    0.11
 -10  -6  10   36.09    0.98
 -10  -6  10   36.14    0.77
  -8  -6  10    0.16    0.08
  -8  -6  10    0.25    0.12
   6   6 -10   77.27    1.60
  -6  -6  10   79.88    1.52
   4   6 -10    2.95    0.27
  -4  -6  10    3.18    0.25
   2   6 -10   37.66    0.95
  -2  -6  10   37.51    0.88
   0   6 -10   30.24    0.83
   0  -6  10   31.92    0.78
  -2   6 -10   38.34    0.78
  -2   6 -10   39.49    0.95
   2  -6  10   38.61    0.87
  -4   6 -10    3.13    0.26
  -4   6 -10    3.25    0.22
   4  -6  10    3.90    0.25
  -6   6 -10   77.99    1.51
  -6   6 -10   79.85    1.47
   6  -6  10   75.61    1.38
  -8   6 -10   -0.02    0.09
  -8   6 -10    0.34    0.10
  -8   6 -10    0.24    0.12
   8  -6  10    0.10    0.09
 -10   6 -10   36.91    1.00
 -10   6 -10   38.40    0.95
  10  -6  10   36.79    0.86
 -12   6 -10    0.06    0.15
 -12   6 -10    0.01    0.11
  12  -6  10    0.07    0.09
 -14   6 -10   19.45    0.78
 -14   6 -10   19.66    0.67
  14  -6  10   19.69    0.61
 -16   6 -10    0.35    0.17
 -16   6 -10    0.53    0.23
 -18   6 -10   15.90    0.78
 -20   6 -10    0.41    0.24
 -22   6 -10   18.13    0.93
 -24   6 -10    0.51    0.28
 -26   6 -10    5.27    0.60
 -28   6 -10   -0.01    0.25
 -30   6 -10    4.34    0.63
 -32   6 -10    0.01    0.31
 -26  -4  10    0.34    0.23
 -24  -4  10    0.38    0.21
 -22  -4  10    2.53    0.35
 -20  -4  10    0.41    0.20
 -18  -4  10    0.69    0.21
 -18  -4  10    0.99    0.23
 -16  -4  10   -0.01    0.12
 -16  -4  10   -0.07    0.13
 -14  -4  10   13.08    0.53
 -14  -4  10   13.49    0.59
 -12  -4  10    0.70    0.18
 -12  -4  10    1.29    0.17
 -10  -4  10    5.15    0.28
 -10  -4  10    6.32    0.37
  -8  -4  10    0.13    0.10
  -8  -4  10    0.10    0.08
  -6  -4  10    3.32    0.26
  -6  -4  10    3.66    0.19
   4   4 -10    0.30    0.13
  -4  -4  10    0.35    0.12
  -4  -4  10    0.47    0.08
   2   4 -10    1.81    0.21
  -2  -4  10    2.39    0.21
   0   4 -10    0.09    0.09
   0  -4  10    0.03    0.07
  -2   4 -10    2.18    0.21
  -2   4 -10    2.32    0.18
   2  -4  10    1.97    0.19
  -4   4 -10    0.42    0.13
  -4   4 -10    0.38    0.10
   4  -4  10    0.58    0.13
  -6   4 -10    3.19    0.24
  -6   4 -10    3.54    0.25
   6  -4  10    3.50    0.25
  -8   4 -10    0.17    0.09
  -8   4 -10    0.18    0.11
  -8   4 -10   -0.01    0.09
   8  -4  10    0.18    0.10
 -10   4 -10    5.62    0.33
 -10   4 -10    5.73    0.38
  10  -4  10    5.92    0.31
 -12   4 -10    0.70    0.20
 -12   4 -10    0.97    0.17
  12  -4  10    1.03    0.16
 -14   4 -10   14.32    0.67
 -14   4 -10   13.40    0.51
  14  -4  10   12.93    0.49
 -16   4 -10   -0.01    0.18
  16  -4  10    0.00    0.10
 -18   4 -10    1.42    0.30
 -20   4 -10    0.36    0.21
 -22   4 -10    2.84    0.42
 -24   4 -10    0.22    0.23
 -26   4 -10    0.21    0.21
 -28   4 -10   -0.03    0.29
 -30   4 -10    1.02    0.40
 -32   4 -10    0.01    0.40
 -24  -2  10    1.25    0.30
 -24  -2  10    0.41    0.26
 -22  -2  10   15.44    0.74
 -22  -2  10   14.04    0.74
 -20  -2  10    0.01    0.13
 -20  -2  10    0.32    0.22
 -18  -2  10   15.89    0.70
 -18  -2  10   16.68    0.70
 -16  -2  10    3.73    0.33
 -16  -2  10    3.65    0.33
 -14  -2  10   17.88    0.67
 -14  -2  10   17.20    0.63
 -12  -2  10    2.91    0.27
 -12  -2  10    3.57    0.28
 -10  -2  10   22.49    0.63
 -10  -2  10   21.37    0.69
  -8  -2  10   10.07    0.45
  -8  -2  10   10.48    0.38
  -6  -2  10   38.29    0.80
  -6  -2  10   38.74    0.91
  -4  -2  10    1.71    0.19
  -4  -2  10    2.67    0.18
  -2  -2  10   41.14    0.93
   0   2 -10   21.77    0.65
   0  -2  10   21.23    0.61
  -2   2 -10   42.95    0.95
  -2   2 -10   41.96    0.89
   2  -2  10   41.85    0.94
  -4   2 -10    2.16    0.19
  -4   2 -10    2.53    0.21
   4  -2  10    2.45    0.21
  -6   2 -10   37.74    0.91
  -6   2 -10   39.42    0.88
  -6   2 -10   40.07    0.88
   6  -2  10   38.75    0.88
  -8   2 -10   10.91    0.42
  -8   2 -10   11.23    0.48
  -8   2 -10   11.25    0.43
   8  -2  10   10.30    0.42
 -10   2 -10   22.04    0.60
 -10   2 -10   21.29    0.72
  10  -2  10   20.35    0.61
 -12   2 -10    3.78    0.26
 -12   2 -10    3.55    0.33
  12  -2  10    3.85    0.27
 -14   2 -10   16.01    0.70
  14  -2  10   16.71    0.57
 -16   2 -10    4.11    0.41
  16  -2  10    4.04    0.30
 -18   2 -10   15.31    0.77
  18  -2  10   16.25    0.62
 -20   2 -10    0.27    0.23
 -22   2 -10   13.27    0.78
 -24   2 -10    1.38    0.37
 -26   2 -10    5.91    0.63
 -28   2 -10    0.09    0.32
 -30   2 -10    7.74    0.78
 -32   2 -10   -0.14    0.31
 -28   0  10    0.53    0.28
 -26   0  10    1.70    0.39
 -24   0  10   -0.10    0.19
 -24   0  10    0.04    0.23
 -22   0  10   -0.05    0.20
 -22   0  10    0.47    0.20
 -20   0  10   -0.10    0.17
 -20   0  10    0.18    0.15
 -18   0  10    2.97    0.31
 -18   0  10    2.09    0.29
 -16   0  10   -0.03    0.14
 -16   0  10    0.00    0.12
 -14   0  10    9.04    0.46
 -14   0  10    9.25    0.48
 -12   0  10    0.18    0.10
 -12   0  10   -0.06    0.08
 -10   0  10    0.20    0.12
 -10   0  10    0.22    0.11
  -8   0  10    0.02    0.08
  -8   0  10   -0.07    0.08
  -6   0  10   30.88    0.79
  -6   0  10   29.84    0.74
  -4   0  10    0.03    0.07
  -2   0  10   20.77    0.61
   0   0  10    0.07    0.08
   2   0  10   21.99    0.63
  -4   0 -10   -0.01    0.07
  -4   0 -10    0.08    0.07
   4   0  10    0.13    0.08
  -6   0 -10   30.87    0.76
  -6   0 -10   29.26    0.71
  -6   0 -10   29.96    0.80
   6   0  10   31.07    0.77
  -8   0 -10   -0.02    0.09
  -8   0 -10    0.08    0.09
   8   0  10    0.23    0.10
 -10   0 -10    0.20    0.10
 -10   0 -10    0.19    0.12
  10   0  10    0.14    0.09
 -12   0 -10    0.06    0.09
 -12   0 -10    0.03    0.12
  12   0  10    0.05    0.09
 -14   0 -10    8.22    0.50
  14   0  10    8.47    0.42
 -16   0 -10    0.03    0.16
  16   0  10    0.01    0.10
 -18   0 -10    2.05    0.32
  18   0  10    1.79    0.25
 -20   0 -10   -0.19    0.19
  20   0  10    0.27    0.17
 -22   0 -10    0.30    0.23
 -24   0 -10   -0.05    0.22
 -26   0 -10    1.60    0.40
 -28   0 -10    0.15    0.31
 -30   0 -10    0.00    0.32
 -32   0 -10    0.63    0.38
 -30   2  10    7.87    0.74
 -28   2  10    0.36    0.31
 -26   2  10    6.72    0.62
 -24   2  10    0.70    0.30
 -22   2  10   13.74    0.67
 -22   2  10   15.29    0.80
 -20   2  10    0.13    0.20
 -20   2  10    0.29    0.16
 -18   2  10   14.81    0.71
 -18   2  10   15.36    0.65
 -16   2  10    4.11    0.37
 -16   2  10    4.03    0.33
 -14   2  10   19.21    0.71
 -14   2  10   17.59    0.64
 -12   2  10    3.68    0.31
 -12   2  10    3.49    0.28
 -10   2  10   23.90    0.73
 -10   2  10   22.52    0.69
  -8   2  10   10.79    0.45
  -8   2  10   10.65    0.45
  -6   2  10   38.19    0.91
  -6   2  10   39.26    0.93
  -4   2  10    2.43    0.22
  -2   2  10   43.07    0.97
   0   2  10   21.68    0.63
   2   2  10   40.47    0.92
  -4  -2 -10    2.39    0.21
   4   2  10    2.17    0.21
  -6  -2 -10   36.98    0.94
   6   2  10   38.37    0.89
  -8  -2 -10   10.80    0.49
   8   2  10   10.72    0.44
 -10  -2 -10   21.97    0.74
  10   2  10   21.38    0.66
 -12  -2 -10    3.37    0.33
  12   2  10    3.97    0.30
 -14  -2 -10   17.92    0.74
  14   2  10   17.33    0.65
 -16  -2 -10    3.74    0.39
  16   2  10    4.09    0.34
 -18  -2 -10   15.29    0.76
  18   2  10   16.19    0.66
 -20  -2 -10   -0.17    0.18
  20   2  10   -0.09    0.15
 -22  -2 -10   13.20    0.80
  22   2  10   13.74    0.67
 -24  -2 -10    0.82    0.33
 -26  -2 -10    6.75    0.65
 -28  -2 -10    0.16    0.29
 -30  -2 -10    8.06    0.81
 -32  -2 -10    0.10    0.35
 -32   4  10    0.05    0.37
 -30   4  10    1.39    0.46
 -28   4  10    0.20    0.32
 -26   4  10    0.59    0.33
 -24   4  10    0.32    0.29
 -22   4  10    2.54    0.39
 -20   4  10    0.26    0.17
 -20   4  10    0.18    0.22
 -18   4  10    0.96    0.26
 -18   4  10    1.10    0.21
 -16   4  10    0.11    0.14
 -16   4  10   -0.08    0.14
 -14   4  10   13.55    0.62
 -14   4  10   14.00    0.55
 -12   4  10    0.76    0.19
 -12   4  10    1.02    0.18
 -10   4  10    6.46    0.35
 -10   4  10    5.71    0.38
  -8   4  10    0.06    0.09
  -8   4  10    0.21    0.12
  -6   4  10    3.65    0.29
  -6   4  10    3.75    0.27
  -4   4  10    0.29    0.11
  -2   4  10    2.13    0.21
   0   4  10    0.20    0.09
  -2  -4 -10    1.86    0.19
   2   4  10    2.06    0.20
  -4  -4 -10    0.34    0.11
   4   4  10    0.28    0.10
   6   4  10    3.40    0.25
  -8  -4 -10    0.20    0.11
   8   4  10    0.02    0.07
 -10  -4 -10    4.92    0.36
  10   4  10    5.10    0.33
 -12  -4 -10    0.84    0.21
  12   4  10    1.18    0.19
 -14  -4 -10   14.25    0.67
  14   4  10   13.48    0.58
 -16  -4 -10    0.10    0.16
  16   4  10    0.01    0.13
 -18  -4 -10    1.33    0.24
 -18  -4 -10    1.61    0.32
  18   4  10    1.48    0.25
 -20  -4 -10    0.30    0.18
 -20  -4 -10    0.54    0.27
  20   4  10    0.26    0.18
 -22  -4 -10    2.89    0.44
 -22  -4 -10    3.02    0.36
  22   4  10    3.07    0.36
 -24  -4 -10    0.26    0.21
 -24  -4 -10    0.52    0.31
  24   4  10   -0.10    0.15
 -26  -4 -10    0.32    0.30
 -28  -4 -10    0.19    0.30
 -30  -4 -10    0.94    0.40
 -32  -4 -10   -0.32    0.32
 -32   6  10    0.14    0.39
 -30   6  10    4.89    0.63
 -28   6  10    0.35    0.32
 -26   6  10    4.82    0.59
 -24   6  10    1.03    0.34
 -22   6  10   18.27    0.90
 -20   6  10    1.01    0.30
 -18   6  10   16.95    0.79
 -16   6  10    0.29    0.15
 -16   6  10    0.54    0.21
 -14   6  10   21.78    0.83
 -14   6  10   20.28    0.67
 -12   6  10    0.09    0.13
 -12   6  10    0.12    0.11
 -10   6  10   35.49    1.00
 -10   6  10   35.70    0.88
  -8   6  10    0.10    0.10
  -8   6  10    0.19    0.11
  -6   6  10   74.40    1.58
  -6   6  10   80.99    1.47
  -4   6  10    3.67    0.26
  -2   6  10   39.73    0.93
   0  -6 -10   31.56    0.79
   0   6  10   29.98    0.78
  -2  -6 -10   38.85    0.92
   2   6  10   37.71    0.90
   4   6  10    3.23    0.25
   6   6  10   75.81    1.47
  -8  -6 -10    0.19    0.12
   8   6  10    0.10    0.09
 -10  -6 -10   35.82    1.06
  10   6  10   37.62    0.99
 -12  -6 -10    0.04    0.12
  12   6  10    0.01    0.10
 -14  -6 -10   18.98    0.72
 -14  -6 -10   18.59    0.79
  14   6  10   19.61    0.72
 -16  -6 -10    0.96    0.22
 -16  -6 -10    0.24    0.18
 -18  -6 -10   14.72    0.68
 -18  -6 -10   16.32    0.80
 -20  -6 -10    0.84    0.29
 -20  -6 -10    0.36    0.19
 -22  -6 -10   18.85    0.95
 -22  -6 -10   17.29    0.80
 -24  -6 -10    1.53    0.31
 -24  -6 -10    1.59    0.40
 -26  -6 -10    5.07    0.51
 -26  -6 -10    6.88    0.69
 -28  -6 -10    0.21    0.32
 -30  -6 -10    4.58    0.63
 -32  -6 -10    0.02    0.36
 -30   8  10    0.59    0.40
 -28   8  10    0.24    0.32
 -26   8  10    1.60    0.44
 -24   8  10    0.40    0.28
 -22   8  10    0.34    0.26
 -20   8  10    0.24    0.23
 -18   8  10    3.03    0.40
 -16   8  10    0.05    0.16
 -14   8  10   -0.10    0.14
 -14   8  10    0.11    0.12
 -12   8  10    0.21    0.15
 -12   8  10    0.08    0.11
 -10   8  10    1.72    0.20
 -10   8  10    2.04    0.28
  -8   8  10    0.46    0.14
  -8   8  10    0.61    0.19
  -6   8  10    0.13    0.12
  -6   8  10   -0.01    0.09
   4  -8 -10    0.02    0.09
  -4   8  10    0.27    0.11
  -4   8  10   -0.01    0.10
   2  -8 -10   10.43    0.43
  -2   8  10    9.39    0.42
   0  -8 -10   -0.05    0.08
   0   8  10    0.00    0.08
   2   8  10   11.46    0.47
   4   8  10    0.15    0.10
   6   8  10    0.18    0.11
   8   8  10    0.72    0.17
  10   8  10    1.36    0.21
 -12  -8 -10    0.24    0.13
 -12  -8 -10    0.12    0.15
  12   8  10    0.15    0.12
 -14  -8 -10    0.28    0.18
 -14  -8 -10    0.05    0.11
 -16  -8 -10    0.21    0.19
 -16  -8 -10    0.29    0.16
 -18  -8 -10    3.37    0.43
 -18  -8 -10    4.02    0.39
 -20  -8 -10    0.10    0.18
 -20  -8 -10    0.30    0.23
 -22  -8 -10    0.00    0.21
 -22  -8 -10   -0.01    0.17
 -24  -8 -10    0.48    0.25
 -24  -8 -10    0.89    0.33
 -26  -8 -10    1.06    0.38
 -26  -8 -10    1.06    0.31
 -28  -8 -10    0.30    0.35
 -28  -8 -10   -0.20    0.24
 -30  -8 -10   -0.05    0.32
 -30  10  10    4.99    0.71
 -28  10  10    0.08    0.29
 -26  10  10    4.80    0.61
 -24  10  10   -0.26    0.26
 -22  10  10    9.96    0.73
 -20  10  10    0.97    0.29
 -18  10  10   10.00    0.67
 -16  10  10    0.03    0.16
 -14  10  10    9.94    0.60
 -12  10  10   18.75    0.80
 -12  10  10   20.21    0.64
 -10  10  10   11.63    0.61
 -10  10  10   12.91    0.50
  -8  10  10    1.79    0.21
  -8  10  10    2.13    0.29
   6 -10 -10   36.21    0.89
  -6  10  10   35.90    0.90
  -6  10  10   36.16    1.07
   4 -10 -10    6.13    0.34
  -4  10  10    5.49    0.41
  -4  10  10    5.79    0.34
  -2  10  10   24.05    0.71
   0  10  10    0.22    0.11
   2  10  10   21.23    0.68
   4  10  10    5.87    0.36
   6  10  10   37.44    1.01
   8  10  10    1.53    0.23
 -10 -10 -10   10.92    0.54
  10  10  10   11.74    0.56
 -12 -10 -10   21.16    0.80
 -14 -10 -10   11.10    0.60
 -14 -10 -10   10.87    0.63
 -16 -10 -10    0.04    0.12
 -16 -10 -10    0.30    0.18
 -18 -10 -10    9.55    0.66
 -18 -10 -10   10.57    0.61
 -20 -10 -10    0.53    0.23
 -20 -10 -10    0.79    0.32
 -22 -10 -10   10.66    0.67
 -22 -10 -10   11.63    0.78
 -24 -10 -10   -0.05    0.21
 -24 -10 -10    0.31    0.26
 -26 -10 -10    4.50    0.60
 -28 -10 -10    0.03    0.30
 -28 -10 -10    0.34    0.25
 -30 -10 -10    5.87    0.62
 -30 -10 -10    4.13    0.64
 -30  12  10    1.13    0.48
 -28  12  10    0.24    0.35
 -26  12  10    0.14    0.27
 -24  12  10    0.73    0.33
 -22  12  10    0.29    0.27
 -20  12  10    0.51    0.31
 -18  12  10    0.25    0.22
 -16  12  10    0.47    0.23
 -14  12  10    1.84    0.34
 -12  12  10    0.44    0.20
  10 -12 -10   18.92    0.62
 -10  12  10   21.71    0.66
 -10  12  10   19.05    0.82
   8 -12 -10    0.01    0.10
  -8  12  10    0.28    0.12
  -8  12  10    0.23    0.16
   6 -12 -10    0.02    0.11
  -6  12  10    0.01    0.09
  -6  12  10    0.16    0.14
  -4  12  10    0.95    0.17
  -4  12  10    0.52    0.19
  -2  12  10    4.15    0.31
   0  12  10    0.10    0.11
   2  12  10    4.77    0.34
   4  12  10    1.22    0.21
   6  12  10    0.11    0.12
   8  12  10    0.02    0.10
 -10 -12 -10   19.01    0.76
 -12 -12 -10    0.19    0.15
 -14 -12 -10    1.82    0.29
 -16 -12 -10    0.50    0.22
 -18 -12 -10    0.27    0.21
 -18 -12 -10    0.45    0.21
 -20 -12 -10    0.50    0.28
 -20 -12 -10    0.49    0.23
 -22 -12 -10    0.59    0.29
 -22 -12 -10    0.26    0.24
 -24 -12 -10    0.06    0.22
 -24 -12 -10    0.70    0.32
 -26 -12 -10    0.11    0.24
 -26 -12 -10    0.05    0.27
 -28 -12 -10    0.23    0.25
 -28 -12 -10    0.11    0.35
 -30 -12 -10    1.04    0.46
 -28  14  10    0.33    0.38
 -26  14  10    5.06    0.65
 -24  14  10    0.84    0.36
 -22  14  10    6.69    0.67
 -20  14  10    2.13    0.44
 -18  14  10   12.50    0.79
 -16  14  10   -0.07    0.20
 -14  14  10   15.85    0.82
 -12  14  10    1.53    0.32
 -10  14  10    9.36    0.61
  -8  14  10    0.10    0.12
  -8  14  10    0.04    0.14
  -6  14  10   20.09    0.68
  -6  14  10   19.82    0.83
  -4  14  10   13.38    0.55
  -4  14  10   15.24    0.71
  -2  14  10   16.68    0.62
   0  14  10    9.14    0.46
   2  14  10   17.94    0.68
   4  14  10   14.62    0.63
   6  14  10   19.86    0.75
  -8 -14 -10    0.08    0.14
   8  14  10   -0.07    0.11
 -10 -14 -10   11.55    0.62
 -12 -14 -10    1.03    0.26
 -14 -14 -10   13.79    0.71
 -16 -14 -10    0.11    0.17
 -18 -14 -10   11.93    0.70
 -20 -14 -10    1.45    0.32
 -22 -14 -10    6.31    0.58
 -22 -14 -10    8.49    0.72
 -24 -14 -10    0.69    0.34
 -24 -14 -10    0.62    0.28
 -26 -14 -10    4.68    0.56
 -26 -14 -10    5.70    0.67
 -28 -14 -10    0.12    0.34
 -28  16  10    0.47    0.38
 -26  16  10   -0.04    0.32
 -24  16  10    0.50    0.33
 -22  16  10    0.32    0.29
 -20  16  10    0.13    0.25
 -18  16  10    0.35    0.29
 -16  16  10    0.35    0.22
 -14  16  10    0.09    0.19
 -12  16  10    0.39    0.20
 -10  16  10    0.19    0.16
  -8  16  10   -0.12    0.14
  -6  16  10    0.49    0.21
  -6  16  10    0.41    0.16
  -4  16  10    0.15    0.13
  -4  16  10   -0.14    0.14
  -2  16  10    3.58    0.39
  -2  16  10    4.21    0.33
   0  16  10    0.21    0.13
   2  16  10    3.71    0.34
   4  16  10   -0.02    0.13
   6  16  10    0.76    0.20
  -8 -16 -10   -0.01    0.16
   8  16  10   -0.01    0.12
 -10 -16 -10    0.00    0.16
 -12 -16 -10    0.22    0.18
 -14 -16 -10    0.29    0.19
 -16 -16 -10   -0.01    0.18
 -18 -16 -10   -0.16    0.16
 -20 -16 -10    0.12    0.23
 -22 -16 -10    0.38    0.24
 -24 -16 -10    0.25    0.25
 -26 -16 -10    0.36    0.29
 -26  18  10    4.34    0.66
 -24  18  10    0.16    0.32
 -22  18  10    5.38    0.66
 -20  18  10    0.01    0.20
 -18  18  10    8.31    0.70
 -16  18  10    0.35    0.22
 -14  18  10   12.13    0.77
 -12  18  10    0.41    0.21
 -10  18  10    9.64    0.65
  -8  18  10    3.03    0.39
  -6  18  10   17.69    0.83
  -4  18  10    0.88    0.21
  -4  18  10    0.69    0.25
  -2  18  10   15.84    0.66
  -2  18  10   15.87    0.78
   0  18  10    2.51    0.30
   2  18  10   14.92    0.66
   4  18  10    1.44    0.26
   6  18  10   15.73    0.72
  -8 -18 -10    3.22    0.37
   8  18  10    3.72    0.38
 -10 -18 -10    9.02    0.59
 -12 -18 -10    0.40    0.22
 -14 -18 -10   10.29    0.67
 -16 -18 -10    0.23    0.21
 -18 -18 -10    8.69    0.64
 -20 -18 -10    0.07    0.19
 -22 -18 -10    5.02    0.57
 -24 -18 -10   -0.25    0.22
 -24  20  10    0.91    0.40
 -22  20  10    0.14    0.26
 -20  20  10    0.21    0.25
 -18  20  10   -0.11    0.22
 -16  20  10    0.32    0.27
 -14  20  10    1.11    0.32
 -12  20  10    0.28    0.24
 -10  20  10    0.92    0.31
  -8  20  10    0.04    0.18
  -6  20  10    0.83    0.26
  -4  20  10    0.33    0.22
  -2  20  10    0.28    0.21
  -2  20  10    0.06    0.14
   0  20  10   -0.23    0.17
   0  20  10   -0.02    0.14
   2  20  10    0.05    0.14
   4  20  10    0.23    0.18
   6  20  10    0.44    0.19
  -8 -20 -10    0.18    0.21
   8  20  10    0.18    0.18
 -10 -20 -10    0.89    0.29
 -12 -20 -10    0.40    0.25
 -14 -20 -10    0.87    0.29
 -16 -20 -10    0.29    0.28
 -18 -20 -10    0.06    0.24
 -20 -20 -10    0.50    0.28
 -22 -20 -10    0.26    0.24
 -24  22  10    0.46    0.38
 -22  22  10    6.16    0.72
 -20  22  10   -0.19    0.20
 -18  22  10    4.75    0.59
 -16  22  10    0.29    0.26
 -14  22  10    7.70    0.68
 -12  22  10    0.23    0.23
 -10  22  10   13.48    0.82
  -8  22  10   -0.01    0.18
  -6  22  10   19.35    0.93
  -4  22  10    2.99    0.42
  -2  22  10   14.53    0.80
   0  22  10    0.29    0.19
   0  22  10    0.58    0.25
   2  22  10   15.44    0.73
   4  22  10    3.23    0.39
   6  22  10   16.09    0.78
   8  22  10   -0.14    0.15
 -10 -22 -10   12.52    0.74
 -12 -22 -10    0.62    0.27
 -14 -22 -10    7.46    0.64
 -16 -22 -10    0.47    0.28
 -18 -22 -10    5.26    0.60
 -20 -22 -10   -0.20    0.26
 -22  24  10    0.05    0.32
 -20  24  10    0.61    0.33
 -18  24  10    0.21    0.24
 -16  24  10    0.94    0.37
 -14  24  10    0.95    0.37
 -12  24  10   -0.06    0.22
 -10  24  10    0.17    0.23
  -8  24  10    0.12    0.23
  -6  24  10    0.75    0.29
  -4  24  10    0.24    0.24
  -2  24  10    0.51    0.25
   0  24  10   -0.01    0.18
   2  24  10    1.05    0.27
   2  24  10    0.94    0.31
   4  24  10    0.11    0.17
   6  24  10    1.08    0.29
   8  24  10    0.77    0.25
 -10 -24 -10   -0.24    0.19
  10  24  10    0.12    0.18
 -12 -24 -10    0.36    0.26
 -14 -24 -10    1.10    0.36
 -16 -24 -10    0.07    0.28
 -18 -24 -10   -0.09    0.26
 -18  26  10    4.14    0.60
 -16  26  10    0.25    0.31
 -14  26  10    6.22    0.68
 -12  26  10    0.13    0.26
 -10  26  10    5.17    0.58
  -8  26  10    1.82    0.40
  -6  26  10    5.93    0.59
  -4  26  10    0.28    0.24
  -2  26  10    7.44    0.64
   0  26  10    1.70    0.37
   2  26  10    6.82    0.60
   4  26  10    0.20    0.23
   4  26  10    0.48    0.24
   6  26  10    5.82    0.54
   8  26  10    1.13    0.29
  10  26  10    4.81    0.52
 -12 -26 -10    0.14    0.26
  12  26  10   -0.04    0.18
 -14 -26 -10    7.60    0.71
 -16 -26 -10    0.31    0.35
 -16  28  10    0.35    0.34
 -14  28  10    0.01    0.28
 -12  28  10    0.01    0.28
 -10  28  10   -0.11    0.26
  -8  28  10    0.11    0.27
  -6  28  10    0.01    0.24
  -4  28  10   -0.27    0.18
  -2  28  10    0.36    0.26
   0  28  10    0.06    0.22
   2  28  10    0.28    0.29
   4  28  10    0.34    0.25
   8  28  10    0.03    0.21
  10  28  10    0.35    0.24
  12  28  10   -0.08    0.20
 -12  30  10    0.52    0.32
 -10  30  10    6.33    0.69
  -8  30  10    0.48    0.32
  -6  30  10    4.65    0.58
  -4  30  10    1.62    0.42
  -2  30  10    6.91    0.66
  10  30  10    5.85    0.62
  -6  32  10   -0.03    0.32
   7  31 -11    0.01    0.31
   5  31 -11   -0.01    0.29
   3  31 -11   -0.02    0.30
   1  31 -11    0.01    0.30
  -1  31 -11   -0.04    0.29
  -3  31 -11    0.19    0.32
  -5  31 -11   -0.09    0.25
  -7  31 -11    0.22    0.27
  -9  31 -11    0.34    0.35
   9  29 -11    0.13    0.32
   7  29 -11    0.02    0.29
   5  29 -11    0.30    0.29
   3  29 -11   -0.39    0.26
   1  29 -11    0.38    0.31
  -1  29 -11    0.02    0.27
  -3  29 -11   -0.06    0.29
  -5  29 -11    0.22    0.30
  -7  29 -11    0.21    0.25
  -9  29 -11    0.17    0.33
 -11  29 -11    0.19    0.34
 -13  29 -11   -0.11    0.29
 -15 -27  11    0.06    0.30
 -13 -27  11   -0.15    0.29
 -11 -27  11    0.21    0.29
   9  27 -11   -0.23    0.23
  -9 -27  11   -0.01    0.25
   7  27 -11    0.09    0.28
   5  27 -11   -0.18    0.23
   3  27 -11   -0.17    0.23
   1  27 -11    0.21    0.29
  -1  27 -11   -0.25    0.23
  -3  27 -11   -0.40    0.21
  -5  27 -11   -0.12    0.24
  -7  27 -11   -0.10    0.23
  -9  27 -11    0.01    0.27
 -11  27 -11   -0.24    0.30
 -13  27 -11   -0.06    0.29
 -15  27 -11   -0.03    0.34
 -17  27 -11    0.54    0.38
 -17 -25  11   -0.21    0.27
 -15 -25  11    0.41    0.33
 -13 -25  11   -0.15    0.22
  11  25 -11   -0.27    0.25
 -11 -25  11    0.02    0.23
   9  25 -11    0.04    0.25
  -9 -25  11   -0.05    0.23
   7  25 -11   -0.18    0.22
  -7 -25  11   -0.03    0.23
   5  25 -11   -0.14    0.23
   3  25 -11   -0.09    0.23
   1  25 -11    0.11    0.21
  -1  25 -11    0.04    0.23
  -3  25 -11    0.03    0.23
  -5  25 -11    0.17    0.24
  -7  25 -11    0.22    0.29
  -9  25 -11    0.04    0.26
 -11  25 -11    0.33    0.31
 -13  25 -11   -0.14    0.31
 -15  25 -11    0.69    0.35
 -17  25 -11   -0.05    0.33
 -19  25 -11    0.24    0.34
 -19 -23  11    0.16    0.31
 -17 -23  11    0.30    0.28
 -15 -23  11    0.07    0.26
 -13 -23  11   -0.22    0.20
  11  23 -11    0.12    0.24
 -11 -23  11   -0.13    0.19
   9  23 -11   -0.08    0.22
  -9 -23  11   -0.02    0.18
   7  23 -11    0.24    0.22
  -7 -23  11   -0.17    0.16
   5  23 -11    0.23    0.24
  -5 -23  11    0.16    0.20
   3  23 -11    0.10    0.22
   1  23 -11   -0.20    0.19
  -1  23 -11    0.05    0.23
  -3  23 -11   -0.16    0.18
  -5  23 -11    0.30    0.23
  -7  23 -11   -0.25    0.22
  -9  23 -11    0.22    0.28
 -11  23 -11    0.11    0.26
 -13  23 -11    0.14    0.26
 -15  23 -11    0.32    0.28
 -17  23 -11    0.27    0.27
 -19  23 -11   -0.10    0.27
 -21  23 -11    0.20    0.33
 -21 -21  11    0.16    0.30
 -19 -21  11    0.58    0.30
 -17 -21  11    0.04    0.23
 -15 -21  11    0.58    0.29
  13  21 -11    0.00    0.20
 -13 -21  11    0.03    0.22
  11  21 -11    0.12    0.25
 -11 -21  11    0.00    0.19
   9  21 -11    0.98    0.30
  -9 -21  11    0.92    0.29
   7  21 -11    2.03    0.35
  -7 -21  11    1.66    0.32
   5  21 -11    0.06    0.22
  -5 -21  11    0.20    0.17
   3  21 -11    0.45    0.25
  -3 -21  11    1.06    0.26
   1  21 -11    0.40    0.24
  -1 -21  11    0.27    0.20
  -1  21 -11    0.33    0.23
  -3  21 -11    1.17    0.30
  -5  21 -11   -0.06    0.22
  -7  21 -11    1.16    0.33
  -9  21 -11    0.76    0.32
 -11  21 -11    0.01    0.21
 -13  21 -11   -0.03    0.24
 -15  21 -11    0.53    0.30
 -17  21 -11    0.05    0.27
 -19  21 -11   -0.12    0.27
 -21  21 -11   -0.17    0.30
 -21  21 -11    0.26    0.33
 -23  21 -11    0.26    0.35
 -23 -19  11   -0.16    0.20
 -21 -19  11    0.03    0.24
 -19 -19  11    0.17    0.25
 -17 -19  11    0.06    0.22
 -15 -19  11    0.10    0.22
  13  19 -11    0.02    0.21
 -13 -19  11   -0.26    0.16
  11  19 -11   -0.05    0.19
 -11 -19  11   -0.04    0.14
   9  19 -11    0.25    0.22
  -9 -19  11    0.54    0.23
   7  19 -11    0.04    0.20
  -7 -19  11   -0.10    0.13
   5  19 -11   -0.34    0.16
  -5 -19  11    0.08    0.15
   3  19 -11    0.41    0.21
  -3 -19  11   -0.07    0.14
   1  19 -11    1.73    0.33
  -1 -19  11    1.52    0.27
  -1  19 -11    2.08    0.36
   1 -19  11    1.76    0.27
  -3  19 -11    0.18    0.22
  -5  19 -11    0.00    0.18
  -7  19 -11   -0.22    0.17
  -9  19 -11   -0.01    0.21
 -11  19 -11    0.08    0.22
 -13  19 -11    0.13    0.23
 -15  19 -11   -0.01    0.22
 -15  19 -11    0.07    0.24
 -17  19 -11   -0.19    0.22
 -17  19 -11    0.25    0.28
 -19  19 -11    0.01    0.25
 -19  19 -11    0.01    0.23
 -21  19 -11   -0.33    0.26
 -21  19 -11    0.68    0.33
 -23  19 -11    0.16    0.30
 -25  19 -11    0.25    0.34
 -23 -17  11   -0.17    0.20
 -21 -17  11   -0.03    0.21
 -19 -17  11   -0.12    0.19
 -17 -17  11   -0.16    0.18
  15  17 -11    1.28    0.33
 -15 -17  11    0.88    0.27
  13  17 -11    0.75    0.28
 -13 -17  11    0.65    0.24
  11  17 -11   -0.39    0.17
 -11 -17  11   -0.07    0.15
   9  17 -11    0.01    0.19
  -9 -17  11    0.03    0.16
   7  17 -11    0.05    0.19
  -7 -17  11    0.14    0.16
   5  17 -11    0.01    0.19
  -5 -17  11   -0.08    0.12
   3  17 -11    0.49    0.24
  -3 -17  11    0.47    0.19
   1  17 -11    0.20    0.20
  -1 -17  11   -0.15    0.13
  -1  17 -11    0.28    0.20
   1 -17  11    0.02    0.11
  -3  17 -11    0.64    0.23
   3 -17  11    0.32    0.15
  -5  17 -11   -0.08    0.18
  -7  17 -11    0.09    0.21
  -9  17 -11   -0.05    0.17
 -11  17 -11    0.13    0.18
 -11  17 -11    0.08    0.19
 -13  17 -11    1.33    0.32
 -13  17 -11    0.55    0.25
 -15  17 -11    0.85    0.29
 -15  17 -11    0.54    0.27
 -17  17 -11    0.29    0.26
 -17  17 -11   -0.18    0.22
 -19  17 -11   -0.41    0.22
 -19  17 -11    0.14    0.23
 -21  17 -11   -0.27    0.25
 -23  17 -11    0.66    0.33
 -25  17 -11    0.05    0.32
 -27  17 -11    0.25    0.34
 -25 -15  11    0.73    0.31
 -23 -15  11    0.00    0.18
 -21 -15  11    0.73    0.27
 -19 -15  11    0.14    0.17
 -17 -15  11    0.28    0.22
  15  15 -11   -0.17    0.19
 -15 -15  11   -0.09    0.15
  13  15 -11    0.47    0.23
 -13 -15  11    0.91    0.27
  11  15 -11    0.12    0.20
 -11 -15  11   -0.04    0.14
   9  15 -11    0.12    0.18
  -9 -15  11    0.20    0.17
   7  15 -11   -0.02    0.17
  -7 -15  11   -0.12    0.11
   5  15 -11    1.12    0.26
  -5 -15  11    0.86    0.21
   3  15 -11    0.11    0.18
  -3 -15  11    0.11    0.12
   1  15 -11    1.47    0.28
  -1 -15  11    1.45    0.22
  -1  15 -11    1.30    0.26
   1 -15  11    1.16    0.19
  -3  15 -11    0.02    0.15
   3 -15  11    0.01    0.09
  -5  15 -11    1.04    0.27
   5 -15  11    1.09    0.18
  -7  15 -11   -0.08    0.15
  -7  15 -11   -0.07    0.13
  -9  15 -11    0.05    0.16
  -9  15 -11   -0.04    0.18
 -11  15 -11    0.07    0.17
 -11  15 -11    0.23    0.20
 -13  15 -11    0.43    0.24
 -13  15 -11    0.19    0.22
 -15  15 -11    0.11    0.20
 -15  15 -11   -0.07    0.20
 -17  15 -11    1.06    0.31
 -17  15 -11    1.46    0.34
 -19  15 -11    0.17    0.25
 -19  15 -11    0.43    0.28
 -21  15 -11    0.48    0.31
 -23  15 -11    0.23    0.28
 -25  15 -11    0.56    0.37
 -27  15 -11    0.62    0.35
 -27 -13  11    0.23    0.26
 -25 -13  11    0.05    0.19
 -23 -13  11    0.13    0.22
 -21 -13  11   -0.04    0.18
 -19 -13  11    0.13    0.17
 -17 -13  11    1.03    0.28
 -15 -13  11    0.40    0.19
  13  13 -11    0.10    0.20
 -13 -13  11   -0.04    0.14
  11  13 -11    0.06    0.18
 -11 -13  11    0.07    0.14
   9  13 -11    0.17    0.16
  -9 -13  11    0.25    0.18
   7  13 -11    0.17    0.17
  -7 -13  11    0.12    0.14
   5  13 -11    2.20    0.29
  -5 -13  11    2.56    0.28
   3  13 -11    2.19    0.29
  -3 -13  11    2.53    0.26
   1  13 -11   -0.05    0.12
  -1 -13  11   -0.18    0.09
  -1  13 -11    0.00    0.12
   1 -13  11   -0.01    0.09
  -3  13 -11    2.13    0.29
   3 -13  11    2.53    0.24
  -5  13 -11    2.98    0.25
  -5  13 -11    2.15    0.30
   5 -13  11    2.50    0.22
  -7  13 -11    0.25    0.18
  -7  13 -11   -0.05    0.14
   7 -13  11    0.24    0.11
  -9  13 -11    0.10    0.15
  -9  13 -11    0.46    0.18
 -11  13 -11    0.06    0.16
 -11  13 -11   -0.14    0.16
 -13  13 -11   -0.12    0.17
 -13  13 -11    0.14    0.17
 -15  13 -11    0.38    0.23
 -15  13 -11    0.28    0.24
 -17  13 -11    0.84    0.30
 -17  13 -11    0.90    0.27
 -19  13 -11    0.04    0.22
 -19  13 -11    0.06    0.20
 -21  13 -11   -0.18    0.22
 -23  13 -11    0.22    0.25
 -25  13 -11   -0.15    0.25
 -27  13 -11   -0.09    0.26
 -29  13 -11    0.28    0.32
 -29 -11  11    0.06    0.29
 -27 -11  11    0.00    0.21
 -25 -11  11   -0.06    0.20
 -23 -11  11   -0.13    0.16
 -21 -11  11    0.30    0.20
 -19 -11  11    0.09    0.17
 -17 -11  11   -0.16    0.08
 -15 -11  11   -0.02    0.12
 -13 -11  11    0.04    0.13
  11  11 -11    0.05    0.16
 -11 -11  11   -0.04    0.12
   9  11 -11    0.08    0.17
  -9 -11  11    0.05    0.12
   7  11 -11    0.19    0.15
  -7 -11  11    0.05    0.10
   5  11 -11    0.17    0.15
  -5 -11  11    0.06    0.10
   3  11 -11    0.17    0.14
  -3 -11  11   -0.04    0.08
   1  11 -11   -0.03    0.11
  -1 -11  11   -0.08    0.07
  -1  11 -11    0.08    0.14
  -1  11 -11    0.10    0.07
   1 -11  11    0.04    0.09
  -3  11 -11   -0.08    0.12
  -3  11 -11   -0.09    0.08
   3 -11  11    0.03    0.08
  -5  11 -11   -0.06    0.12
  -5  11 -11    0.05    0.10
   5 -11  11    0.09    0.10
  -7  11 -11    0.00    0.13
  -7  11 -11    0.06    0.11
   7 -11  11   -0.04    0.07
  -9  11 -11   -0.12    0.13
  -9  11 -11    0.09    0.15
   9 -11  11   -0.08    0.08
 -11  11 -11   -0.07    0.15
 -11  11 -11    0.01    0.15
 -13  11 -11   -0.14    0.14
 -13  11 -11    0.08    0.16
 -15  11 -11   -0.17    0.16
 -15  11 -11    0.11    0.17
 -17  11 -11    0.05    0.17
 -17  11 -11    0.12    0.20
 -19  11 -11   -0.18    0.19
 -21  11 -11   -0.15    0.20
 -23  11 -11   -0.11    0.21
 -25  11 -11    0.00    0.25
 -27  11 -11    0.10    0.24
 -29  11 -11   -0.15    0.28
 -29  -9  11   -0.07    0.24
 -27  -9  11    0.10    0.21
 -25  -9  11    0.06    0.22
 -23  -9  11    0.12    0.18
 -21  -9  11    0.88    0.27
 -19  -9  11    0.10    0.15
 -17  -9  11    0.12    0.16
 -15  -9  11   -0.10    0.11
 -13  -9  11    0.49    0.19
 -11  -9  11    0.00    0.11
   9   9 -11    0.15    0.14
  -9  -9  11   -0.25    0.10
   7   9 -11    1.16    0.24
  -7  -9  11    1.05    0.20
   5   9 -11    0.07    0.13
  -5  -9  11   -0.19    0.08
   3   9 -11    0.89    0.19
  -3  -9  11    1.49    0.20
   1   9 -11    2.72    0.27
  -1  -9  11    3.44    0.27
  -1   9 -11    3.40    0.30
  -1   9 -11    3.37    0.19
   1  -9  11    3.43    0.26
  -3   9 -11    0.99    0.21
  -3   9 -11    1.38    0.15
   3  -9  11    1.25    0.17
  -5   9 -11   -0.03    0.09
  -5   9 -11    0.05    0.12
   5  -9  11    0.06    0.08
  -7   9 -11    1.05    0.18
  -7   9 -11    1.05    0.21
   7  -9  11    1.04    0.16
  -9   9 -11   -0.12    0.11
  -9   9 -11    0.01    0.12
   9  -9  11   -0.07    0.07
 -11   9 -11    0.10    0.08
 -11   9 -11   -0.07    0.13
 -11   9 -11    0.09    0.13
  11  -9  11    0.00    0.09
 -13   9 -11    0.50    0.21
 -13   9 -11    0.41    0.17
 -15   9 -11    0.04    0.16
 -15   9 -11    0.33    0.20
 -17   9 -11    0.10    0.21
 -17   9 -11    0.14    0.17
 -19   9 -11    0.08    0.21
 -21   9 -11    1.01    0.32
 -23   9 -11    0.15    0.24
 -25   9 -11    0.02    0.24
 -27   9 -11    0.30    0.28
 -29   9 -11   -0.11    0.23
 -31   9 -11    0.06    0.32
 -29  -7  11    0.15    0.26
 -27  -7  11    0.01    0.22
 -25  -7  11    0.27    0.23
 -23  -7  11   -0.06    0.16
 -21  -7  11    1.93    0.33
 -19  -7  11    0.05    0.14
 -17  -7  11    0.22    0.16
 -15  -7  11    0.05    0.11
 -13  -7  11    0.58    0.18
 -11  -7  11   -0.07    0.08
  -9  -7  11    1.16    0.21
   7   7 -11   -0.01    0.12
  -7  -7  11    0.07    0.10
   5   7 -11    1.14    0.21
  -5  -7  11    1.19    0.20
   3   7 -11    0.02    0.11
  -3  -7  11    0.10    0.09
   1   7 -11    3.63    0.30
  -1  -7  11    4.36    0.29
  -1   7 -11    3.98    0.21
  -1   7 -11    3.76    0.30
   1  -7  11    3.86    0.27
  -3   7 -11   -0.02    0.11
  -3   7 -11    0.17    0.09
   3  -7  11    0.00    0.08
  -5   7 -11    1.22    0.20
  -5   7 -11    1.33    0.17
   5  -7  11    1.16    0.16
  -7   7 -11    0.04    0.10
  -7   7 -11    0.07    0.11
   7  -7  11    0.05    0.09
  -9   7 -11    1.21    0.20
  -9   7 -11    1.16    0.16
  -9   7 -11    1.46    0.22
   9  -7  11    1.20    0.17
 -11   7 -11    0.00    0.13
 -11   7 -11    0.04    0.12
  11  -7  11    0.04    0.09
 -13   7 -11    0.26    0.15
 -13   7 -11    0.25    0.17
  13  -7  11    0.17    0.12
 -15   7 -11   -0.12    0.14
 -15   7 -11   -0.18    0.14
 -17   7 -11   -0.06    0.15
 -19   7 -11    0.14    0.20
 -21   7 -11    1.85    0.38
 -23   7 -11   -0.46    0.19
 -25   7 -11    0.06    0.22
 -27   7 -11    0.03    0.24
 -29   7 -11    0.36    0.33
 -31   7 -11    0.24    0.30
 -27  -5  11    0.10    0.21
 -25  -5  11   -0.03    0.19
 -23  -5  11    0.45    0.24
 -21  -5  11    0.18    0.19
 -19  -5  11   -0.04    0.12
 -17  -5  11   -0.04    0.13
 -15  -5  11    0.84    0.21
 -13  -5  11    1.97    0.27
 -13  -5  11    2.06    0.23
 -11  -5  11   -0.02    0.09
 -11  -5  11    0.04    0.10
  -9  -5  11   -0.08    0.07
  -9  -5  11   -0.03    0.09
  -7  -5  11    1.21    0.12
  -7  -5  11    1.26    0.19
   5   5 -11   -0.05    0.10
  -5  -5  11   -0.04    0.08
  -5  -5  11    0.04    0.06
   3   5 -11    5.83    0.37
  -3  -5  11    5.58    0.32
   1   5 -11    3.57    0.29
  -1  -5  11    2.63    0.23
  -1   5 -11    3.43    0.28
   1  -5  11    2.97    0.24
  -3   5 -11    6.00    0.29
  -3   5 -11    5.07    0.33
   3  -5  11    6.62    0.34
  -5   5 -11   -0.08    0.07
  -5   5 -11    0.03    0.09
   5  -5  11    0.05    0.08
  -7   5 -11    1.26    0.18
  -7   5 -11    1.40    0.19
   7  -5  11    0.96    0.15
  -9   5 -11   -0.11    0.10
  -9   5 -11   -0.01    0.08
  -9   5 -11    0.02    0.10
   9  -5  11   -0.04    0.08
 -11   5 -11   -0.08    0.12
 -11   5 -11   -0.06    0.11
  11  -5  11   -0.05    0.09
 -13   5 -11    2.41    0.31
 -13   5 -11    2.40    0.25
  13  -5  11    2.43    0.23
 -15   5 -11    0.65    0.24
 -15   5 -11    0.84    0.20
  15  -5  11    1.09    0.18
 -17   5 -11    0.17    0.17
 -19   5 -11   -0.23    0.14
 -21   5 -11    0.07    0.21
 -23   5 -11    0.10    0.25
 -25   5 -11    0.20    0.25
 -27   5 -11   -0.07    0.23
 -29   5 -11    0.19    0.25
 -31   5 -11   -0.20    0.24
 -25  -3  11   -0.13    0.16
 -23  -3  11    0.10    0.18
 -21  -3  11    0.93    0.26
 -19  -3  11    0.26    0.16
 -19  -3  11    0.30    0.19
 -17  -3  11    0.35    0.19
 -17  -3  11    0.15    0.15
 -15  -3  11   -0.09    0.09
 -15  -3  11   -0.09    0.12
 -13  -3  11    2.16    0.27
 -13  -3  11    2.22    0.24
 -11  -3  11    0.00    0.10
 -11  -3  11    0.03    0.10
  -9  -3  11    1.28    0.20
  -9  -3  11    1.82    0.18
  -7  -3  11    0.03    0.07
  -7  -3  11    0.16    0.10
  -5  -3  11    6.11    0.27
  -5  -3  11    5.91    0.34
  -3  -3  11   -0.05    0.07
   1   3 -11   38.01    0.96
  -1  -3  11   39.65    0.93
  -1   3 -11   41.99    0.99
   1  -3  11   40.74    0.95
  -3   3 -11    0.05    0.08
  -3   3 -11    0.00    0.10
   3  -3  11    0.04    0.09
  -5   3 -11    6.62    0.34
  -5   3 -11    6.70    0.35
   5  -3  11    6.09    0.33
  -7   3 -11    0.05    0.10
  -7   3 -11    0.03    0.08
  -7   3 -11    0.06    0.08
   7  -3  11   -0.05    0.09
  -9   3 -11    1.38    0.19
  -9   3 -11    1.13    0.17
  -9   3 -11    1.11    0.20
   9  -3  11    1.30    0.18
 -11   3 -11    0.09    0.11
 -11   3 -11   -0.08    0.11
  11  -3  11    0.02    0.09
 -13   3 -11    2.37    0.31
 -13   3 -11    2.30    0.23
  13  -3  11    2.49    0.24
 -15   3 -11    0.06    0.16
  15  -3  11    0.07    0.11
 -17   3 -11    0.57    0.22
  17  -3  11    0.33    0.15
 -19   3 -11    0.42    0.23
 -21   3 -11    1.01    0.31
 -23   3 -11   -0.13    0.18
 -25   3 -11   -0.18    0.20
 -27   3 -11    0.00    0.26
 -29   3 -11    0.22    0.34
 -31   3 -11   -0.12    0.34
 -25  -1  11    0.03    0.22
 -23  -1  11    0.09    0.16
 -23  -1  11   -0.03    0.20
 -21  -1  11    0.18    0.23
 -21  -1  11    0.09    0.16
 -19  -1  11    2.61    0.34
 -19  -1  11    1.63    0.27
 -17  -1  11   -0.02    0.12
 -17  -1  11    0.02    0.17
 -15  -1  11    1.51    0.23
 -15  -1  11    1.24    0.22
 -13  -1  11   -0.15    0.11
 -13  -1  11   -0.18    0.11
 -11  -1  11    0.08    0.11
 -11  -1  11    0.08    0.11
  -9  -1  11    3.38    0.25
  -9  -1  11    3.02    0.27
  -7  -1  11    3.42    0.24
  -7  -1  11    3.90    0.28
  -5  -1  11    2.91    0.25
  -5  -1  11    3.03    0.22
  -3  -1  11   38.77    0.93
  -1  -1  11   -0.02    0.07
   1  -1  11   -0.05    0.08
  -3   1 -11   38.02    0.91
   3  -1  11   40.46    0.94
  -5   1 -11    3.25    0.26
  -5   1 -11    3.19    0.25
  -5   1 -11    2.67    0.23
   5  -1  11    2.80    0.24
  -7   1 -11    3.64    0.28
  -7   1 -11    3.79    0.26
  -7   1 -11    4.02    0.27
   7  -1  11    3.74    0.27
  -9   1 -11    3.09    0.23
  -9   1 -11    3.61    0.30
   9  -1  11    3.35    0.26
 -11   1 -11    0.14    0.14
 -11   1 -11    0.10    0.10
  11  -1  11   -0.03    0.08
 -13   1 -11    0.03    0.13
  13  -1  11   -0.07    0.09
 -15   1 -11    0.62    0.22
  15  -1  11    1.11    0.19
 -17   1 -11    0.00    0.15
  17  -1  11    0.14    0.12
 -19   1 -11    1.72    0.33
  19  -1  11    1.98    0.27
 -21   1 -11    0.14    0.20
 -23   1 -11   -0.23    0.18
 -25   1 -11    0.22    0.30
 -27   1 -11    0.00    0.27
 -29   1 -11   -0.04    0.34
 -31   1 -11    0.48    0.38
 -27   1  11    0.20    0.32
 -25   1  11    0.22    0.26
 -23   1  11    0.00    0.21
 -23   1  11    0.04    0.17
 -21   1  11    0.24    0.23
 -21   1  11    0.29    0.17
 -19   1  11    2.07    0.31
 -19   1  11    2.24    0.29
 -17   1  11    0.02    0.11
 -17   1  11    0.06    0.14
 -15   1  11    0.77    0.18
 -15   1  11    1.26    0.23
 -13   1  11   -0.02    0.12
 -13   1  11    0.03    0.11
 -11   1  11   -0.02    0.10
 -11   1  11   -0.01    0.10
  -9   1  11    3.64    0.28
  -9   1  11    3.23    0.26
  -7   1  11    3.71    0.27
  -7   1  11    3.93    0.29
  -5   1  11    3.34    0.26
  -5   1  11    3.57    0.27
  -3   1  11   38.49    0.92
  -1   1  11    0.01    0.08
   1   1  11    0.02    0.08
   3   1  11   40.00    0.94
  -5  -1 -11    3.39    0.26
  -5  -1 -11    2.92    0.25
   5   1  11    3.29    0.25
  -7  -1 -11    3.41    0.29
   7   1  11    3.86    0.27
  -9  -1 -11    3.25    0.23
  -9  -1 -11    3.26    0.30
   9   1  11    3.14    0.26
 -11  -1 -11    0.01    0.10
 -11  -1 -11   -0.13    0.10
  11   1  11   -0.05    0.07
 -13  -1 -11    0.01    0.12
  13   1  11   -0.01    0.10
 -15  -1 -11    1.59    0.29
  15   1  11    1.14    0.21
 -17  -1 -11    0.49    0.21
  17   1  11    0.13    0.12
 -19  -1 -11    1.90    0.35
  19   1  11    1.50    0.26
 -21  -1 -11    0.16    0.20
  21   1  11    0.19    0.18
 -23  -1 -11   -0.01    0.23
 -25  -1 -11   -0.14    0.24
 -27  -1 -11    0.69    0.37
 -29  -1 -11    0.31    0.35
 -31  -1 -11   -0.56    0.31
 -31   3  11    0.10    0.36
 -29   3  11    0.01    0.32
 -27   3  11    0.34    0.30
 -25   3  11   -0.02    0.26
 -23   3  11   -0.14    0.20
 -21   3  11    0.42    0.21
 -21   3  11    0.82    0.28
 -19   3  11    0.37    0.17
 -19   3  11    0.17    0.21
 -17   3  11    0.64    0.22
 -17   3  11    0.21    0.16
 -15   3  11   -0.01    0.12
 -15   3  11    0.05    0.13
 -13   3  11    2.39    0.26
 -13   3  11    3.27    0.32
 -11   3  11   -0.02    0.10
 -11   3  11    0.00    0.08
  -9   3  11    1.41    0.20
  -9   3  11    1.13    0.19
  -7   3  11   -0.06    0.08
  -7   3  11    0.15    0.11
  -5   3  11    6.63    0.37
  -5   3  11    6.28    0.36
  -3   3  11   -0.04    0.08
  -1   3  11   39.70    0.95
   1   3  11   37.96    0.92
  -3  -3 -11    0.04    0.09
   3   3  11    0.05    0.08
  -5  -3 -11    5.63    0.33
   5   3  11    6.29    0.34
  -7  -3 -11    0.03    0.10
   7   3  11    0.09    0.09
  -9  -3 -11    1.30    0.22
   9   3  11    1.31    0.19
 -11  -3 -11    0.11    0.13
  11   3  11   -0.09    0.08
 -13  -3 -11    2.18    0.30
  13   3  11    2.72    0.27
 -15  -3 -11   -0.09    0.12
  15   3  11    0.20    0.13
 -17  -3 -11    0.60    0.22
  17   3  11    0.61    0.19
 -19  -3 -11    0.16    0.20
  19   3  11    0.26    0.19
 -21  -3 -11    0.92    0.32
  21   3  11    0.83    0.24
 -23  -3 -11   -0.05    0.20
  23   3  11   -0.03    0.17
 -25  -3 -11    0.19    0.23
 -27  -3 -11   -0.35    0.28
 -29  -3 -11   -0.02    0.34
 -31  -3 -11   -0.26    0.35
 -31   5  11   -0.08    0.33
 -29   5  11    0.62    0.37
 -27   5  11    0.30    0.32
 -25   5  11   -0.32    0.23
 -23   5  11    0.60    0.28
 -21   5  11    0.07    0.20
 -19   5  11   -0.01    0.17
 -19   5  11   -0.01    0.14
 -17   5  11   -0.23    0.13
 -17   5  11    0.13    0.13
 -15   5  11    0.79    0.20
 -15   5  11    1.07    0.24
 -13   5  11    2.41    0.30
 -13   5  11    2.18    0.25
 -11   5  11    0.02    0.10
 -11   5  11   -0.18    0.11
  -9   5  11    0.06    0.11
  -9   5  11    0.06    0.09
  -7   5  11    1.06    0.19
  -7   5  11    1.17    0.18
  -5   5  11    0.04    0.08
  -5   5  11    0.06    0.08
  -3   5  11    6.15    0.35
  -1   5  11    3.27    0.26
  -1  -5 -11    3.64    0.28
   1   5  11    3.39    0.27
  -3  -5 -11    6.41    0.36
   3   5  11    6.34    0.35
   5   5  11   -0.04    0.07
   7   5  11    1.06    0.17
  -9  -5 -11   -0.04    0.11
   9   5  11   -0.06    0.09
 -11  -5 -11   -0.12    0.09
  11   5  11   -0.11    0.07
 -13  -5 -11    2.05    0.30
  13   5  11    2.45    0.28
 -15  -5 -11    0.63    0.21
  15   5  11    0.71    0.20
 -17  -5 -11   -0.15    0.16
  17   5  11   -0.11    0.11
 -19  -5 -11   -0.06    0.17
  19   5  11    0.00    0.13
 -21  -5 -11    0.43    0.25
  21   5  11    0.02    0.16
 -23  -5 -11    0.80    0.31
  23   5  11    0.40    0.21
 -25  -5 -11    0.13    0.24
  25   5  11    0.14    0.21
 -27  -5 -11    0.36    0.30
 -29  -5 -11    0.07    0.33
 -31  -5 -11   -0.22    0.33
 -31   7  11   -0.19    0.37
 -29   7  11   -0.17    0.34
 -27   7  11   -0.11    0.27
 -25   7  11   -0.13    0.24
 -23   7  11   -0.20    0.21
 -21   7  11    2.14    0.38
 -19   7  11    0.02    0.18
 -17   7  11   -0.05    0.16
 -17   7  11   -0.09    0.14
 -15   7  11   -0.06    0.11
 -15   7  11   -0.07    0.15
 -13   7  11    0.08    0.12
 -13   7  11   -0.10    0.15
 -11   7  11   -0.05    0.12
 -11   7  11    0.02    0.10
  -9   7  11    0.83    0.20
  -9   7  11    1.03    0.18
  -7   7  11   -0.07    0.10
  -7   7  11   -0.07    0.08
  -5   7  11    1.39    0.22
  -5   7  11    1.05    0.18
  -3   7  11   -0.01    0.08
   1  -7 -11    3.39    0.27
  -1   7  11    4.03    0.28
  -1  -7 -11    4.32    0.30
   1   7  11    4.50    0.30
   3   7  11   -0.01    0.08
   5   7  11    1.49    0.21
   7   7  11    0.03    0.10
   9   7  11    1.01    0.19
 -11  -7 -11    0.13    0.13
  11   7  11    0.23    0.13
 -13  -7 -11    0.18    0.16
  13   7  11   -0.13    0.10
 -15  -7 -11   -0.05    0.14
  15   7  11   -0.11    0.11
 -17  -7 -11    0.23    0.15
 -17  -7 -11    0.23    0.21
  17   7  11    0.42    0.17
 -19  -7 -11   -0.19    0.15
 -19  -7 -11   -0.19    0.15
  19   7  11   -0.04    0.15
 -21  -7 -11    1.80    0.32
 -21  -7 -11    1.39    0.36
  21   7  11    2.09    0.33
 -23  -7 -11    0.05    0.26
 -23  -7 -11   -0.22    0.19
  23   7  11    0.03    0.17
 -25  -7 -11   -0.08    0.23
 -25  -7 -11    0.22    0.21
  25   7  11   -0.07    0.20
 -27  -7 -11    0.03    0.28
  27   7  11    0.15    0.23
 -29  -7 -11    0.00    0.30
 -31  -7 -11   -0.01    0.38
 -31   9  11    0.17    0.38
 -29   9  11    0.21    0.33
 -27   9  11    0.36    0.32
 -25   9  11   -0.07    0.26
 -23   9  11   -0.25    0.22
 -21   9  11    0.80    0.32
 -19   9  11    0.58    0.26
 -17   9  11   -0.24    0.15
 -15   9  11    0.10    0.18
 -13   9  11    0.47    0.15
 -13   9  11    0.15    0.17
 -11   9  11   -0.07    0.12
 -11   9  11    0.03    0.10
  -9   9  11    0.19    0.12
  -9   9  11    0.00    0.13
  -7   9  11    1.03    0.22
  -7   9  11    1.12    0.19
   5  -9 -11    0.12    0.11
  -5   9  11   -0.10    0.09
  -5   9  11   -0.08    0.08
   3  -9 -11    1.22    0.19
  -3   9  11    1.18    0.18
   1  -9 -11    3.23    0.27
  -1   9  11    3.88    0.30
   1   9  11    3.42    0.28
   3   9  11    1.41    0.19
   5   9  11   -0.08    0.08
   7   9  11    1.30    0.21
   9   9  11    0.01    0.09
  11   9  11   -0.03    0.11
 -13  -9 -11    0.22    0.17
  13   9  11    0.18    0.15
 -15  -9 -11   -0.01    0.12
 -15  -9 -11    0.36    0.20
  15   9  11    0.17    0.16
 -17  -9 -11    0.25    0.20
 -17  -9 -11   -0.03    0.14
 -19  -9 -11    0.24    0.22
 -19  -9 -11    0.07    0.15
 -21  -9 -11    0.77    0.27
 -21  -9 -11    0.76    0.29
 -23  -9 -11    0.18    0.19
 -23  -9 -11   -0.18    0.24
 -25  -9 -11    0.03    0.22
 -25  -9 -11   -0.33    0.24
 -27  -9 -11   -0.04    0.20
 -27  -9 -11    0.04    0.31
  27   9  11   -0.26    0.20
 -29  -9 -11   -0.03    0.24
 -29  -9 -11   -0.03    0.35
  29   9  11    0.16    0.27
 -31  -9 -11    0.11    0.36
 -29  11  11    0.19    0.37
 -27  11  11    0.03    0.27
 -25  11  11   -0.26    0.26
 -23  11  11    0.03    0.25
 -21  11  11    0.01    0.24
 -19  11  11    0.08    0.19
 -17  11  11   -0.14    0.17
 -15  11  11   -0.08    0.17
 -13  11  11   -0.23    0.14
 -11  11  11   -0.01    0.14
 -11  11  11   -0.14    0.10
  -9  11  11    0.04    0.10
  -9  11  11   -0.02    0.14
   7 -11 -11    0.00    0.10
  -7  11  11   -0.04    0.12
  -7  11  11   -0.08    0.09
   5 -11 -11    0.00    0.10
  -5  11  11   -0.03    0.11
  -5  11  11    0.00    0.10
  -3  11  11    0.07    0.11
  -1  11  11   -0.04    0.08
   1  11  11   -0.15    0.08
   3  11  11   -0.06    0.08
   5  11  11   -0.10    0.09
   7  11  11   -0.10    0.09
   9  11  11   -0.02    0.09
  11  11  11    0.01    0.12
 -13 -11 -11   -0.17    0.12
  13  11  11    0.02    0.14
 -15 -11 -11   -0.20    0.10
 -17 -11 -11   -0.11    0.14
 -17 -11 -11   -0.11    0.19
 -19 -11 -11    0.03    0.20
 -19 -11 -11    0.02    0.16
 -21 -11 -11   -0.19    0.23
 -21 -11 -11    0.10    0.20
 -23 -11 -11    0.02    0.27
 -23 -11 -11   -0.12    0.16
 -25 -11 -11   -0.27    0.27
 -25 -11 -11    0.29    0.21
 -27 -11 -11    0.02    0.24
 -27 -11 -11   -0.22    0.26
 -29 -11 -11   -0.38    0.34
 -29 -11 -11   -0.40    0.23
  29  11  11   -0.17    0.30
 -29  13  11    0.41    0.39
 -27  13  11    0.27    0.32
 -25  13  11    0.20    0.33
 -23  13  11   -0.17    0.22
 -21  13  11   -0.10    0.21
 -19  13  11    0.00    0.20
 -17  13  11    0.87    0.32
 -15  13  11    0.12    0.20
 -13  13  11   -0.14    0.17
 -11  13  11   -0.04    0.14
   9 -13 -11    0.33    0.14
  -9  13  11    0.28    0.14
  -9  13  11    0.25    0.17
   7 -13 -11    0.03    0.12
  -7  13  11    0.40    0.16
  -7  13  11   -0.01    0.12
  -5  13  11    2.34    0.26
  -5  13  11    3.05    0.34
  -3  13  11    2.84    0.27
  -3  13  11    2.08    0.30
  -1  13  11    0.02    0.11
   1  13  11    0.04    0.11
   3  13  11    2.58    0.28
   5  13  11    1.96    0.26
   7  13  11    0.09    0.12
   9  13  11    0.58    0.19
 -11 -13 -11    0.06    0.12
  11  13  11   -0.12    0.10
 -13 -13 -11   -0.11    0.11
 -15 -13 -11    0.70    0.21
 -17 -13 -11    1.08    0.29
 -19 -13 -11    0.21    0.19
 -21 -13 -11    0.05    0.19
 -21 -13 -11    0.01    0.26
 -23 -13 -11    0.47    0.30
 -23 -13 -11    0.11    0.20
 -25 -13 -11   -0.12    0.20
 -25 -13 -11    0.14    0.29
 -27 -13 -11    0.04    0.34
 -27 -13 -11    0.34    0.26
 -29 -13 -11   -0.43    0.35
 -27  15  11    0.19    0.36
 -25  15  11    1.12    0.46
 -23  15  11    0.06    0.28
 -21  15  11    0.36    0.32
 -19  15  11   -0.01    0.22
 -17  15  11    1.32    0.37
 -15  15  11   -0.18    0.19
 -13  15  11    0.30    0.23
 -11  15  11   -0.01    0.14
  -9  15  11    0.09    0.14
  -7  15  11   -0.04    0.13
  -7  15  11    0.04    0.13
  -5  15  11    0.93    0.20
  -5  15  11    0.55    0.22
  -3  15  11    0.18    0.19
  -3  15  11   -0.06    0.10
  -1  15  11    0.64    0.19
   1  15  11    1.73    0.25
   3  15  11   -0.01    0.12
   5  15  11    0.79    0.21
   7  15  11   -0.05    0.12
   9  15  11    0.19    0.14
 -11 -15 -11   -0.11    0.12
  11  15  11    0.09    0.12
 -13 -15 -11    0.18    0.20
 -15 -15 -11   -0.14    0.14
 -17 -15 -11    0.29    0.20
 -19 -15 -11    0.22    0.19
 -21 -15 -11    0.46    0.24
 -23 -15 -11   -0.08    0.22
 -25 -15 -11    0.89    0.32
 -27  17  11   -0.44    0.27
 -25  17  11    0.30    0.35
 -23  17  11   -0.02    0.27
 -21  17  11    0.03    0.30
 -19  17  11   -0.19    0.21
 -17  17  11    0.12    0.21
 -15  17  11    0.81    0.31
 -13  17  11    0.65    0.25
 -11  17  11   -0.08    0.16
  -9  17  11   -0.07    0.15
  -7  17  11    0.11    0.17
  -5  17  11   -0.10    0.11
  -5  17  11   -0.01    0.14
  -3  17  11    0.42    0.22
  -3  17  11    0.72    0.20
  -1  17  11    0.09    0.14
   1  17  11    0.16    0.14
   3  17  11    0.75    0.19
   5  17  11   -0.07    0.13
   7  17  11    0.15    0.15
   9  17  11   -0.07    0.12
 -11 -17 -11   -0.09    0.16
  11  17  11   -0.06    0.13
 -13 -17 -11    0.42    0.23
 -15 -17 -11    0.51    0.24
 -17 -17 -11    0.03    0.16
 -19 -17 -11   -0.07    0.16
 -21 -17 -11   -0.09    0.18
 -23 -17 -11    0.20    0.25
 -25  19  11    0.49    0.40
 -23  19  11    0.17    0.30
 -21  19  11    0.13    0.28
 -19  19  11   -0.11    0.19
 -17  19  11   -0.15    0.16
 -15  19  11    0.71    0.28
 -13  19  11   -0.08    0.17
 -11  19  11   -0.02    0.15
  -9  19  11    0.17    0.20
  -7  19  11    0.12    0.17
  -5  19  11    0.03    0.15
  -3  19  11    0.52    0.22
  -3  19  11    0.31    0.18
  -1  19  11    1.82    0.28
  -1  19  11    2.30    0.37
   1  19  11    2.27    0.30
   3  19  11    0.27    0.18
   5  19  11   -0.06    0.15
   7  19  11   -0.01    0.14
   9  19  11    0.10    0.14
 -11 -19 -11   -0.16    0.18
  11  19  11    0.02    0.15
 -13 -19 -11   -0.21    0.18
 -15 -19 -11    0.60    0.29
 -17 -19 -11    0.14    0.23
 -19 -19 -11    0.08    0.21
 -21 -19 -11    0.57    0.31
 -23 -19 -11   -0.16    0.20
 -23  21  11    0.11    0.28
 -21  21  11    0.23    0.30
 -19  21  11    0.26    0.28
 -17  21  11   -0.08    0.21
 -15  21  11    0.73    0.27
 -13  21  11    0.11    0.20
 -11  21  11   -0.01    0.20
  -9  21  11    0.62    0.24
  -7  21  11    1.25    0.31
  -5  21  11    0.20    0.19
  -3  21  11    0.26    0.21
  -1  21  11    0.16    0.17
  -1  21  11    0.23    0.20
   1  21  11    0.13    0.17
   3  21  11    1.39    0.27
   5  21  11    0.07    0.16
   7  21  11    1.48    0.29
   9  21  11    0.64    0.23
 -11 -21 -11    0.00    0.20
  11  21  11   -0.15    0.15
 -13 -21 -11    0.22    0.23
 -15 -21 -11    0.14    0.25
 -17 -21 -11   -0.04    0.24
 -19 -21 -11   -0.12    0.27
 -21 -21 -11   -0.33    0.22
 -21  23  11    0.33    0.33
 -19  23  11    0.19    0.27
 -17  23  11    0.22    0.28
 -15  23  11    0.21    0.26
 -13  23  11   -0.04    0.24
 -11  23  11   -0.16    0.21
  -9  23  11    0.03    0.19
  -7  23  11    0.35    0.24
  -5  23  11    0.46    0.24
  -3  23  11   -0.03    0.19
  -1  23  11    0.13    0.19
   1  23  11   -0.01    0.17
   1  23  11   -0.12    0.18
   3  23  11   -0.03    0.16
   5  23  11    0.91    0.27
   7  23  11   -0.23    0.12
   9  23  11    0.23    0.17
  11  23  11   -0.04    0.15
 -13 -23 -11   -0.05    0.25
  13  23  11    0.12    0.21
 -15 -23 -11    0.01    0.27
 -17 -23 -11    0.36    0.32
 -19 -23 -11    0.02    0.29
 -19  25  11    0.03    0.27
 -17  25  11   -0.23    0.26
 -15  25  11    0.17    0.26
 -13  25  11    0.06    0.24
 -11  25  11    0.12    0.26
  -9  25  11   -0.02    0.22
  -7  25  11   -0.35    0.17
  -5  25  11    0.04    0.20
  -3  25  11   -0.18    0.17
  -1  25  11    0.07    0.22
   1  25  11    0.19    0.20
   3  25  11    0.18    0.20
   3  25  11   -0.07    0.20
   5  25  11   -0.20    0.17
   7  25  11    0.22    0.20
   9  25  11    0.00    0.18
  11  25  11    0.24    0.23
 -13 -25 -11    0.31    0.26
  13  25  11    0.02    0.18
 -15 -25 -11    0.33    0.35
  15  25  11    0.50    0.28
 -17  27  11   -0.26    0.26
 -15  27  11    0.29    0.31
 -13  27  11    0.12    0.28
 -11  27  11    0.12    0.26
  -9  27  11   -0.50    0.19
  -7  27  11    0.24    0.24
  -5  27  11    0.28    0.25
  -3  27  11   -0.15    0.21
  -1  27  11    0.03    0.22
   1  27  11    0.25    0.26
   3  27  11    0.30    0.24
   5  27  11   -0.03    0.17
   5  27  11   -0.24    0.23
   7  27  11    0.31    0.24
   9  27  11    0.06    0.22
  11  27  11    0.05    0.21
  13  27  11    0.07    0.22
 -13  29  11    0.12    0.30
 -11  29  11    0.25    0.29
  -9  29  11    0.04    0.28
  -7  29  11    0.13    0.27
  -5  29  11    0.09    0.26
  -3  29  11   -0.02    0.25
  -1  29  11    0.08    0.25
   1  29  11   -0.25    0.22
   3  29  11   -0.08    0.23
   9  29  11   -0.04    0.21
  11  29  11   -0.08    0.23
  -9  31  11    0.54    0.34
  -7  31  11   -0.19    0.28
  -5  31  11    0.45    0.30
  -3  31  11   -0.04    0.27
  -1  31  11    0.08    0.30
   8  30 -12   -0.17    0.28
   6  30 -12    0.03    0.28
   4  30 -12   -0.26    0.26
   2  30 -12   -0.18    0.28
   0  30 -12    0.11    0.28
  -2  30 -12   -0.23    0.24
  -4  30 -12   -0.28    0.24
  -6  30 -12    0.38    0.31
  -8  30 -12    0.13    0.29
 -10  30 -12    0.51    0.40
 -12 -28  12   16.87    1.04
  10  28 -12   -0.02    0.32
 -10 -28  12   -0.06    0.30
   8  28 -12   26.17    1.25
   6  28 -12    0.34    0.28
   4  28 -12   19.85    1.09
   2  28 -12    0.25    0.27
   0  28 -12   27.71    1.29
  -2  28 -12    0.54    0.32
  -4  28 -12   19.58    1.09
  -6  28 -12    0.34    0.31
  -8  28 -12   25.41    1.30
 -10  28 -12    0.18    0.34
 -12  28 -12   18.81    1.15
 -14  28 -12    0.49    0.35
 -14 -26  12    1.63    0.46
 -12 -26  12    0.31    0.28
  10  26 -12   -0.18    0.27
 -10 -26  12    0.24    0.26
   8  26 -12    0.25    0.27
  -8 -26  12   -0.23    0.21
   6  26 -12    0.92    0.33
   4  26 -12   -0.01    0.22
   2  26 -12    0.04    0.25
   0  26 -12    0.14    0.24
  -2  26 -12    0.39    0.29
  -4  26 -12    0.24    0.25
  -6  26 -12    0.98    0.34
  -8  26 -12   -0.17    0.27
 -10  26 -12   -0.02    0.28
 -12  26 -12   -0.01    0.29
 -14  26 -12    1.88    0.48
 -16  26 -12   -0.15    0.33
 -18  26 -12    0.12    0.33
 -16 -24  12   18.01    1.05
 -14 -24  12   -0.06    0.22
  12  24 -12   31.32    1.28
 -12 -24  12   30.67    1.28
  10  24 -12   -0.05    0.25
 -10 -24  12    0.43    0.25
   8  24 -12   26.69    1.17
  -8 -24  12   27.84    1.15
   6  24 -12    0.07    0.25
  -6 -24  12    0.16    0.21
   4  24 -12   47.64    1.59
   2  24 -12    0.81    0.30
   0  24 -12   26.42    1.15
  -2  24 -12    0.57    0.27
  -4  24 -12   45.57    1.59
  -6  24 -12    0.32    0.29
  -8  24 -12   26.47    1.23
 -10  24 -12    0.16    0.26
 -12  24 -12   29.46    1.31
 -14  24 -12    0.50    0.37
 -16  24 -12   16.01    1.01
 -18  24 -12    0.23    0.34
 -20  24 -12   22.08    1.20
 -18 -22  12    0.04    0.27
 -16 -22  12    0.08    0.22
 -14 -22  12    0.05    0.21
  12  22 -12   -0.12    0.21
 -12 -22  12   -0.07    0.19
  10  22 -12    0.31    0.25
 -10 -22  12    0.04    0.19
   8  22 -12    0.41    0.24
  -8 -22  12   -0.22    0.17
   6  22 -12    0.10    0.21
  -6 -22  12   -0.07    0.17
   4  22 -12    0.11    0.22
  -4 -22  12    0.22    0.20
   2  22 -12    0.29    0.23
   0  22 -12    0.13    0.23
  -2  22 -12    0.19    0.23
  -4  22 -12   -0.09    0.17
  -6  22 -12    0.22    0.25
  -8  22 -12    0.24    0.26
 -10  22 -12   -0.02    0.21
 -12  22 -12   -0.05    0.24
 -14  22 -12   -0.08    0.25
 -16  22 -12   -0.21    0.25
 -18  22 -12    0.43    0.36
 -20  22 -12    0.30    0.34
 -22  22 -12    0.24    0.36
 -20 -20  12   17.78    1.03
 -18 -20  12    0.06    0.22
 -16 -20  12   32.75    1.31
  14  20 -12    0.24    0.23
 -14 -20  12    0.63    0.29
  12  20 -12   20.28    0.95
 -12 -20  12   19.26    0.94
  10  20 -12    0.24    0.23
 -10 -20  12    0.26    0.23
   8  20 -12   58.49    1.67
  -8 -20  12   60.59    1.64
   6  20 -12    0.21    0.22
  -6 -20  12    0.29    0.21
   4  20 -12   30.48    1.15
  -4 -20  12   32.22    1.07
   2  20 -12    0.53    0.25
  -2 -20  12    0.82    0.24
   0  20 -12   50.02    1.52
  -2  20 -12    0.57    0.24
  -4  20 -12   31.71    1.21
  -6  20 -12    0.02    0.24
  -8  20 -12   52.66    1.63
 -10  20 -12    0.15    0.25
 -12  20 -12   20.98    1.02
 -14  20 -12    0.21    0.26
 -16  20 -12   33.16    1.32
 -18  20 -12    0.09    0.29
 -20  20 -12   16.31    0.96
 -22  20 -12    0.12    0.33
 -24  20 -12   23.91    1.25
 -22 -18  12    0.38    0.22
 -20 -18  12    0.29    0.26
 -18 -18  12   -0.17    0.20
 -16 -18  12    0.16    0.23
  14  18 -12    1.62    0.35
 -14 -18  12    2.13    0.39
  12  18 -12    0.01    0.21
 -12 -18  12   -0.09    0.14
  10  18 -12    0.52    0.25
 -10 -18  12    0.19    0.19
   8  18 -12    0.07    0.20
  -8 -18  12   -0.15    0.15
   6  18 -12   -0.09    0.18
  -6 -18  12    0.11    0.15
   4  18 -12    0.16    0.18
  -4 -18  12    0.20    0.17
   2  18 -12    1.26    0.29
  -2 -18  12    1.11    0.23
   0  18 -12   -0.09    0.14
   0 -18  12    0.03    0.13
  -2  18 -12    1.02    0.29
   2 -18  12    2.42    0.28
  -4  18 -12    0.14    0.22
  -6  18 -12    0.34    0.21
  -8  18 -12    0.33    0.22
 -10  18 -12    0.37    0.25
 -12  18 -12   -0.12    0.20
 -14  18 -12    1.07    0.33
 -16  18 -12    0.12    0.25
 -16  18 -12    0.16    0.26
 -18  18 -12   -0.11    0.23
 -18  18 -12   -0.09    0.25
 -20  18 -12   -0.03    0.26
 -20  18 -12   -0.28    0.26
 -22  18 -12    1.09    0.37
 -24  18 -12    0.34    0.32
 -26  18 -12   -0.20    0.32
 -24 -16  12   17.23    1.00
 -22 -16  12   -0.04    0.21
 -20 -16  12   33.69    1.32
 -18 -16  12    0.23    0.21
 -16 -16  12   50.06    1.55
  14  16 -12    0.91    0.29
 -14 -16  12    0.68    0.25
  12  16 -12   65.43    1.71
 -12 -16  12   61.40    1.66
  10  16 -12    0.22    0.19
 -10 -16  12    0.51    0.22
   8  16 -12   64.29    1.65
  -8 -16  12   66.21    1.62
   6  16 -12    0.07    0.19
  -6 -16  12    0.25    0.16
   4  16 -12   98.57    2.13
  -4 -16  12   94.81    1.96
   2  16 -12    1.11    0.28
  -2 -16  12    1.80    0.25
   0  16 -12   67.47    1.69
   0 -16  12   67.67    1.47
  -2  16 -12    0.78    0.25
   2 -16  12    1.12    0.20
  -4  16 -12   97.53    2.17
   4 -16  12   99.06    1.81
  -6  16 -12    0.02    0.18
  -8  16 -12   68.80    1.77
 -10  16 -12    0.26    0.23
 -12  16 -12   64.03    1.61
 -12  16 -12   65.40    1.75
 -14  16 -12    0.95    0.30
 -14  16 -12    0.68    0.28
 -16  16 -12   54.27    1.59
 -16  16 -12   51.40    1.55
 -18  16 -12    0.00    0.22
 -18  16 -12    0.21    0.26
 -20  16 -12   33.66    1.27
 -20  16 -12   36.44    1.37
 -22  16 -12    0.02    0.26
 -24  16 -12   19.02    1.08
 -26  16 -12    0.32    0.33
 -26 -14  12    2.40    0.47
 -24 -14  12    0.24    0.24
 -22 -14  12    0.01    0.18
 -20 -14  12    0.27    0.20
 -18 -14  12    1.28    0.30
 -16 -14  12    1.26    0.30
  14  14 -12    0.39    0.24
 -14 -14  12    0.37    0.19
  12  14 -12    0.88    0.27
 -12 -14  12    0.68    0.22
  10  14 -12    1.72    0.33
 -10 -14  12    1.85    0.29
   8  14 -12    0.28    0.19
  -8 -14  12    0.37    0.17
   6  14 -12    0.60    0.23
  -6 -14  12    0.94    0.21
   4  14 -12    1.20    0.26
  -4 -14  12    1.10    0.21
   2  14 -12    7.82    0.52
  -2 -14  12    6.69    0.41
   0  14 -12   -0.05    0.15
   0 -14  12    0.02    0.10
  -2  14 -12    8.11    0.52
   2 -14  12    8.18    0.42
  -4  14 -12    0.97    0.25
   4 -14  12    1.12    0.18
  -6  14 -12    0.86    0.24
   6 -14  12    1.22    0.18
  -8  14 -12    0.37    0.19
  -8  14 -12    0.45    0.22
 -10  14 -12    1.33    0.24
 -10  14 -12    1.53    0.29
 -12  14 -12    1.43    0.30
 -12  14 -12    0.56    0.22
 -14  14 -12    0.27    0.22
 -14  14 -12    0.78    0.26
 -16  14 -12    0.99    0.29
 -16  14 -12    0.37    0.25
 -18  14 -12    1.17    0.31
 -18  14 -12    1.70    0.36
 -20  14 -12    0.34    0.25
 -22  14 -12    0.00    0.25
 -24  14 -12    0.49    0.31
 -26  14 -12    2.23    0.49
 -28  14 -12    0.43    0.35
 -26 -12  12    0.05    0.22
 -24 -12  12   30.36    1.27
 -22 -12  12    0.01    0.18
 -20 -12  12   21.18    0.98
 -18 -12  12   -0.07    0.13
 -16 -12  12   63.93    1.69
 -14 -12  12    0.78    0.22
  12  12 -12   35.98    1.17
 -12 -12  12   36.67    1.14
  10  12 -12    0.59    0.24
 -10 -12  12    0.33    0.17
   8  12 -12  118.14    2.37
  -8 -12  12  123.28    2.31
   6  12 -12    0.17    0.16
  -6 -12  12    0.19    0.13
   4  12 -12   80.42    1.79
  -4 -12  12   82.04    1.68
   2  12 -12    0.22    0.15
  -2 -12  12    0.34    0.13
   0  12 -12  171.48    3.03
   0 -12  12  175.58    2.80
  -2  12 -12    0.53    0.20
   2 -12  12    0.49    0.14
  -4  12 -12   84.22    1.51
  -4  12 -12   82.14    1.80
   4 -12  12   81.55    1.54
  -6  12 -12    0.27    0.14
  -6  12 -12    0.02    0.14
   6 -12  12    0.14    0.10
  -8  12 -12  130.48    2.30
  -8  12 -12  129.98    2.48
   8 -12  12  123.12    2.05
 -10  12 -12    0.56    0.21
 -10  12 -12    0.46    0.20
 -12  12 -12   37.27    1.13
 -12  12 -12   38.32    1.16
 -14  12 -12    0.90    0.26
 -14  12 -12    0.95    0.27
 -16  12 -12   62.31    1.61
 -16  12 -12   64.07    1.71
 -18  12 -12   -0.03    0.19
 -18  12 -12   -0.24    0.18
 -20  12 -12   21.48    1.02
 -22  12 -12    0.11    0.20
 -24  12 -12   33.91    1.40
 -26  12 -12    0.16    0.29
 -28  12 -12   18.33    1.12
 -28 -10  12    0.07    0.24
 -26 -10  12   -0.15    0.22
 -24 -10  12    0.11    0.20
 -22 -10  12    0.19    0.20
 -20 -10  12    0.30    0.18
 -18 -10  12    0.75    0.24
 -16 -10  12    0.41    0.19
 -14 -10  12    2.92    0.35
 -12 -10  12    0.38    0.16
  10  10 -12   19.25    0.79
 -10 -10  12   18.68    0.75
   8  10 -12    0.10    0.14
  -8 -10  12    0.03    0.12
   6  10 -12    0.18    0.16
  -6 -10  12    0.05    0.11
   4  10 -12    1.04    0.23
  -4 -10  12    0.84    0.18
   2  10 -12    3.91    0.34
  -2 -10  12    3.92    0.31
   0  10 -12    0.08    0.13
   0 -10  12    0.08    0.09
  -2  10 -12    3.03    0.32
  -2  10 -12    3.95    0.23
   2 -10  12    3.68    0.28
  -4  10 -12    1.32    0.24
  -4  10 -12    0.96    0.15
   4 -10  12    1.10    0.17
  -6  10 -12    0.02    0.11
  -6  10 -12    0.05    0.14
   6 -10  12   -0.01    0.09
  -8  10 -12    0.28    0.14
  -8  10 -12    0.01    0.15
   8 -10  12   -0.03    0.09
 -10  10 -12   19.67    0.76
 -10  10 -12   19.09    0.72
 -10  10 -12   19.61    0.60
  10 -10  12   18.64    0.59
 -12  10 -12    0.52    0.20
 -12  10 -12    0.70    0.21
 -14  10 -12    1.98    0.29
 -14  10 -12    1.42    0.29
 -16  10 -12    0.56    0.23
 -16  10 -12    0.62    0.23
 -18  10 -12    0.67    0.25
 -20  10 -12    0.37    0.27
 -22  10 -12   -0.14    0.20
 -24  10 -12    0.21    0.28
 -26  10 -12   -0.16    0.24
 -28  10 -12    0.52    0.38
 -30  10 -12    0.45    0.34
 -30  -8  12   -0.25    0.26
 -28  -8  12   23.23    1.14
 -26  -8  12    0.28    0.26
 -24  -8  12   28.34    1.17
 -22  -8  12   -0.06    0.14
 -20  -8  12   58.67    1.64
 -18  -8  12    0.00    0.12
 -16  -8  12   63.82    1.60
 -14  -8  12    0.42    0.17
 -12  -8  12  120.18    2.29
 -10  -8  12    0.05    0.11
   8   8 -12  145.97    2.68
  -8  -8  12  146.01    2.55
   6   8 -12    0.29    0.16
  -6  -8  12   -0.03    0.08
   4   8 -12  225.14    3.65
  -4  -8  12  225.27    3.46
   2   8 -12    0.18    0.13
  -2  -8  12    0.49    0.14
   0   8 -12  141.48    2.52
   0  -8  12  142.19    2.33
  -2   8 -12    0.58    0.18
  -2   8 -12    0.30    0.10
   2  -8  12    0.35    0.12
  -4   8 -12  234.01    3.45
  -4   8 -12  228.67    3.65
   4  -8  12  227.67    3.40
  -6   8 -12    0.27    0.15
  -6   8 -12    0.09    0.11
   6  -8  12    0.02    0.09
  -8   8 -12  149.90    2.60
  -8   8 -12  148.48    2.54
   8  -8  12  146.28    2.36
 -10   8 -12    0.08    0.09
 -10   8 -12    0.22    0.15
 -10   8 -12    0.23    0.15
  10  -8  12   -0.03    0.09
 -12   8 -12  129.69    2.46
 -12   8 -12  129.75    2.37
  12  -8  12  129.05    2.15
 -14   8 -12   -0.16    0.13
 -14   8 -12    0.14    0.16
 -16   8 -12   66.00    1.71
 -16   8 -12   65.53    1.51
 -18   8 -12    0.04    0.19
 -20   8 -12   55.82    1.67
 -22   8 -12    0.04    0.19
 -24   8 -12   28.04    1.24
 -26   8 -12   -0.13    0.23
 -28   8 -12   23.89    1.25
 -30   8 -12   -0.06    0.31
 -28  -6  12    0.31    0.25
 -26  -6  12    1.17    0.32
 -24  -6  12    0.34    0.22
 -22  -6  12    0.03    0.18
 -20  -6  12    0.18    0.15
 -18  -6  12    0.08    0.15
 -16  -6  12    0.13    0.15
 -14  -6  12    0.68    0.20
 -12  -6  12    0.04    0.09
 -10  -6  12    0.08    0.12
  -8  -6  12    0.04    0.09
   6   6 -12    0.78    0.21
  -6  -6  12    0.74    0.17
  -6  -6  12    1.21    0.12
   4   6 -12    1.44    0.23
  -4  -6  12    0.98    0.18
  -4  -6  12    1.55    0.13
   2   6 -12    2.21    0.25
  -2  -6  12    2.72    0.25
   0   6 -12   -0.14    0.09
   0  -6  12    0.06    0.09
  -2   6 -12    2.20    0.25
  -2   6 -12    2.41    0.19
   2  -6  12    1.90    0.21
  -4   6 -12    1.29    0.21
  -4   6 -12    1.63    0.18
   4  -6  12    1.16    0.18
  -6   6 -12    1.43    0.19
  -6   6 -12    0.93    0.19
   6  -6  12    1.11    0.18
  -8   6 -12    0.16    0.13
  -8   6 -12    0.20    0.13
   8  -6  12   -0.03    0.09
 -10   6 -12    0.15    0.13
 -10   6 -12    0.00    0.08
 -10   6 -12    0.05    0.12
  10  -6  12    0.23    0.12
 -12   6 -12    0.18    0.13
 -12   6 -12   -0.06    0.14
  12  -6  12    0.12    0.12
 -14   6 -12    0.53    0.18
 -14   6 -12    0.49    0.22
  14  -6  12    0.85    0.18
 -16   6 -12    0.27    0.21
 -18   6 -12   -0.02    0.17
 -20   6 -12    0.12    0.20
 -22   6 -12    0.13    0.23
 -24   6 -12    0.05    0.25
 -26   6 -12    0.63    0.29
 -28   6 -12   -0.01    0.27
 -30   6 -12    0.03    0.29
 -26  -4  12    0.01    0.20
 -24  -4  12   43.00    1.40
 -22  -4  12    0.09    0.18
 -20  -4  12   33.31    1.11
 -18  -4  12    0.08    0.13
 -16  -4  12   96.84    2.01
 -14  -4  12    0.98    0.19
 -14  -4  12    1.45    0.24
 -12  -4  12   83.91    1.55
 -12  -4  12   81.90    1.73
 -10  -4  12    0.72    0.17
 -10  -4  12    1.26    0.16
  -8  -4  12  235.30    3.42
  -8  -4  12  232.81    3.60
  -6  -4  12    1.27    0.14
  -6  -4  12    0.97    0.18
   4   4 -12  141.22    2.50
  -4  -4  12  142.19    2.37
   2   4 -12    2.58    0.27
  -2  -4  12    2.17    0.23
   0   4 -12  356.72    5.28
   0  -4  12  361.84    5.05
  -2   4 -12    2.56    0.25
   2  -4  12    2.25    0.23
  -4   4 -12  142.46    2.31
  -4   4 -12  139.71    2.38
   4  -4  12  139.57    2.30
  -6   4 -12    1.25    0.19
  -6   4 -12    1.35    0.19
   6  -4  12    1.35    0.18
  -8   4 -12  228.71    3.47
  -8   4 -12  235.86    3.59
  -8   4 -12  233.09    3.68
   8  -4  12  235.14    3.48
 -10   4 -12    0.99    0.18
 -10   4 -12    1.12    0.21
  10  -4  12    1.00    0.18
 -12   4 -12   81.33    1.78
 -12   4 -12   84.17    1.60
  12  -4  12   81.81    1.58
 -14   4 -12    1.07    0.26
 -14   4 -12    1.26    0.21
  14  -4  12    1.19    0.20
 -16   4 -12  101.09    2.21
  16  -4  12   98.42    1.85
 -18   4 -12    0.31    0.19
 -20   4 -12   30.76    1.19
 -22   4 -12   -0.06    0.20
 -24   4 -12   45.25    1.60
 -26   4 -12    0.23    0.24
 -28   4 -12   21.79    1.18
 -30   4 -12   -0.28    0.29
 -24  -2  12    0.22    0.19
 -22  -2  12    0.51    0.20
 -20  -2  12    1.06    0.25
 -20  -2  12    0.41    0.23
 -18  -2  12    1.82    0.28
 -18  -2  12    2.26    0.31
 -16  -2  12    0.95    0.21
 -16  -2  12    1.14    0.23
 -14  -2  12    7.79    0.43
 -14  -2  12    6.76    0.44
 -12  -2  12    0.47    0.15
 -12  -2  12    0.28    0.14
 -10  -2  12    3.79    0.27
 -10  -2  12    3.33    0.30
  -8  -2  12    0.30    0.11
  -8  -2  12    0.22    0.11
  -6  -2  12    2.26    0.19
  -6  -2  12    1.82    0.22
  -4  -2  12    2.45    0.24
  -2  -2  12    9.35    0.44
   0   2 -12    0.06    0.13
   0  -2  12    0.07    0.10
  -2   2 -12    9.72    0.46
   2  -2  12    9.36    0.44
  -4   2 -12    2.31    0.24
  -4   2 -12    2.82    0.24
   4  -2  12    2.40    0.24
  -6   2 -12    2.61    0.24
  -6   2 -12    1.91    0.21
  -6   2 -12    1.93    0.22
   6  -2  12    2.37    0.23
  -8   2 -12    0.38    0.13
  -8   2 -12    0.33    0.14
  -8   2 -12    0.52    0.15
   8  -2  12    0.45    0.14
 -10   2 -12    3.64    0.33
 -10   2 -12    4.05    0.29
  10  -2  12    3.52    0.28
 -12   2 -12    0.36    0.13
 -12   2 -12    0.17    0.14
  12  -2  12    0.30    0.12
 -14   2 -12    7.59    0.51
  14  -2  12    7.63    0.42
 -16   2 -12    0.94    0.25
  16  -2  12    1.27    0.22
 -18   2 -12    1.42    0.31
  18  -2  12    1.77    0.25
 -20   2 -12    0.72    0.28
 -22   2 -12    0.00    0.19
 -24   2 -12    0.21    0.25
 -26   2 -12    0.29    0.24
 -28   2 -12    0.20    0.32
 -30   2 -12    0.19    0.32
 -24   0  12   24.27    1.00
 -24   0  12   26.83    1.11
 -22   0  12    0.16    0.17
 -22   0  12   -0.22    0.20
 -20   0  12   50.98    1.41
 -20   0  12   48.90    1.34
 -18   0  12    0.08    0.16
 -18   0  12   -0.03    0.13
 -16   0  12   67.71    1.55
 -16   0  12   66.01    1.52
 -14   0  12    0.03    0.12
 -14   0  12    0.08    0.13
 -12   0  12  179.59    2.95
 -12   0  12  179.76    2.97
 -10   0  12    0.09    0.11
 -10   0  12    0.09    0.10
  -8   0  12  140.32    2.33
  -8   0  12  138.81    2.36
  -6   0  12    0.12    0.11
  -6   0  12    0.02    0.08
  -4   0  12  348.97    4.94
  -2   0  12   -0.02    0.08
   0   0  12  286.00    4.15
   2   0  12    0.14    0.12
   4   0  12  355.43    5.00
  -6   0 -12    0.07    0.10
  -6   0 -12    0.04    0.10
  -6   0 -12    0.07    0.09
   6   0  12    0.05    0.10
  -8   0 -12  139.65    2.25
  -8   0 -12  138.55    2.45
   8   0  12  137.88    2.30
 -10   0 -12    0.16    0.13
 -10   0 -12   -0.05    0.09
  10   0  12    0.07    0.09
 -12   0 -12  170.27    3.00
  12   0  12  166.64    2.72
 -14   0 -12    0.16    0.18
  14   0  12   -0.08    0.09
 -16   0 -12   63.86    1.65
  16   0  12   61.85    1.40
 -18   0 -12    0.07    0.16
  18   0  12    0.00    0.15
 -20   0 -12   47.19    1.50
  20   0  12   48.78    1.28
 -22   0 -12    0.26    0.20
 -24   0 -12   25.02    1.15
 -26   0 -12    0.13    0.28
 -28   0 -12   29.92    1.39
 -30   0 -12   -0.31    0.29
 -28   2  12    0.11    0.33
 -26   2  12    0.39    0.31
 -24   2  12    0.01    0.26
 -22   2  12    0.22    0.18
 -22   2  12   -0.17    0.18
 -20   2  12    0.43    0.24
 -20   2  12    0.22    0.15
 -18   2  12    1.93    0.27
 -18   2  12    1.48    0.29
 -16   2  12    0.66    0.22
 -16   2  12    0.94    0.21
 -14   2  12    7.27    0.43
 -14   2  12    7.59    0.47
 -12   2  12    0.09    0.13
 -12   2  12    0.45    0.16
 -10   2  12    3.55    0.30
 -10   2  12    4.29    0.32
  -8   2  12    0.65    0.16
  -8   2  12    0.32    0.13
  -6   2  12    2.49    0.25
  -6   2  12    2.23    0.23
  -4   2  12    2.95    0.27
  -2   2  12    9.36    0.44
   0   2  12    0.30    0.12
   2   2  12   10.29    0.46
  -4  -2 -12    2.62    0.24
   4   2  12    2.63    0.24
  -6  -2 -12    1.93    0.23
  -6  -2 -12    1.94    0.22
   6   2  12    1.80    0.21
  -8  -2 -12    0.53    0.16
   8   2  12    0.34    0.12
 -10  -2 -12    3.50    0.33
  10   2  12    4.23    0.32
 -12  -2 -12    0.16    0.14
  12   2  12    0.24    0.13
 -14  -2 -12    6.72    0.47
  14   2  12    8.09    0.45
 -16  -2 -12    0.89    0.26
  16   2  12    1.08    0.23
 -18  -2 -12    1.98    0.34
  18   2  12    2.01    0.28
 -20  -2 -12    0.91    0.29
  20   2  12    0.62    0.21
 -22  -2 -12   -0.03    0.22
  22   2  12   -0.09    0.16
 -24  -2 -12    0.08    0.23
 -26  -2 -12    0.31    0.31
 -28  -2 -12    0.03    0.28
 -30  -2 -12   -0.04    0.31
 -30   4  12   -0.03    0.35
 -28   4  12   18.70    1.06
 -26   4  12    0.18    0.27
 -24   4  12   46.43    1.55
 -22   4  12   -0.07    0.21
 -20   4  12   30.04    0.98
 -20   4  12   31.85    1.15
 -18   4  12    0.30    0.20
 -18   4  12    0.17    0.15
 -16   4  12  100.36    2.13
 -16   4  12  101.00    1.96
 -14   4  12    1.03    0.24
 -14   4  12    1.10    0.21
 -12   4  12   83.46    1.76
 -12   4  12   81.06    1.63
 -10   4  12    0.97    0.19
 -10   4  12    1.20    0.22
  -8   4  12  224.52    3.45
  -8   4  12  229.03    3.64
  -6   4  12    1.23    0.20
  -6   4  12    1.45    0.20
  -4   4  12  143.50    2.39
  -2   4  12    3.16    0.27
   0   4  12  360.72    5.09
  -2  -4 -12    2.61    0.25
   2   4  12    2.23    0.23
  -4  -4 -12  142.27    2.36
   4   4  12  136.77    2.32
   6   4  12    1.40    0.20
  -8  -4 -12  225.49    3.70
   8   4  12  224.83    3.44
 -10  -4 -12    0.94    0.21
  10   4  12    1.15    0.20
 -12  -4 -12   80.47    1.80
  12   4  12   79.79    1.65
 -14  -4 -12    1.04    0.25
  14   4  12    1.19    0.23
 -16  -4 -12   93.35    2.13
  16   4  12   94.59    1.94
 -18  -4 -12    0.30    0.21
  18   4  12    0.23    0.16
 -20  -4 -12   32.08    1.21
  20   4  12   30.39    1.05
 -22  -4 -12   -0.10    0.22
  22   4  12    0.18    0.20
 -24  -4 -12   50.41    1.69
  24   4  12   48.01    1.45
 -26  -4 -12    0.13    0.27
 -28  -4 -12   17.74    1.05
 -30  -4 -12   -0.02    0.35
 -30   6  12    0.52    0.37
 -28   6  12   -0.16    0.31
 -26   6  12    0.88    0.37
 -24   6  12   -0.01    0.26
 -22   6  12    0.25    0.24
 -20   6  12   -0.16    0.19
 -18   6  12   -0.05    0.18
 -18   6  12    0.11    0.14
 -16   6  12    0.18    0.18
 -16   6  12    0.31    0.16
 -14   6  12    0.92    0.23
 -14   6  12    1.17    0.21
 -12   6  12    0.19    0.14
 -12   6  12    0.24    0.13
 -10   6  12   -0.07    0.12
 -10   6  12    0.01    0.11
  -8   6  12   -0.02    0.11
  -8   6  12    0.12    0.12
  -6   6  12    0.91    0.19
  -6   6  12    0.68    0.17
  -4   6  12    1.79    0.22
  -2   6  12    2.14    0.24
   0  -6 -12    0.07    0.10
   0   6  12   -0.03    0.08
  -2  -6 -12    1.64    0.22
   2   6  12    2.07    0.23
   4   6  12    1.52    0.20
   6   6  12    0.81    0.17
   8   6  12    0.05    0.09
 -10  -6 -12    0.27    0.16
  10   6  12    0.10    0.10
 -12  -6 -12    0.12    0.14
  12   6  12    0.09    0.11
 -14  -6 -12    0.56    0.22
  14   6  12    0.64    0.21
 -16  -6 -12    0.12    0.18
  16   6  12    0.14    0.16
 -18  -6 -12   -0.18    0.17
  18   6  12    0.00    0.16
 -20  -6 -12    0.23    0.23
  20   6  12    0.31    0.20
 -22  -6 -12   -0.10    0.23
  22   6  12   -0.08    0.17
 -24  -6 -12    0.21    0.29
  24   6  12    0.42    0.22
 -26  -6 -12    0.97    0.37
  26   6  12    1.01    0.32
 -28  -6 -12   -0.35    0.29
 -30  -6 -12   -0.20    0.34
 -30   8  12   -0.07    0.36
 -28   8  12   25.55    1.30
 -26   8  12    0.07    0.26
 -24   8  12   27.55    1.22
 -22   8  12    0.14    0.25
 -20   8  12   59.37    1.72
 -18   8  12    0.00    0.19
 -16   8  12   68.02    1.74
 -16   8  12   64.66    1.43
 -14   8  12   -0.02    0.14
 -14   8  12    0.13    0.15
 -12   8  12  125.57    2.22
 -12   8  12  129.86    2.55
 -10   8  12    0.09    0.12
 -10   8  12    0.19    0.15
  -8   8  12  145.41    2.44
  -8   8  12  145.96    2.70
  -6   8  12    0.10    0.13
  -6   8  12   -0.01    0.11
  -4   8  12  225.72    3.45
   2  -8 -12    0.29    0.14
  -2   8  12    0.33    0.14
   0  -8 -12  139.22    2.38
   0   8  12  141.71    2.38
   2   8  12    0.39    0.13
   4   8  12  222.45    3.44
   6   8  12    0.29    0.13
   8   8  12  153.06    2.64
  10   8  12    0.29    0.14
 -12  -8 -12  125.90    2.57
  12   8  12  129.62    2.43
 -14  -8 -12    0.21    0.19
  14   8  12    0.24    0.15
 -16  -8 -12   67.66    1.78
  16   8  12   64.75    1.61
 -18  -8 -12   -0.08    0.20
  18   8  12   -0.02    0.14
 -20  -8 -12   54.24    1.67
  20   8  12   53.51    1.51
 -22  -8 -12    0.05    0.24
  22   8  12    0.03    0.18
 -24  -8 -12   27.20    1.24
  24   8  12   26.55    1.09
 -26  -8 -12   -0.13    0.27
  26   8  12   -0.08    0.22
 -28  -8 -12   24.11    1.27
  28   8  12   26.68    1.17
 -30  -8 -12   -0.36    0.30
 -30  10  12    1.07    0.49
 -28  10  12    0.20    0.31
 -26  10  12    0.38    0.34
 -24  10  12    0.24    0.28
 -22  10  12    0.26    0.28
 -20  10  12    0.51    0.28
 -18  10  12    0.53    0.26
 -16  10  12    0.67    0.25
 -14  10  12    1.26    0.28
 -12  10  12    0.32    0.16
 -12  10  12    0.32    0.17
 -10  10  12   17.76    0.66
 -10  10  12   19.20    0.80
  -8  10  12    0.07    0.15
  -8  10  12   -0.06    0.12
   6 -10 -12   -0.01    0.11
  -6  10  12   -0.13    0.09
  -6  10  12    0.09    0.11
   4 -10 -12    1.03    0.19
  -4  10  12    1.13    0.24
  -4  10  12    1.14    0.20
   2 -10 -12    3.71    0.31
  -2  10  12    3.74    0.31
   0  10  12    0.19    0.13
   2  10  12    3.69    0.31
   4  10  12    1.35    0.21
   6  10  12    0.16    0.12
   8  10  12    0.19    0.11
  10  10  12   19.42    0.77
  12  10  12    0.54    0.20
  14  10  12    1.21    0.26
 -16 -10 -12    0.40    0.23
  16  10  12    0.08    0.16
 -18 -10 -12    1.07    0.30
  18  10  12    0.60    0.23
 -20 -10 -12    0.78    0.26
 -20 -10 -12    0.85    0.30
  20  10  12    0.43    0.21
 -22 -10 -12    0.44    0.25
 -22 -10 -12    0.07    0.24
  22  10  12    0.44    0.22
 -24 -10 -12    0.08    0.26
 -24 -10 -12   -0.09    0.16
  24  10  12    0.19    0.21
 -26 -10 -12    0.11    0.28
  26  10  12   -0.02    0.23
 -28 -10 -12    0.51    0.38
  28  10  12    0.14    0.26
 -30 -10 -12    0.57    0.42
 -28  12  12   18.56    1.15
 -26  12  12   -0.11    0.27
 -24  12  12   30.84    1.36
 -22  12  12   -0.13    0.21
 -20  12  12   20.74    1.02
 -18  12  12   -0.22    0.20
 -16  12  12   66.54    1.84
 -14  12  12    1.11    0.30
 -12  12  12   34.82    1.19
  10 -12 -12    0.02    0.10
 -10  12  12    0.59    0.18
 -10  12  12    0.29    0.18
   8 -12 -12  122.02    2.13
  -8  12  12  118.10    2.47
  -8  12  12  121.63    2.15
   6 -12 -12   -0.13    0.11
  -6  12  12    0.00    0.13
  -6  12  12   -0.01    0.12
  -4  12  12   81.82    1.65
  -4  12  12   82.94    1.90
  -2  12  12    0.54    0.16
   0  12  12  170.41    2.82
   2  12  12    0.31    0.14
   4  12  12   85.22    1.76
   6  12  12    0.13    0.11
   8  12  12  127.94    2.43
  10  12  12    0.34    0.16
  12  12  12   35.57    1.13
  14  12  12    1.03    0.25
 -16 -12 -12   60.75    1.62
  16  12  12   62.06    1.63
 -18 -12 -12   -0.01    0.15
  18  12  12   -0.23    0.17
 -20 -12 -12   21.29    1.04
 -20 -12 -12   20.55    0.94
  20  12  12   20.04    0.94
 -22 -12 -12   -0.10    0.17
 -22 -12 -12    0.18    0.29
  22  12  12    0.14    0.18
 -24 -12 -12   28.05    1.31
 -24 -12 -12   29.28    1.20
  24  12  12   28.31    1.19
 -26 -12 -12   -0.32    0.30
 -26 -12 -12    0.08    0.23
  26  12  12   -0.04    0.22
 -28 -12 -12   14.92    1.05
  28  12  12   18.22    1.03
 -28  14  12    0.39    0.32
 -26  14  12    1.30    0.45
 -24  14  12    0.13    0.32
 -22  14  12    0.01    0.24
 -20  14  12    0.02    0.26
 -18  14  12    1.63    0.38
 -16  14  12    0.78    0.29
 -14  14  12    0.46    0.23
 -12  14  12    0.71    0.24
 -10  14  12    1.73    0.33
  -8  14  12    0.21    0.16
  -8  14  12    0.23    0.17
  -6  14  12    0.98    0.26
  -6  14  12    0.55    0.18
  -4  14  12    0.88    0.20
  -4  14  12    1.20    0.27
  -2  14  12    7.21    0.44
   0  14  12    0.03    0.13
   2  14  12    7.55    0.45
   4  14  12    1.30    0.23
   6  14  12    1.23    0.24
   8  14  12    0.20    0.15
  10  14  12    2.71    0.34
  12  14  12    0.74    0.22
  14  14  12    0.35    0.20
 -16 -14 -12    0.68    0.24
  16  14  12    0.90    0.27
 -18 -14 -12    1.23    0.31
 -20 -14 -12    0.27    0.20
 -22 -14 -12   -0.10    0.18
 -24 -14 -12    0.48    0.26
 -26 -14 -12    1.02    0.36
 -26 -14 -12    1.58    0.50
  26  14  12    1.17    0.39
 -28 -14 -12   -0.28    0.35
 -26  16  12    0.03    0.36
 -24  16  12   17.40    1.10
 -22  16  12   -0.10    0.25
 -20  16  12   34.52    1.43
 -18  16  12   -0.05    0.21
 -16  16  12   51.36    1.69
 -14  16  12    0.61    0.27
 -12  16  12   65.89    1.84
 -10  16  12    0.64    0.24
  -8  16  12   63.45    1.72
  -6  16  12    0.20    0.17
  -6  16  12    0.29    0.17
  -4  16  12   96.74    2.22
  -4  16  12   97.08    1.91
  -2  16  12    1.38    0.23
  -2  16  12    1.02    0.29
   0  16  12   66.96    1.53
   2  16  12    1.09    0.22
   4  16  12  100.78    2.08
   6  16  12   -0.02    0.13
   8  16  12   63.84    1.63
  10  16  12    0.66    0.21
  12  16  12   63.61    1.68
 -14 -16 -12    0.95    0.28
  14  16  12    0.44    0.20
 -16 -16 -12   48.02    1.50
  16  16  12   48.93    1.51
 -18 -16 -12    0.28    0.21
 -20 -16 -12   31.39    1.26
 -22 -16 -12    0.13    0.23
 -24 -16 -12   16.17    0.94
 -26  18  12    0.78    0.44
 -24  18  12    0.12    0.31
 -22  18  12    0.45    0.36
 -20  18  12   -0.16    0.27
 -18  18  12    0.34    0.27
 -16  18  12    0.16    0.20
 -14  18  12    2.30    0.40
 -12  18  12   -0.06    0.17
 -10  18  12    0.43    0.23
  -8  18  12    0.34    0.20
  -6  18  12    0.14    0.16
  -4  18  12    0.16    0.16
  -4  18  12    0.36    0.21
  -2  18  12    1.35    0.29
  -2  18  12    1.52    0.26
   0  18  12   -0.09    0.12
   2  18  12    2.28    0.31
   4  18  12    0.20    0.15
   6  18  12   -0.11    0.11
   8  18  12    0.06    0.14
  10  18  12    0.72    0.24
  12  18  12    0.18    0.15
 -14 -18 -12    2.31    0.40
  14  18  12    1.60    0.32
 -16 -18 -12    0.23    0.21
  16  18  12   -0.20    0.12
 -18 -18 -12   -0.27    0.13
 -20 -18 -12   -0.11    0.22
 -22 -18 -12    0.34    0.27
 -24  20  12   21.24    1.25
 -22  20  12    0.06    0.28
 -20  20  12   15.69    1.00
 -18  20  12   -0.04    0.23
 -16  20  12   35.59    1.45
 -14  20  12    0.56    0.27
 -12  20  12   23.09    1.09
 -10  20  12    0.28    0.24
  -8  20  12   57.81    1.72
  -6  20  12    0.35    0.22
  -4  20  12   30.55    1.19
  -2  20  12    0.42    0.25
  -2  20  12    1.00    0.24
   0  20  12   50.55    1.55
   0  20  12   48.48    1.33
   2  20  12    0.63    0.21
   4  20  12   31.19    1.08
   6  20  12   -0.03    0.13
   8  20  12   57.72    1.63
  10  20  12    0.18    0.19
  12  20  12   22.01    0.99
 -14 -20 -12    0.17    0.21
  14  20  12    0.43    0.22
 -16 -20 -12   35.01    1.34
  16  20  12   35.33    1.34
 -18 -20 -12    0.30    0.29
 -20 -20 -12   15.35    0.91
 -22  22  12    0.02    0.29
 -20  22  12   -0.07    0.27
 -18  22  12    0.84    0.34
 -16  22  12   -0.07    0.22
 -14  22  12    0.26    0.24
 -12  22  12   -0.16    0.16
 -10  22  12    0.19    0.21
  -8  22  12    0.34    0.23
  -6  22  12    0.26    0.23
  -4  22  12    0.06    0.19
  -2  22  12    0.34    0.21
   0  22  12   -0.02    0.17
   0  22  12    0.26    0.23
   2  22  12    0.12    0.16
   4  22  12   -0.09    0.13
   6  22  12    0.00    0.17
   8  22  12   -0.23    0.13
  10  22  12    0.24    0.20
  12  22  12    0.27    0.19
  14  22  12    0.04    0.18
 -16 -22 -12    0.09    0.26
  16  22  12   -0.02    0.17
 -18 -22 -12    0.73    0.32
  18  22  12    0.80    0.29
 -20  24  12   20.98    1.21
 -18  24  12    0.11    0.27
 -16  24  12   19.87    1.14
 -14  24  12    0.12    0.28
 -12  24  12   29.35    1.32
 -10  24  12   -0.09    0.24
  -8  24  12   27.22    1.21
  -6  24  12   -0.05    0.24
  -4  24  12   50.20    1.66
  -2  24  12   -0.04    0.22
   0  24  12   24.46    1.12
   2  24  12    0.38    0.21
   2  24  12   -0.04    0.24
   4  24  12   48.95    1.48
   6  24  12    0.15    0.19
   8  24  12   27.05    1.13
  10  24  12    0.21    0.22
  12  24  12   31.16    1.26
  14  24  12    0.17    0.22
  16  24  12   16.40    0.94
 -18  26  12    0.55    0.36
 -16  26  12    0.09    0.31
 -14  26  12    0.88    0.41
 -12  26  12    0.27    0.27
 -10  26  12    0.27    0.26
  -8  26  12    0.74    0.31
  -6  26  12    1.12    0.35
  -4  26  12    0.22    0.25
  -2  26  12    0.29    0.23
   0  26  12    0.03    0.22
   2  26  12    0.26    0.24
   4  26  12    0.19    0.21
   4  26  12    0.10    0.22
   6  26  12    1.22    0.30
   8  26  12   -0.02    0.19
  10  26  12   -0.11    0.19
  12  26  12   -0.01    0.22
  14  26  12    1.66    0.40
 -14  28  12    0.21    0.31
 -12  28  12   17.94    1.10
 -10  28  12    0.25    0.32
  -8  28  12   24.25    1.21
  -6  28  12    0.08    0.28
  -4  28  12   17.81    1.01
  -2  28  12   -0.25    0.23
   0  28  12   28.57    1.28
   2  28  12    0.00    0.26
   4  28  12   20.54    1.08
   6  28  12    0.24    0.30
   8  28  12   24.94    1.13
  10  28  12    0.50    0.27
  12  28  12   17.39    1.01
 -10  30  12    0.43    0.32
  -8  30  12    0.06    0.28
  -6  30  12    0.36    0.29
  -4  30  12    0.11    0.26
  -2  30  12    0.36    0.27
   0  30  12   -0.08    0.25
   2  30  12    0.45    0.31
   5  31 -13   -0.29    0.26
   3  31 -13    0.21    0.32
   1  31 -13    0.48    0.39
  -1  31 -13    0.51    0.35
  -3  31 -13    0.25    0.31
  -5  31 -13   -0.18    0.27
   9  29 -13    0.36    0.33
   7  29 -13    0.03    0.30
   5  29 -13   -0.05    0.29
   3  29 -13   -0.03    0.25
   1  29 -13   -0.01    0.27
  -1  29 -13    0.01    0.27
  -3  29 -13    0.28    0.29
  -5  29 -13   -0.13    0.25
  -7  29 -13    0.15    0.30
  -9  29 -13    0.11    0.32
 -11  29 -13   -0.23    0.29
 -13 -27  13    0.00    0.32
  11  27 -13    0.13    0.30
 -11 -27  13    0.08    0.26
   9  27 -13    0.07    0.30
  -9 -27  13   -0.12    0.26
   7  27 -13    0.15    0.28
   5  27 -13    0.29    0.29
   3  27 -13    0.51    0.31
   1  27 -13   -0.12    0.26
  -1  27 -13    0.00    0.24
  -3  27 -13   -0.17    0.21
  -5  27 -13    0.22    0.28
  -7  27 -13   -0.35    0.30
  -9  27 -13   -0.22    0.31
 -11  27 -13    0.27    0.34
 -13  27 -13    0.02    0.33
 -15  27 -13    0.64    0.41
 -15 -25  13    0.31    0.32
 -13 -25  13   -0.04    0.23
  11  25 -13   -0.18    0.25
 -11 -25  13    0.18    0.24
   9  25 -13    0.33    0.28
  -9 -25  13   -0.10    0.23
   7  25 -13   -0.18    0.21
  -7 -25  13   -0.06    0.20
   5  25 -13   -0.22    0.20
   3  25 -13   -0.14    0.23
   1  25 -13   -0.01    0.22
  -1  25 -13   -0.48    0.16
  -3  25 -13    0.21    0.25
  -5  25 -13   -0.11    0.24
  -7  25 -13    0.13    0.31
  -9  25 -13    0.30    0.32
 -11  25 -13    0.12    0.32
 -13  25 -13    0.11    0.32
 -15  25 -13    0.33    0.33
 -17  25 -13    0.23    0.31
 -19  25 -13   -0.15    0.35
 -17 -23  13    0.43    0.33
 -15 -23  13    0.31    0.27
  13  23 -13   -0.18    0.25
 -13 -23  13   -0.05    0.21
  11  23 -13    0.19    0.26
 -11 -23  13   -0.25    0.18
   9  23 -13   -0.18    0.24
  -9 -23  13    0.61    0.28
   7  23 -13    0.23    0.26
  -7 -23  13   -0.19    0.18
   5  23 -13   -0.11    0.21
  -5 -23  13    0.26    0.23
   3  23 -13    0.23    0.25
   1  23 -13    0.16    0.22
  -1  23 -13   -0.39    0.18
  -3  23 -13    0.00    0.23
  -5  23 -13    0.06    0.26
  -7  23 -13   -0.10    0.24
  -9  23 -13    0.21    0.27
 -11  23 -13    0.08    0.29
 -13  23 -13   -0.18    0.24
 -15  23 -13    0.43    0.33
 -17  23 -13   -0.07    0.32
 -19  23 -13    0.22    0.33
 -21  23 -13    0.18    0.38
 -19 -21  13   -0.13    0.27
 -17 -21  13   -0.02    0.20
 -15 -21  13    0.06    0.22
  13  21 -13   -0.07    0.21
 -13 -21  13   -0.16    0.21
  11  21 -13   -0.05    0.22
 -11 -21  13    0.02    0.18
   9  21 -13    0.23    0.23
  -9 -21  13    0.24    0.21
   7  21 -13    0.54    0.26
  -7 -21  13    0.54    0.24
   5  21 -13   -0.05    0.18
  -5 -21  13   -0.05    0.18
   3  21 -13    0.12    0.23
  -3 -21  13    0.22    0.20
   1  21 -13    0.02    0.21
  -1  21 -13    0.19    0.24
  -3  21 -13   -0.25    0.17
  -5  21 -13   -0.24    0.21
  -7  21 -13    0.62    0.28
  -9  21 -13    0.09    0.23
 -11  21 -13   -0.04    0.23
 -13  21 -13   -0.05    0.26
 -15  21 -13    0.35    0.28
 -17  21 -13    0.37    0.30
 -19  21 -13    0.03    0.31
 -21  21 -13    0.07    0.36
 -21 -19  13    0.12    0.29
 -19 -19  13    0.12    0.24
 -17 -19  13    0.11    0.24
  15  19 -13    0.05    0.22
 -15 -19  13   -0.19    0.19
  13  19 -13   -0.27    0.20
 -13 -19  13    0.02    0.18
  11  19 -13   -0.01    0.22
 -11 -19  13    0.10    0.19
   9  19 -13    0.19    0.23
  -9 -19  13   -0.31    0.16
   7  19 -13    0.46    0.26
  -7 -19  13    0.26    0.21
   5  19 -13    0.01    0.20
  -5 -19  13   -0.12    0.14
   3  19 -13    0.15    0.22
  -3 -19  13   -0.01    0.17
   1  19 -13    0.21    0.22
  -1 -19  13    0.18    0.16
  -1  19 -13   -0.16    0.15
  -3  19 -13    0.03    0.19
  -5  19 -13   -0.16    0.22
  -7  19 -13    0.30    0.26
  -9  19 -13   -0.19    0.21
 -11  19 -13   -0.27    0.20
 -13  19 -13   -0.25    0.23
 -15  19 -13    0.21    0.28
 -17  19 -13    0.10    0.26
 -19  19 -13   -0.25    0.26
 -21  19 -13    0.02    0.28
 -23  19 -13    0.08    0.32
 -25  19 -13    0.00    0.33
 -23 -17  13    0.17    0.24
 -21 -17  13   -0.11    0.19
 -19 -17  13   -0.38    0.19
 -17 -17  13    0.00    0.19
  15  17 -13    0.59    0.28
 -15 -17  13    0.50    0.25
  13  17 -13   -0.08    0.20
 -13 -17  13    0.10    0.19
  11  17 -13    0.78    0.27
 -11 -17  13    0.80    0.25
   9  17 -13    0.17    0.21
  -9 -17  13    0.21    0.17
   7  17 -13    1.49    0.32
  -7 -17  13    1.39    0.27
   5  17 -13    1.02    0.28
  -5 -17  13    0.83    0.23
   3  17 -13    0.11    0.18
  -3 -17  13    0.37    0.17
   1  17 -13    0.92    0.26
  -1 -17  13    1.23    0.23
  -1  17 -13    0.47    0.22
   1 -17  13    0.63    0.18
  -3  17 -13   -0.01    0.21
  -5  17 -13    1.19    0.30
  -7  17 -13    1.53    0.32
  -9  17 -13    0.09    0.22
 -11  17 -13    0.53    0.27
 -13  17 -13   -0.07    0.22
 -15  17 -13    0.61    0.29
 -15  17 -13    0.43    0.24
 -17  17 -13    0.14    0.25
 -17  17 -13   -0.15    0.22
 -19  17 -13    0.94    0.33
 -19  17 -13    0.08    0.23
 -21  17 -13   -0.17    0.25
 -23  17 -13    0.24    0.32
 -25  17 -13    0.19    0.32
 -25 -15  13   -0.01    0.20
 -23 -15  13   -0.03    0.21
 -21 -15  13   -0.29    0.14
 -19 -15  13    0.05    0.17
 -17 -15  13    0.62    0.25
 -15 -15  13   -0.14    0.15
  13  15 -13   -0.15    0.20
 -13 -15  13   -0.01    0.17
  11  15 -13    0.21    0.21
 -11 -15  13    0.43    0.21
   9  15 -13   -0.22    0.19
  -9 -15  13    0.13    0.15
   7  15 -13    0.08    0.18
  -7 -15  13   -0.04    0.14
   5  15 -13    0.81    0.26
  -5 -15  13    0.89    0.22
   3  15 -13    0.20    0.20
  -3 -15  13    0.13    0.13
   1  15 -13    0.07    0.18
  -1 -15  13   -0.14    0.10
  -1  15 -13   -0.14    0.15
   1 -15  13    0.01    0.11
  -3  15 -13    0.11    0.21
   3 -15  13    0.41    0.15
  -5  15 -13    1.02    0.27
  -7  15 -13    0.00    0.18
  -9  15 -13    0.16    0.21
 -11  15 -13    0.14    0.21
 -11  15 -13    0.22    0.23
 -13  15 -13   -0.24    0.21
 -13  15 -13    0.14    0.24
 -15  15 -13   -0.05    0.20
 -15  15 -13    0.09    0.20
 -17  15 -13    0.33    0.27
 -17  15 -13    0.61    0.30
 -19  15 -13    0.03    0.25
 -19  15 -13   -0.05    0.24
 -21  15 -13   -0.18    0.23
 -23  15 -13    0.18    0.28
 -25  15 -13   -0.25    0.27
 -27  15 -13    0.11    0.29
 -25 -13  13    0.35    0.25
 -23 -13  13    0.02    0.19
 -21 -13  13    0.01    0.18
 -19 -13  13    0.52    0.22
 -17 -13  13   -0.05    0.15
 -15 -13  13   -0.11    0.16
  13  13 -13    0.10    0.22
 -13 -13  13   -0.02    0.13
  11  13 -13   -0.04    0.18
 -11 -13  13    0.15    0.17
   9  13 -13    0.01    0.18
  -9 -13  13   -0.08    0.11
   7  13 -13   -0.02    0.16
  -7 -13  13    0.07    0.13
   5  13 -13   -0.05    0.14
  -5 -13  13    0.01    0.12
   3  13 -13   -0.08    0.15
  -3 -13  13   -0.02    0.10
   1  13 -13   -0.15    0.12
  -1 -13  13   -0.02    0.11
  -1  13 -13   -0.10    0.15
   1 -13  13   -0.08    0.09
  -3  13 -13   -0.16    0.12
   3 -13  13    0.04    0.10
  -5  13 -13   -0.10    0.12
   5 -13  13    0.01    0.09
  -7  13 -13   -0.07    0.12
  -7  13 -13   -0.31    0.12
   7 -13  13   -0.02    0.09
  -9  13 -13    0.08    0.17
  -9  13 -13    0.03    0.16
 -11  13 -13   -0.13    0.16
 -11  13 -13   -0.02    0.19
 -13  13 -13    0.01    0.18
 -13  13 -13    0.09    0.18
 -15  13 -13   -0.12    0.18
 -15  13 -13   -0.17    0.17
 -17  13 -13    0.00    0.22
 -17  13 -13   -0.26    0.18
 -19  13 -13   -0.06    0.22
 -21  13 -13    0.01    0.24
 -23  13 -13    0.00    0.26
 -25  13 -13    0.35    0.31
 -27  13 -13    0.30    0.33
 -27 -11  13    0.20    0.26
 -25 -11  13    0.20    0.24
 -23 -11  13    0.26    0.22
 -21 -11  13   -0.04    0.16
 -19 -11  13   -0.09    0.15
 -17 -11  13    1.07    0.27
 -15 -11  13    0.20    0.19
 -13 -11  13    0.05    0.14
  11  11 -13   -0.11    0.16
 -11 -11  13   -0.09    0.12
   9  11 -13    0.16    0.22
  -9 -11  13    0.40    0.18
   7  11 -13    0.23    0.19
  -7 -11  13    0.32    0.16
   5  11 -13    2.37    0.32
  -5 -11  13    2.78    0.30
   3  11 -13    2.44    0.31
  -3 -11  13    2.69    0.29
   1  11 -13    0.06    0.14
  -1 -11  13   -0.06    0.09
  -1  11 -13    0.01    0.12
   1 -11  13   -0.02    0.10
  -3  11 -13    2.56    0.32
   3 -11  13    2.29    0.24
  -5  11 -13    2.40    0.23
  -5  11 -13    2.57    0.32
   5 -11  13    2.46    0.24
  -7  11 -13    0.33    0.16
  -7  11 -13   -0.05    0.17
   7 -11  13    0.20    0.11
  -9  11 -13    0.00    0.16
  -9  11 -13    0.43    0.18
   9 -11  13    0.24    0.13
 -11  11 -13    0.10    0.18
 -11  11 -13    0.02    0.16
 -13  11 -13   -0.05    0.17
 -13  11 -13    0.06    0.17
 -15  11 -13    0.32    0.23
 -15  11 -13    0.20    0.23
 -17  11 -13    0.61    0.25
 -17  11 -13    0.70    0.26
 -19  11 -13   -0.07    0.20
 -21  11 -13    0.20    0.25
 -23  11 -13   -0.09    0.24
 -25  11 -13    0.33    0.29
 -27  11 -13    0.11    0.31
 -29  11 -13    0.27    0.34
 -29  -9  13   -0.07    0.28
 -27  -9  13    0.15    0.23
 -25  -9  13    0.23    0.24
 -23  -9  13    0.15    0.20
 -21  -9  13    0.11    0.19
 -19  -9  13    0.15    0.17
 -17  -9  13    0.11    0.14
 -15  -9  13    0.13    0.14
 -13  -9  13    0.06    0.13
 -11  -9  13    0.36    0.17
   9   9 -13   -0.12    0.15
  -9  -9  13    0.03    0.11
   7   9 -13    0.46    0.18
  -7  -9  13    0.16    0.14
   5   9 -13   -0.04    0.13
  -5  -9  13    0.05    0.11
   3   9 -13    0.02    0.12
  -3  -9  13    0.06    0.11
   1   9 -13    0.16    0.14
  -1  -9  13    0.32    0.13
  -1   9 -13    0.44    0.17
  -1   9 -13    0.46    0.11
   1  -9  13    0.43    0.14
  -3   9 -13    0.17    0.16
  -3   9 -13    0.16    0.10
   3  -9  13    0.33    0.12
  -5   9 -13    0.07    0.11
  -5   9 -13    0.01    0.13
   5  -9  13    0.03    0.10
  -7   9 -13    0.36    0.15
  -7   9 -13    0.21    0.17
   7  -9  13    0.22    0.12
  -9   9 -13    0.05    0.15
  -9   9 -13    0.17    0.14
   9  -9  13    0.08    0.10
 -11   9 -13    0.17    0.17
 -11   9 -13    0.42    0.14
 -11   9 -13    0.27    0.17
  11  -9  13    0.16    0.13
 -13   9 -13    0.06    0.15
 -13   9 -13    0.05    0.15
 -15   9 -13    0.14    0.18
 -15   9 -13    0.23    0.20
 -17   9 -13    0.19    0.20
 -19   9 -13    0.08    0.19
 -21   9 -13    0.08    0.22
 -23   9 -13    0.17    0.26
 -25   9 -13    0.02    0.25
 -27   9 -13   -0.07    0.27
 -29   9 -13    0.20    0.30
 -29  -7  13    0.18    0.25
 -27  -7  13   -0.31    0.22
 -25  -7  13    0.28    0.22
 -23  -7  13   -0.11    0.19
 -21  -7  13    0.87    0.26
 -19  -7  13    0.39    0.21
 -17  -7  13    1.93    0.31
 -15  -7  13   -0.13    0.11
 -13  -7  13    0.09    0.12
 -11  -7  13    0.02    0.11
  -9  -7  13    0.24    0.15
   7   7 -13   -0.07    0.13
  -7  -7  13   -0.11    0.09
   5   7 -13    0.64    0.20
  -5  -7  13    0.75    0.17
   3   7 -13    0.83    0.21
  -3  -7  13    1.05    0.19
   1   7 -13    0.95    0.20
  -1  -7  13    0.75    0.16
  -1   7 -13    1.03    0.21
   1  -7  13    0.91    0.17
  -3   7 -13    0.86    0.21
  -3   7 -13    0.73    0.15
   3  -7  13    0.62    0.15
  -5   7 -13    0.45    0.13
  -5   7 -13    0.41    0.17
   5  -7  13    0.45    0.14
  -7   7 -13   -0.02    0.14
  -7   7 -13   -0.04    0.11
   7  -7  13   -0.08    0.09
  -9   7 -13    0.23    0.16
  -9   7 -13   -0.01    0.12
  -9   7 -13    0.48    0.13
   9  -7  13    0.34    0.15
 -11   7 -13    0.06    0.16
 -11   7 -13    0.21    0.11
 -11   7 -13    0.09    0.16
  11  -7  13    0.23    0.14
 -13   7 -13    0.15    0.16
 -13   7 -13    0.17    0.15
  13  -7  13    0.02    0.12
 -15   7 -13   -0.07    0.15
 -15   7 -13   -0.06    0.15
 -17   7 -13    1.19    0.29
 -19   7 -13    0.52    0.23
 -21   7 -13    1.14    0.32
 -23   7 -13    0.32    0.26
 -25   7 -13   -0.05    0.22
 -27   7 -13    0.05    0.26
 -29   7 -13    0.29    0.30
 -27  -5  13    0.12    0.20
 -25  -5  13   -0.11    0.18
 -23  -5  13    0.27    0.20
 -21  -5  13    0.13    0.16
 -19  -5  13   -0.09    0.11
 -17  -5  13    0.91    0.24
 -15  -5  13    0.84    0.21
 -13  -5  13   -0.02    0.11
 -11  -5  13    2.05    0.27
  -9  -5  13    0.04    0.09
  -9  -5  13    0.03    0.11
  -7  -5  13    0.56    0.11
  -7  -5  13    0.50    0.15
  -5  -5  13   -0.01    0.08
  -5  -5  13   -0.01    0.07
   3   5 -13    0.17    0.13
  -3  -5  13    0.12    0.11
   1   5 -13    3.15    0.30
  -1  -5  13    3.31    0.28
  -1   5 -13    3.74    0.31
   1  -5  13    2.97    0.27
  -3   5 -13    0.07    0.13
  -3   5 -13    0.00    0.09
   3  -5  13    0.22    0.11
  -5   5 -13   -0.07    0.10
  -5   5 -13    0.17    0.11
   5  -5  13   -0.11    0.08
  -7   5 -13    0.56    0.16
  -7   5 -13    0.68    0.17
   7  -5  13    0.48    0.15
  -9   5 -13    0.09    0.11
  -9   5 -13    0.04    0.12
  -9   5 -13   -0.14    0.12
   9  -5  13    0.05    0.11
 -11   5 -13    2.39    0.30
 -11   5 -13    2.19    0.25
  11  -5  13    2.51    0.26
 -13   5 -13   -0.05    0.12
 -13   5 -13   -0.16    0.13
  13  -5  13   -0.09    0.10
 -15   5 -13    0.95    0.26
  15  -5  13    1.15    0.22
 -17   5 -13    0.68    0.24
 -19   5 -13   -0.30    0.13
 -21   5 -13   -0.11    0.17
 -23   5 -13   -0.21    0.23
 -25   5 -13   -0.34    0.23
 -27   5 -13    0.04    0.26
 -29   5 -13    0.45    0.34
 -31   5 -13    0.44    0.38
 -25  -3  13   -0.09    0.18
 -23  -3  13    0.43    0.22
 -21  -3  13   -0.08    0.16
 -19  -3  13    0.09    0.17
 -17  -3  13    0.31    0.17
 -15  -3  13    0.21    0.14
 -15  -3  13    0.31    0.17
 -13  -3  13    0.13    0.13
 -13  -3  13   -0.18    0.08
 -11  -3  13    2.26    0.27
 -11  -3  13    2.31    0.23
  -9  -3  13    0.11    0.12
  -9  -3  13    0.11    0.11
  -7  -3  13    0.83    0.14
  -7  -3  13    1.01    0.19
  -5  -3  13    0.13    0.10
  -5  -3  13    0.08    0.09
  -3  -3  13    0.03    0.09
   1   3 -13    0.21    0.15
  -1  -3  13    0.67    0.16
  -1   3 -13    0.60    0.17
   1  -3  13    0.47    0.14
  -3   3 -13   -0.04    0.12
   3  -3  13    0.10    0.11
  -5   3 -13    0.14    0.11
  -5   3 -13    0.19    0.13
   5  -3  13    0.05    0.10
  -7   3 -13    1.08    0.18
  -7   3 -13    0.63    0.18
  -7   3 -13    0.63    0.18
   7  -3  13    1.10    0.18
  -9   3 -13    0.15    0.10
  -9   3 -13   -0.06    0.10
  -9   3 -13    0.27    0.13
   9  -3  13    0.12    0.11
 -11   3 -13    2.83    0.27
 -11   3 -13    2.38    0.30
  11  -3  13    2.40    0.25
 -13   3 -13    0.09    0.14
 -13   3 -13   -0.13    0.13
  13  -3  13    0.01    0.11
 -15   3 -13    0.33    0.21
  15  -3  13    0.39    0.16
 -17   3 -13    0.04    0.16
  17  -3  13    0.13    0.15
 -19   3 -13   -0.10    0.17
 -21   3 -13    0.22    0.24
 -23   3 -13    0.31    0.28
 -25   3 -13    0.14    0.26
 -27   3 -13    0.09    0.26
 -29   3 -13    0.21    0.30
 -31   3 -13   -0.06    0.30
 -25  -1  13   -0.10    0.19
 -23  -1  13    0.13    0.17
 -21  -1  13   -0.10    0.13
 -19  -1  13   -0.14    0.15
 -19  -1  13   -0.15    0.13
 -17  -1  13    0.83    0.22
 -17  -1  13    0.79    0.22
 -15  -1  13    0.12    0.12
 -15  -1  13    0.14    0.15
 -13  -1  13    0.02    0.12
 -13  -1  13    0.00    0.13
 -11  -1  13    0.00    0.10
 -11  -1  13    0.01    0.12
  -9  -1  13    0.35    0.15
  -9  -1  13    0.33    0.13
  -7  -1  13    1.12    0.20
  -7  -1  13    1.37    0.18
  -5  -1  13    3.32    0.28
  -5  -1  13    3.45    0.26
  -3  -1  13    0.34    0.13
  -1  -1  13    0.04    0.08
   1  -1  13   -0.06    0.08
  -3   1 -13    0.47    0.16
   3  -1  13    0.63    0.15
  -5   1 -13    3.74    0.30
  -5   1 -13    3.18    0.27
   5  -1  13    3.92    0.31
  -7   1 -13    1.04    0.18
  -7   1 -13    0.78    0.19
  -7   1 -13    0.81    0.17
   7  -1  13    1.43    0.21
  -9   1 -13    0.50    0.16
  -9   1 -13    0.47    0.15
   9  -1  13    0.82    0.17
 -11   1 -13    0.01    0.14
 -11   1 -13    0.01    0.11
  11  -1  13   -0.15    0.11
 -13   1 -13   -0.07    0.11
  13  -1  13    0.06    0.11
 -15   1 -13    0.04    0.16
  15  -1  13    0.03    0.12
 -17   1 -13    0.72    0.24
  17  -1  13    0.71    0.19
 -19   1 -13    0.02    0.18
  19  -1  13    0.16    0.16
 -21   1 -13   -0.09    0.17
 -23   1 -13   -0.17    0.19
 -25   1 -13   -0.01    0.22
 -27   1 -13    0.12    0.28
 -29   1 -13    0.06    0.33
 -31   1 -13   -0.24    0.34
 -25   1  13   -0.06    0.25
 -23   1  13    0.00    0.19
 -23   1  13    0.39    0.27
 -21   1  13    0.19    0.17
 -21   1  13    0.08    0.22
 -19   1  13   -0.05    0.14
 -19   1  13   -0.06    0.19
 -17   1  13    1.04    0.25
 -17   1  13    0.72    0.21
 -15   1  13   -0.16    0.14
 -15   1  13   -0.05    0.12
 -13   1  13   -0.05    0.11
 -13   1  13    0.01    0.13
 -11   1  13   -0.12    0.11
 -11   1  13    0.07    0.12
  -9   1  13    0.38    0.14
  -9   1  13    0.32    0.13
  -7   1  13    0.96    0.17
  -7   1  13    0.77    0.17
  -5   1  13    3.63    0.29
  -5   1  13    4.16    0.32
  -3   1  13    0.72    0.16
  -1   1  13   -0.01    0.08
   1   1  13   -0.01    0.08
   3   1  13    0.43    0.14
  -5  -1 -13    3.44    0.28
   5   1  13    3.56    0.29
  -7  -1 -13    0.95    0.20
  -7  -1 -13    0.81    0.16
   7   1  13    1.04    0.19
  -9  -1 -13    0.62    0.19
   9   1  13    0.54    0.15
 -11  -1 -13   -0.16    0.12
  11   1  13   -0.11    0.10
 -13  -1 -13    0.02    0.15
  13   1  13   -0.02    0.12
 -15  -1 -13    0.05    0.15
  15   1  13   -0.04    0.11
 -17  -1 -13    0.53    0.22
  17   1  13    0.52    0.18
 -19  -1 -13   -0.35    0.12
  19   1  13   -0.14    0.13
 -21  -1 -13    0.13    0.20
  21   1  13   -0.11    0.16
 -23  -1 -13    0.12    0.24
 -25  -1 -13    0.23    0.28
 -27  -1 -13    0.10    0.31
 -29  -1 -13    0.22    0.34
 -31  -1 -13   -0.06    0.31
 -27   3  13   -0.09    0.29
 -25   3  13   -0.11    0.26
 -23   3  13    0.36    0.28
 -21   3  13    0.11    0.21
 -21   3  13    0.01    0.15
 -19   3  13   -0.07    0.16
 -19   3  13    0.04    0.14
 -17   3  13    0.04    0.16
 -17   3  13    0.38    0.16
 -15   3  13    0.38    0.16
 -15   3  13    0.34    0.19
 -13   3  13   -0.02    0.11
 -13   3  13    0.03    0.13
 -11   3  13    2.37    0.27
 -11   3  13    2.80    0.29
  -9   3  13    0.14    0.12
  -9   3  13    0.13    0.11
  -7   3  13    1.02    0.19
  -7   3  13    1.05    0.20
  -5   3  13    0.06    0.10
  -5   3  13    0.16    0.11
  -3   3  13    0.03    0.09
  -1   3  13    0.62    0.16
   1   3  13    0.37    0.13
  -3  -3 -13   -0.03    0.09
   3   3  13   -0.13    0.08
  -5  -3 -13    0.00    0.09
   5   3  13   -0.02    0.09
   7   3  13    0.77    0.17
  -9  -3 -13    0.46    0.18
   9   3  13    0.10    0.12
 -11  -3 -13    2.28    0.31
  11   3  13    2.38    0.27
 -13  -3 -13    0.00    0.15
  13   3  13    0.12    0.12
 -15  -3 -13    0.26    0.20
  15   3  13    0.38    0.18
 -17  -3 -13   -0.14    0.15
  17   3  13    0.17    0.15
 -19  -3 -13    0.02    0.20
  19   3  13   -0.04    0.15
 -21  -3 -13    0.25    0.24
  21   3  13    0.14    0.18
 -23  -3 -13    0.59    0.29
  23   3  13    0.04    0.18
 -25  -3 -13    0.18    0.26
 -27  -3 -13   -0.21    0.29
 -29  -3 -13   -0.14    0.32
 -31  -3 -13    0.49    0.38
 -31   5  13   -0.11    0.39
 -29   5  13   -0.15    0.32
 -27   5  13    0.09    0.32
 -25   5  13   -0.05    0.24
 -23   5  13    0.40    0.28
 -21   5  13   -0.12    0.20
 -19   5  13    0.12    0.20
 -19   5  13    0.00    0.14
 -17   5  13    1.46    0.25
 -17   5  13    1.17    0.29
 -15   5  13    1.18    0.23
 -15   5  13    1.22    0.27
 -13   5  13   -0.07    0.12
 -13   5  13    0.09    0.14
 -11   5  13    2.40    0.30
 -11   5  13    2.02    0.25
  -9   5  13    0.16    0.12
  -9   5  13   -0.04    0.10
  -7   5  13    0.29    0.14
  -7   5  13    0.66    0.17
  -5   5  13    0.03    0.10
  -5   5  13    0.11    0.11
  -3   5  13    0.01    0.09
  -1   5  13    3.68    0.31
  -1  -5 -13    3.83    0.31
   1   5  13    3.40    0.29
  -3  -5 -13    0.02    0.10
   3   5  13    0.12    0.10
   5   5  13   -0.05    0.08
   7   5  13    0.43    0.15
   9   5  13   -0.09    0.08
 -11  -5 -13    2.19    0.32
  11   5  13    2.53    0.28
 -13  -5 -13    0.11    0.16
  13   5  13    0.01    0.13
 -15  -5 -13    1.13    0.28
  15   5  13    0.80    0.21
 -17  -5 -13    1.70    0.35
  17   5  13    1.20    0.25
 -19  -5 -13   -0.13    0.21
  19   5  13    0.09    0.15
 -21  -5 -13    0.11    0.23
  21   5  13   -0.03    0.17
 -23  -5 -13   -0.01    0.27
  23   5  13    0.20    0.22
 -25  -5 -13    0.03    0.28
  25   5  13   -0.07    0.20
 -27  -5 -13   -0.24    0.31
 -29  -5 -13   -0.21    0.31
 -31  -5 -13    0.14    0.39
 -29   7  13    0.63    0.42
 -27   7  13   -0.35    0.28
 -25   7  13    0.03    0.27
 -23   7  13    0.18    0.27
 -21   7  13    0.85    0.30
 -19   7  13   -0.01    0.22
 -17   7  13    1.23    0.30
 -17   7  13    1.31    0.24
 -15   7  13   -0.04    0.13
 -15   7  13    0.04    0.17
 -13   7  13   -0.06    0.11
 -13   7  13   -0.02    0.13
 -11   7  13    0.17    0.16
 -11   7  13    0.14    0.13
  -9   7  13    0.34    0.15
  -9   7  13    0.06    0.13
  -7   7  13    0.00    0.11
  -7   7  13    0.06    0.12
  -5   7  13    0.32    0.13
  -5   7  13    0.65    0.19
  -3   7  13    0.62    0.16
   1  -7 -13    1.09    0.20
  -1   7  13    1.05    0.19
  -1  -7 -13    1.23    0.21
   1   7  13    0.83    0.17
   3   7  13    0.42    0.15
   5   7  13    0.32    0.13
   7   7  13    0.00    0.10
   9   7  13    0.27    0.14
  11   7  13    0.09    0.14
 -13  -7 -13   -0.11    0.14
  13   7  13    0.02    0.13
 -15  -7 -13   -0.04    0.17
  15   7  13   -0.17    0.13
 -17  -7 -13    1.92    0.36
  17   7  13    1.66    0.30
 -19  -7 -13    0.21    0.23
  19   7  13    0.47    0.25
 -21  -7 -13    0.22    0.26
  21   7  13    0.91    0.27
 -23  -7 -13   -0.33    0.24
  23   7  13    0.15    0.20
 -25  -7 -13   -0.32    0.27
  25   7  13   -0.04    0.21
 -27  -7 -13    0.22    0.31
  27   7  13   -0.03    0.26
 -29  -7 -13    0.30    0.37
 -29   9  13    0.30    0.37
 -27   9  13   -0.15    0.31
 -25   9  13    0.03    0.28
 -23   9  13    0.20    0.28
 -21   9  13    0.34    0.27
 -19   9  13   -0.11    0.18
 -17   9  13    0.10    0.20
 -15   9  13    0.05    0.19
 -15   9  13    0.05    0.13
 -13   9  13   -0.08    0.16
 -13   9  13    0.06    0.12
 -11   9  13    0.59    0.18
 -11   9  13    0.17    0.16
  -9   9  13   -0.01    0.12
  -9   9  13    0.01    0.14
  -7   9  13    0.39    0.18
  -7   9  13    0.22    0.13
  -5   9  13    0.14    0.12
  -5   9  13   -0.01    0.14
   3  -9 -13    0.22    0.13
  -3   9  13   -0.01    0.09
   1  -9 -13    0.77    0.19
  -1   9  13    0.44    0.15
   1   9  13    0.21    0.12
   3   9  13    0.18    0.11
   5   9  13    0.04    0.10
   7   9  13    0.09    0.11
   9   9  13   -0.04    0.12
  11   9  13    0.37    0.16
  13   9  13    0.14    0.15
 -15  -9 -13   -0.09    0.16
  15   9  13    0.13    0.18
 -17  -9 -13    0.37    0.24
  17   9  13    0.31    0.20
 -19  -9 -13   -0.09    0.22
  19   9  13    0.12    0.18
 -21  -9 -13   -0.10    0.24
  21   9  13    0.13    0.21
 -23  -9 -13    0.03    0.27
  23   9  13    0.37    0.22
 -25  -9 -13   -0.26    0.28
  25   9  13   -0.13    0.20
 -27  -9 -13    0.49    0.37
  27   9  13   -0.08    0.25
 -29  -9 -13    0.12    0.37
 -29  11  13   -0.06    0.35
 -27  11  13   -0.01    0.32
 -25  11  13    0.20    0.33
 -23  11  13   -0.27    0.27
 -21  11  13    0.03    0.23
 -19  11  13   -0.13    0.21
 -17  11  13    1.17    0.33
 -15  11  13    0.37    0.23
 -13  11  13    0.02    0.13
 -13  11  13   -0.11    0.17
 -11  11  13    0.25    0.14
 -11  11  13    0.11    0.16
  -9  11  13    0.33    0.16
  -9  11  13    0.17    0.17
   7 -11 -13    0.18    0.14
  -7  11  13    0.23    0.15
  -7  11  13    0.11    0.16
   5 -11 -13    2.31    0.26
  -5  11  13    1.83    0.25
  -5  11  13    2.16    0.31
   3 -11 -13    2.15    0.26
  -3  11  13    2.54    0.28
  -1  11  13   -0.21    0.10
   1  11  13   -0.10    0.09
   3  11  13    2.81    0.30
   5  11  13    2.23    0.27
   7  11  13    0.08    0.13
   9  11  13    0.16    0.14
  11  11  13   -0.06    0.11
  13  11  13    0.06    0.15
  15  11  13    0.57    0.23
  17  11  13    0.80    0.25
 -19 -11 -13    0.03    0.22
  19  11  13    0.09    0.16
 -21 -11 -13    0.00    0.23
  21  11  13    0.05    0.21
 -23 -11 -13    0.02    0.28
  23  11  13    0.26    0.26
 -25 -11 -13   -0.01    0.32
  25  11  13    0.14    0.26
 -27 -11 -13   -0.10    0.31
  27  11  13   -0.05    0.27
 -29 -11 -13   -0.10    0.33
 -27  13  13   -0.27    0.32
 -25  13  13    0.24    0.32
 -23  13  13   -0.43    0.22
 -21  13  13   -0.26    0.21
 -19  13  13   -0.20    0.23
 -17  13  13    0.00    0.21
 -15  13  13   -0.14    0.20
 -13  13  13   -0.15    0.15
 -11  13  13   -0.21    0.14
   9 -13 -13    0.11    0.14
  -9  13  13   -0.04    0.13
  -9  13  13   -0.10    0.11
   7 -13 -13    0.24    0.15
  -7  13  13   -0.06    0.16
  -7  13  13   -0.09    0.12
  -5  13  13    0.02    0.16
  -5  13  13    0.09    0.14
  -3  13  13    0.11    0.12
  -1  13  13   -0.14    0.11
   1  13  13   -0.06    0.09
   3  13  13    0.00    0.10
   5  13  13   -0.07    0.10
   7  13  13   -0.11    0.09
   9  13  13    0.03    0.11
  11  13  13    0.00    0.11
  13  13  13   -0.07    0.15
  15  13  13    0.05    0.15
  17  13  13    0.02    0.17
  19  13  13    0.14    0.20
  21  13  13   -0.15    0.17
  23  13  13   -0.13    0.18
 -25 -13 -13   -0.02    0.32
  25  13  13   -0.03    0.24
 -27 -13 -13   -0.29    0.31
  27  13  13    0.33    0.32
 -27  15  13    0.07    0.34
 -25  15  13   -0.11    0.31
 -23  15  13    0.15    0.33
 -21  15  13   -0.25    0.24
 -19  15  13   -0.12    0.24
 -17  15  13    0.75    0.33
 -15  15  13   -0.30    0.19
 -13  15  13    0.28    0.23
 -11  15  13    0.35    0.23
  -9  15  13    0.00    0.16
  -7  15  13    0.11    0.15
  -7  15  13    0.14    0.17
  -5  15  13    0.76    0.24
  -5  15  13    0.50    0.19
  -3  15  13    0.34    0.21
  -3  15  13    0.27    0.16
  -1  15  13   -0.10    0.12
   1  15  13   -0.10    0.11
   3  15  13    0.54    0.18
   5  15  13    0.92    0.23
   7  15  13   -0.17    0.12
   9  15  13    0.11    0.13
  11  15  13    0.73    0.25
  13  15  13    0.00    0.15
  15  15  13   -0.11    0.15
  17  15  13    0.23    0.21
  19  15  13    0.10    0.22
  21  15  13   -0.20    0.18
  23  15  13    0.10    0.22
  25  15  13    0.01    0.28
 -25  17  13    0.01    0.34
 -23  17  13    0.18    0.34
 -21  17  13   -0.21    0.23
 -19  17  13    0.00    0.22
 -17  17  13    0.26    0.25
 -15  17  13    0.60    0.33
 -13  17  13    0.09    0.22
 -11  17  13    1.09    0.31
  -9  17  13    0.12    0.17
  -7  17  13    1.15    0.28
  -5  17  13    1.07    0.28
  -5  17  13    0.96    0.23
  -3  17  13    0.15    0.19
  -3  17  13    0.07    0.14
  -1  17  13    0.89    0.22
   1  17  13    0.68    0.22
   3  17  13    0.55    0.20
   5  17  13    0.90    0.24
   7  17  13    1.54    0.28
   9  17  13   -0.02    0.13
  11  17  13    1.53    0.31
  13  17  13   -0.02    0.16
  15  17  13    0.52    0.25
  17  17  13   -0.15    0.17
  19  17  13    0.26    0.21
  21  17  13    0.24    0.21
  23  17  13    0.13    0.28
 -25  19  13   -0.02    0.34
 -23  19  13    0.03    0.31
 -21  19  13    0.14    0.32
 -19  19  13   -0.12    0.24
 -17  19  13    0.18    0.28
 -15  19  13   -0.19    0.17
 -13  19  13    0.17    0.21
 -11  19  13    0.17    0.18
  -9  19  13    0.25    0.19
  -7  19  13    0.20    0.19
  -5  19  13    0.08    0.17
  -3  19  13   -0.07    0.13
  -3  19  13    0.16    0.17
  -1  19  13    0.00    0.19
  -1  19  13   -0.03    0.14
   1  19  13    0.36    0.17
   3  19  13   -0.06    0.13
   5  19  13   -0.13    0.14
   7  19  13    0.47    0.24
   9  19  13   -0.18    0.12
  11  19  13   -0.28    0.14
  13  19  13    0.12    0.18
  15  19  13    0.02    0.18
  17  19  13    0.04    0.16
  19  19  13   -0.16    0.20
  21  19  13    0.14    0.25
 -23  21  13    0.04    0.33
 -21  21  13   -0.08    0.27
 -19  21  13   -0.35    0.22
 -17  21  13   -0.10    0.20
 -15  21  13   -0.33    0.21
 -13  21  13   -0.06    0.20
 -11  21  13   -0.05    0.16
  -9  21  13    0.02    0.19
  -7  21  13    0.57    0.26
  -5  21  13    0.14    0.18
  -3  21  13    0.11    0.19
  -1  21  13   -0.01    0.16
  -1  21  13   -0.10    0.18
   1  21  13    0.05    0.15
   3  21  13    0.07    0.15
   5  21  13    0.01    0.15
   7  21  13    1.04    0.28
   9  21  13    0.01    0.16
  11  21  13    0.08    0.18
  13  21  13   -0.12    0.16
  15  21  13    0.02    0.16
  17  21  13    0.05    0.18
  19  21  13   -0.02    0.17
 -21  23  13    0.15    0.31
 -19  23  13   -0.34    0.26
 -17  23  13    0.18    0.28
 -15  23  13    0.01    0.25
 -13  23  13    0.26    0.25
 -11  23  13   -0.01    0.24
  -9  23  13    0.02    0.20
  -7  23  13    0.27    0.22
  -5  23  13    0.44    0.23
  -3  23  13    0.19    0.25
  -1  23  13    0.08    0.20
   1  23  13   -0.35    0.17
   1  23  13   -0.08    0.16
   3  23  13    0.20    0.21
   5  23  13    0.34    0.21
   7  23  13    0.22    0.19
   9  23  13    0.03    0.18
  11  23  13    0.28    0.22
  13  23  13    0.20    0.21
  15  23  13    0.37    0.24
  17  23  13    0.14    0.22
 -19  25  13    0.35    0.33
 -17  25  13   -0.20    0.28
 -15  25  13   -0.29    0.27
 -13  25  13   -0.16    0.23
 -11  25  13   -0.16    0.23
  -9  25  13    0.04    0.24
  -7  25  13    0.12    0.23
  -5  25  13    0.10    0.23
  -3  25  13    0.30    0.24
  -1  25  13   -0.28    0.18
   1  25  13    0.04    0.21
   3  25  13    0.11    0.19
   3  25  13   -0.08    0.21
   5  25  13    0.09    0.19
   7  25  13   -0.04    0.17
   9  25  13    0.18    0.21
  11  25  13    0.14    0.20
  13  25  13    0.21    0.23
  15  25  13    0.15    0.22
 -15  27  13    0.67    0.35
 -13  27  13    0.45    0.30
 -11  27  13    0.03    0.27
  -9  27  13    0.20    0.27
  -7  27  13   -0.09    0.23
  -5  27  13    0.14    0.21
  -3  27  13   -0.06    0.21
  -1  27  13    0.23    0.25
   1  27  13    0.32    0.28
   3  27  13   -0.37    0.22
   5  27  13    0.13    0.27
   5  27  13   -0.16    0.21
   7  27  13    0.04    0.23
   9  27  13   -0.05    0.20
  11  27  13    0.19    0.24
  13  27  13    0.14    0.22
 -11  29  13   -0.20    0.24
  -9  29  13    0.03    0.26
  -7  29  13    0.11    0.27
  -5  29  13    0.03    0.25
  -3  29  13    0.29    0.29
  -1  29  13    0.33    0.29
   1  29  13   -0.05    0.24
   3  29  13    0.17    0.26
   5  29  13   -0.33    0.25
   7  29  13    0.36    0.30
   9  29  13   -0.18    0.21
  -5  31  13    0.21    0.30
  -3  31  13    0.15    0.30
  -1  31  13    0.20    0.29
   1  31  13    0.38    0.30
   8  30 -14    0.75    0.39
   6  30 -14    6.04    0.71
   4  30 -14    0.61    0.36
   2  30 -14    7.17    0.76
   0  30 -14    1.13    0.42
  -2  30 -14    8.23    0.81
  -4  30 -14    0.53    0.35
  -6  30 -14    5.29    0.67
  -8  30 -14    0.17    0.39
  10  28 -14    0.23    0.31
   8  28 -14    0.27    0.31
   6  28 -14    0.57    0.32
   4  28 -14   -0.13    0.26
   2  28 -14    0.85    0.37
   0  28 -14    0.26    0.29
  -2  28 -14    0.48    0.32
  -4  28 -14   -0.12    0.25
  -6  28 -14   -0.24    0.23
  -8  28 -14    0.04    0.34
 -10  28 -14    0.29    0.33
 -12  28 -14    0.21    0.35
 -14 -26  14    5.95    0.69
  12  26 -14    1.54    0.43
 -12 -26  14    1.57    0.43
  10  26 -14    5.05    0.61
 -10 -26  14    6.56    0.66
   8  26 -14    0.15    0.25
  -8 -26  14    0.13    0.26
   6  26 -14    8.22    0.73
   4  26 -14    1.45    0.39
   2  26 -14    9.90    0.79
   0  26 -14    0.36    0.32
  -2  26 -14    9.47    0.79
  -4  26 -14    1.23    0.37
  -6  26 -14    6.11    0.67
  -8  26 -14   -0.18    0.27
 -10  26 -14    6.00    0.68
 -12  26 -14    1.79    0.47
 -14  26 -14    7.46    0.79
 -16  26 -14    0.24    0.36
 -16 -24  14    0.06    0.31
 -14 -24  14   -0.20    0.23
  12  24 -14    0.11    0.27
 -12 -24  14    0.03    0.25
  10  24 -14    1.09    0.35
 -10 -24  14    1.17    0.34
   8  24 -14    0.52    0.30
  -8 -24  14    0.55    0.30
   6  24 -14    0.22    0.27
  -6 -24  14   -0.03    0.21
   4  24 -14    0.51    0.29
   2  24 -14    0.27    0.24
   0  24 -14    0.03    0.21
  -2  24 -14    0.22    0.26
  -4  24 -14    0.34    0.26
  -6  24 -14    0.11    0.25
  -8  24 -14    0.64    0.32
 -10  24 -14    0.56    0.35
 -12  24 -14    0.51    0.35
 -14  24 -14    0.25    0.32
 -16  24 -14    0.46    0.36
 -18  24 -14   -0.32    0.31
 -18 -22  14    3.98    0.58
 -16 -22  14    0.60    0.30
  14  22 -14    5.86    0.62
 -14 -22  14    5.91    0.61
  12  22 -14    0.25    0.28
 -12 -22  14   -0.10    0.20
  10  22 -14    7.00    0.63
 -10 -22  14    7.61    0.62
   8  22 -14    1.35    0.35
  -8 -22  14    1.65    0.34
   6  22 -14   10.18    0.71
  -6 -22  14   10.90    0.69
   4  22 -14    0.11    0.23
  -4 -22  14    0.11    0.19
   2  22 -14    9.99    0.70
   0  22 -14    1.75    0.38
  -2  22 -14    9.48    0.69
  -4  22 -14    0.07    0.25
  -6  22 -14   10.71    0.76
  -8  22 -14    1.72    0.41
 -10  22 -14    7.73    0.69
 -12  22 -14    0.01    0.27
 -14  22 -14    6.64    0.68
 -16  22 -14    0.53    0.34
 -18  22 -14    4.21    0.60
 -20  22 -14    0.24    0.37
 -20 -20  14    0.30    0.28
 -18 -20  14    1.83    0.41
 -16 -20  14    0.09    0.26
  14  20 -14   -0.01    0.23
 -14 -20  14    0.39    0.26
  12  20 -14    0.33    0.26
 -12 -20  14    0.53    0.27
  10  20 -14    1.98    0.37
 -10 -20  14    1.19    0.31
   8  20 -14    0.17    0.24
  -8 -20  14    0.02    0.19
   6  20 -14    0.18    0.23
  -6 -20  14    0.33    0.19
   4  20 -14    0.59    0.26
  -4 -20  14    0.01    0.17
   2  20 -14    2.51    0.40
  -2 -20  14    1.84    0.31
   0  20 -14    0.19    0.20
  -2  20 -14    2.50    0.40
  -4  20 -14    0.38    0.26
  -6  20 -14   -0.10    0.22
  -8  20 -14    0.32    0.24
 -10  20 -14    1.49    0.38
 -12  20 -14    0.29    0.24
 -14  20 -14    0.13    0.29
 -16  20 -14   -0.03    0.30
 -18  20 -14    0.71    0.37
 -20  20 -14    0.20    0.37
 -22 -18  14    4.02    0.56
 -20 -18  14    1.19    0.37
 -18 -18  14    9.46    0.73
 -16 -18  14    0.07    0.19
  14  18 -14   14.43    0.84
 -14 -18  14   14.67    0.84
  12  18 -14    1.78    0.37
 -12 -18  14    1.88    0.37
  10  18 -14   10.92    0.71
 -10 -18  14   11.29    0.69
   8  18 -14    0.40    0.26
  -8 -18  14    1.03    0.27
   6  18 -14   14.16    0.79
  -6 -18  14   14.53    0.72
   4  18 -14    3.65    0.44
  -4 -18  14    3.59    0.39
   2  18 -14   17.15    0.83
  -2 -18  14   18.31    0.76
   0  18 -14    0.73    0.25
   0 -18  14    0.45    0.19
  -2  18 -14   18.68    0.90
  -4  18 -14    3.97    0.45
  -6  18 -14   13.81    0.78
  -8  18 -14    1.09    0.33
 -10  18 -14   12.60    0.78
 -12  18 -14    1.51    0.35
 -14  18 -14   13.93    0.83
 -16  18 -14    0.12    0.27
 -18  18 -14    8.65    0.70
 -20  18 -14    1.55    0.42
 -22  18 -14    3.98    0.57
 -24  18 -14    0.67    0.37
 -22 -16  14    1.22    0.34
 -20 -16  14    0.22    0.24
 -18 -16  14    0.59    0.29
 -16 -16  14    0.32    0.25
  14  16 -14    3.87    0.48
 -14 -16  14    1.76    0.34
  12  16 -14    0.60    0.27
 -12 -16  14    0.79    0.26
  10  16 -14    0.37    0.23
 -10 -16  14    0.31    0.18
   8  16 -14    0.45    0.21
  -8 -16  14    0.53    0.22
   6  16 -14    3.87    0.42
  -6 -16  14    3.67    0.37
   4  16 -14    0.20    0.17
  -4 -16  14    0.08    0.13
   2  16 -14    0.03    0.17
  -2 -16  14   -0.10    0.11
   0  16 -14    0.11    0.17
   0 -16  14    0.21    0.14
  -2  16 -14    0.01    0.19
   2 -16  14    0.01    0.12
  -4  16 -14    0.19    0.21
  -6  16 -14    4.05    0.44
  -8  16 -14    0.29    0.21
 -10  16 -14    0.16    0.22
 -12  16 -14    1.03    0.32
 -14  16 -14    3.39    0.41
 -14  16 -14    3.60    0.47
 -16  16 -14    0.59    0.30
 -16  16 -14    0.22    0.25
 -18  16 -14    0.35    0.29
 -18  16 -14    0.28    0.24
 -20  16 -14    0.25    0.26
 -22  16 -14    0.73    0.36
 -24  16 -14    0.90    0.39
 -26  16 -14    0.17    0.35
 -24 -14  14    0.35    0.25
 -22 -14  14    6.43    0.62
 -20 -14  14    0.64    0.26
 -18 -14  14   13.04    0.78
 -16 -14  14    3.00    0.41
 -14 -14  14   19.78    0.90
  12  14 -14    0.49    0.23
 -12 -14  14    0.07    0.16
  10  14 -14   15.23    0.79
 -10 -14  14   15.99    0.76
   8  14 -14    4.94    0.46
  -8 -14  14    5.03    0.43
   6  14 -14   19.03    0.85
  -6 -14  14   21.28    0.81
   4  14 -14    0.34    0.22
  -4 -14  14    0.15    0.14
   2  14 -14   25.40    0.97
  -2 -14  14   27.83    0.89
   0  14 -14    2.48    0.33
   0 -14  14    2.59    0.29
  -2  14 -14   25.71    0.96
   2 -14  14   26.38    0.83
  -4  14 -14   -0.04    0.17
   4 -14  14    0.09    0.12
  -6  14 -14   22.44    0.91
  -8  14 -14    4.70    0.44
 -10  14 -14   13.95    0.75
 -10  14 -14   15.23    0.67
 -12  14 -14    0.82    0.27
 -12  14 -14    0.25    0.23
 -14  14 -14   19.32    0.90
 -14  14 -14   23.13    0.93
 -16  14 -14    3.65    0.44
 -16  14 -14    3.19    0.42
 -18  14 -14   14.08    0.79
 -18  14 -14   13.65    0.80
 -20  14 -14   -0.10    0.25
 -22  14 -14    6.00    0.64
 -24  14 -14    0.39    0.32
 -26  14 -14    6.34    0.71
 -26 -12  14    3.13    0.52
 -24 -12  14   -0.04    0.19
 -22 -12  14   -0.17    0.18
 -20 -12  14    0.56    0.25
 -18 -12  14    1.18    0.28
 -16 -12  14    1.07    0.27
 -14 -12  14    0.38    0.20
 -12 -12  14    1.03    0.26
  10  12 -14    1.83    0.31
 -10 -12  14    1.69    0.29
   8  12 -14    0.15    0.19
  -8 -12  14    0.32    0.17
   6  12 -14    0.97    0.25
  -6 -12  14    0.97    0.23
   4  12 -14    0.77    0.25
  -4 -12  14    1.19    0.23
   2  12 -14    6.97    0.49
  -2 -12  14    7.39    0.44
   0  12 -14   -0.25    0.13
   0 -12  14    0.14    0.14
  -2  12 -14    7.17    0.48
   2 -12  14    7.78    0.43
  -4  12 -14    1.09    0.25
   4 -12  14    1.07    0.19
  -6  12 -14    0.81    0.23
   6 -12  14    0.88    0.18
  -8  12 -14   -0.01    0.15
  -8  12 -14    0.10    0.18
 -10  12 -14    2.19    0.32
 -10  12 -14    1.72    0.28
 -12  12 -14    0.91    0.24
 -12  12 -14    0.70    0.25
 -14  12 -14    0.49    0.24
 -14  12 -14    0.43    0.25
 -16  12 -14    0.26    0.25
 -16  12 -14    0.70    0.27
 -18  12 -14    1.25    0.33
 -20  12 -14    0.52    0.27
 -22  12 -14    0.20    0.25
 -24  12 -14    0.33    0.27
 -26  12 -14    2.52    0.51
 -28  12 -14    0.38    0.34
 -28 -10  14   -0.20    0.24
 -26 -10  14    7.63    0.69
 -24 -10  14    1.41    0.35
 -22 -10  14    8.26    0.65
 -20 -10  14    0.79    0.26
 -18 -10  14   10.63    0.66
 -16 -10  14    0.26    0.17
 -14 -10  14   14.70    0.73
 -12 -10  14    1.92    0.30
  10  10 -14   10.02    0.63
 -10 -10  14    9.78    0.56
   8  10 -14    0.02    0.15
  -8 -10  14    0.09    0.14
   6  10 -14   21.68    0.86
  -6 -10  14   20.54    0.77
   4  10 -14   11.77    0.62
  -4 -10  14   13.55    0.60
   2  10 -14   17.02    0.72
  -2 -10  14   16.84    0.66
   0  10 -14    9.21    0.53
   0 -10  14    9.43    0.47
  -2  10 -14   16.08    0.70
   2 -10  14   17.38    0.63
  -4  10 -14   12.76    0.48
  -4  10 -14   12.82    0.61
   4 -10  14   13.20    0.54
  -6  10 -14   19.70    0.66
  -6  10 -14   19.77    0.78
   6 -10  14   20.12    0.67
  -8  10 -14   -0.01    0.14
  -8  10 -14    0.02    0.14
   8 -10  14    0.05    0.11
 -10  10 -14   10.78    0.48
 -10  10 -14   10.27    0.58
 -10  10 -14   11.60    0.57
  10 -10  14    9.85    0.46
 -12  10 -14    1.76    0.29
 -12  10 -14    1.71    0.29
 -14  10 -14   14.72    0.74
 -14  10 -14   15.98    0.72
 -16  10 -14    0.35    0.21
 -16  10 -14    0.24    0.23
 -18  10 -14   11.74    0.73
 -20  10 -14    1.28    0.36
 -22  10 -14    7.32    0.67
 -24  10 -14    0.59    0.33
 -26  10 -14    7.64    0.75
 -28  10 -14   -0.26    0.30
 -28  -8  14   -0.01    0.24
 -26  -8  14    0.00    0.19
 -24  -8  14    0.79    0.29
 -22  -8  14    1.47    0.32
 -20  -8  14    0.10    0.18
 -18  -8  14    0.51    0.22
 -16  -8  14    0.50    0.20
 -14  -8  14    5.73    0.46
 -12  -8  14    0.06    0.11
 -10  -8  14   -0.01    0.12
   8   8 -14    0.10    0.16
  -8  -8  14   -0.06    0.10
   6   8 -14    8.11    0.53
  -6  -8  14    8.50    0.48
   4   8 -14    0.01    0.14
  -4  -8  14    0.09    0.12
   2   8 -14    0.20    0.17
  -2  -8  14    0.09    0.10
   0   8 -14   -0.05    0.12
   0  -8  14    0.13    0.10
  -2   8 -14    0.10    0.09
  -2   8 -14    0.05    0.13
   2  -8  14    0.04    0.10
  -4   8 -14    0.16    0.11
  -4   8 -14   -0.08    0.13
   4  -8  14    0.06    0.10
  -6   8 -14    8.54    0.48
  -6   8 -14    8.12    0.41
   6  -8  14    7.15    0.40
  -8   8 -14    0.26    0.16
  -8   8 -14   -0.08    0.13
   8  -8  14    0.04    0.11
 -10   8 -14    0.09    0.11
 -10   8 -14    0.14    0.17
 -10   8 -14    0.07    0.15
  10  -8  14    0.14    0.12
 -12   8 -14    0.19    0.18
 -12   8 -14    0.28    0.18
  12  -8  14    0.27    0.15
 -14   8 -14    5.45    0.47
 -14   8 -14    6.84    0.46
 -16   8 -14    0.25    0.21
 -18   8 -14    0.57    0.24
 -20   8 -14    0.11    0.21
 -22   8 -14    1.09    0.34
 -24   8 -14    0.53    0.32
 -26   8 -14   -0.04    0.28
 -28   8 -14   -0.09    0.25
 -30   8 -14    0.02    0.33
 -28  -6  14    0.05    0.25
 -26  -6  14    6.95    0.62
 -24  -6  14    0.28    0.21
 -22  -6  14    9.23    0.64
 -20  -6  14    0.19    0.21
 -18  -6  14   16.76    0.80
 -16  -6  14    3.26    0.36
 -14  -6  14   21.00    0.83
 -12  -6  14    0.91    0.21
 -10  -6  14   18.21    0.73
  -8  -6  14    9.31    0.51
  -6  -6  14   25.35    0.83
   4   6 -14    1.03    0.23
  -4  -6  14    0.56    0.17
   2   6 -14   19.97    0.76
  -2  -6  14   18.56    0.68
   0   6 -14    6.93    0.44
   0  -6  14    6.65    0.39
  -2   6 -14   16.23    0.66
   2  -6  14   18.39    0.65
  -4   6 -14    0.68    0.19
  -4   6 -14    0.86    0.16
   4  -6  14    0.80    0.17
  -6   6 -14   25.83    0.77
  -6   6 -14   26.43    0.85
   6  -6  14   27.21    0.80
  -8   6 -14    7.70    0.46
  -8   6 -14    8.14    0.44
   8  -6  14    8.15    0.43
 -10   6 -14   19.27    0.71
 -10   6 -14   20.16    0.75
 -10   6 -14   20.03    0.67
  10  -6  14   19.96    0.69
 -12   6 -14    1.00    0.22
 -12   6 -14    0.88    0.24
  12  -6  14    1.25    0.21
 -14   6 -14   21.86    0.88
 -14   6 -14   22.45    0.78
  14  -6  14   21.00    0.74
 -16   6 -14    3.95    0.44
 -18   6 -14   14.84    0.80
 -20   6 -14    0.68    0.28
 -22   6 -14    9.86    0.71
 -24   6 -14    0.38    0.30
 -26   6 -14    6.88    0.70
 -28   6 -14    0.14    0.29
 -30   6 -14    7.46    0.79
 -26  -4  14    1.08    0.32
 -24  -4  14    0.29    0.21
 -22  -4  14    0.27    0.20
 -20  -4  14    0.10    0.17
 -18  -4  14    4.41    0.43
 -16  -4  14    0.14    0.13
 -14  -4  14    0.16    0.14
 -12  -4  14    1.00    0.22
 -10  -4  14   13.70    0.49
 -10  -4  14   14.15    0.63
  -8  -4  14    0.04    0.09
  -8  -4  14    0.04    0.12
  -6  -4  14    0.62    0.17
  -6  -4  14    0.67    0.13
  -4  -4  14    0.21    0.12
   2   4 -14   12.63    0.59
  -2  -4  14   11.59    0.53
   0   4 -14    0.09    0.13
   0  -4  14    0.01    0.09
  -2   4 -14   12.34    0.57
   2  -4  14   12.41    0.53
  -4   4 -14    0.05    0.10
  -4   4 -14    0.01    0.12
   4  -4  14    0.03    0.10
  -6   4 -14    1.01    0.18
  -6   4 -14    0.74    0.18
   6  -4  14    0.93    0.18
  -8   4 -14    0.18    0.13
  -8   4 -14    0.11    0.11
  -8   4 -14    0.09    0.12
   8  -4  14    0.05    0.11
 -10   4 -14   13.76    0.61
 -10   4 -14   12.37    0.54
 -10   4 -14   13.08    0.55
  10  -4  14   13.27    0.57
 -12   4 -14    0.80    0.22
 -12   4 -14    1.23    0.22
  12  -4  14    1.21    0.22
 -14   4 -14    0.20    0.19
  14  -4  14    0.21    0.13
 -16   4 -14    0.20    0.20
  16  -4  14   -0.07    0.12
 -18   4 -14    3.89    0.44
 -20   4 -14    0.37    0.24
 -22   4 -14    0.11    0.22
 -24   4 -14    0.05    0.24
 -26   4 -14    1.22    0.36
 -28   4 -14    0.28    0.28
 -30   4 -14    0.02    0.29
 -26  -2  14    8.36    0.65
 -24  -2  14    0.36    0.24
 -22  -2  14    9.62    0.63
 -20  -2  14    1.90    0.32
 -18  -2  14   16.13    0.75
 -16  -2  14    0.05    0.14
 -16  -2  14   -0.03    0.16
 -14  -2  14   26.99    0.83
 -14  -2  14   26.53    0.92
 -12  -2  14    7.79    0.42
 -12  -2  14    7.39    0.46
 -10  -2  14   17.87    0.70
 -10  -2  14   18.16    0.61
  -8  -2  14    0.22    0.12
  -8  -2  14    0.09    0.10
  -6  -2  14   17.89    0.68
  -6  -2  14   17.39    0.57
  -4  -2  14   12.65    0.55
  -2  -2  14   31.05    0.90
   0  -2  14    5.61    0.37
  -2   2 -14   32.48    0.92
   2  -2  14   30.80    0.89
  -4   2 -14   13.16    0.56
   4  -2  14   12.37    0.53
  -6   2 -14   17.88    0.64
  -6   2 -14   17.39    0.64
  -6   2 -14   17.10    0.63
   6  -2  14   17.89    0.65
  -8   2 -14    0.14    0.13
  -8   2 -14    0.14    0.11
  -8   2 -14    0.14    0.13
   8  -2  14    0.10    0.12
 -10   2 -14   16.32    0.68
 -10   2 -14   16.92    0.61
  10  -2  14   15.52    0.62
 -12   2 -14    7.37    0.49
 -12   2 -14    7.34    0.40
  12  -2  14    7.43    0.43
 -14   2 -14   27.63    0.99
  14  -2  14   26.05    0.85
 -16   2 -14    0.10    0.17
  16  -2  14    0.10    0.12
 -18   2 -14   17.53    0.86
  18  -2  14   17.05    0.70
 -20   2 -14    2.11    0.38
 -22   2 -14    9.54    0.71
 -24   2 -14    0.70    0.30
 -26   2 -14    8.15    0.75
 -28   2 -14    0.35    0.31
 -30   2 -14    7.22    0.77
 -24   0  14    0.20    0.20
 -22   0  14    1.84    0.32
 -20   0  14    0.08    0.21
 -20   0  14    0.15    0.16
 -18   0  14    0.21    0.19
 -18   0  14    0.52    0.20
 -16   0  14    0.02    0.14
 -16   0  14    0.25    0.16
 -14   0  14    1.93    0.27
 -14   0  14    1.40    0.24
 -12   0  14   -0.02    0.12
 -12   0  14   -0.22    0.09
 -10   0  14    8.60    0.48
 -10   0  14    8.50    0.44
  -8   0  14    0.09    0.10
  -8   0  14    0.20    0.12
  -6   0  14    6.82    0.41
  -6   0  14    5.79    0.36
  -4   0  14    0.06    0.11
  -2   0  14    6.26    0.39
   0   0  14    0.12    0.10
   2   0  14    6.06    0.39
   4   0  14    0.00    0.09
  -6   0 -14    7.13    0.43
  -6   0 -14    6.44    0.38
   6   0  14    6.85    0.40
  -8   0 -14    0.16    0.13
  -8   0 -14    0.02    0.09
  -8   0 -14   -0.04    0.11
   8   0  14    0.00    0.10
 -10   0 -14    8.18    0.41
 -10   0 -14    9.21    0.52
  10   0  14    8.37    0.45
 -12   0 -14    0.20    0.16
  12   0  14    0.18    0.14
 -14   0 -14    2.95    0.37
  14   0  14    2.63    0.29
 -16   0 -14    0.25    0.18
  16   0  14    0.00    0.13
 -18   0 -14    0.17    0.20
  18   0  14    0.48    0.19
 -20   0 -14    0.18    0.20
  20   0  14    0.11    0.17
 -22   0 -14    1.24    0.34
 -24   0 -14    0.14    0.22
 -26   0 -14    0.54    0.30
 -28   0 -14    0.05    0.32
 -30   0 -14    0.38    0.41
 -24   2  14    0.31    0.28
 -22   2  14   10.20    0.68
 -22   2  14    9.64    0.61
 -20   2  14    2.35    0.32
 -20   2  14    2.94    0.40
 -18   2  14   19.25    0.84
 -18   2  14   18.58    0.78
 -16   2  14    0.28    0.16
 -16   2  14    0.08    0.15
 -14   2  14   26.23    0.91
 -14   2  14   27.50    0.91
 -12   2  14    6.74    0.44
 -12   2  14    6.14    0.41
 -10   2  14   18.04    0.68
 -10   2  14   17.40    0.68
  -8   2  14    0.31    0.14
  -8   2  14    0.06    0.11
  -6   2  14   18.20    0.68
  -6   2  14   18.03    0.66
  -4   2  14   11.71    0.53
  -2   2  14   30.73    0.89
   0   2  14    6.11    0.38
   2   2  14   30.20    0.89
  -4  -2 -14   12.84    0.55
  -6  -2 -14   18.68    0.68
   6   2  14   18.33    0.67
  -8  -2 -14    0.31    0.15
   8   2  14   -0.07    0.10
 -10  -2 -14   16.07    0.70
  10   2  14   19.33    0.70
 -12  -2 -14    6.96    0.50
  12   2  14    7.00    0.43
 -14  -2 -14   25.85    0.97
  14   2  14   24.72    0.85
 -16  -2 -14    0.02    0.17
  16   2  14    0.07    0.12
 -18  -2 -14   16.38    0.84
  18   2  14   18.85    0.77
 -20  -2 -14    3.00    0.43
  20   2  14    2.49    0.34
 -22  -2 -14    9.49    0.71
  22   2  14    9.14    0.59
 -24  -2 -14    0.24    0.29
 -26  -2 -14    8.81    0.78
 -28  -2 -14    0.16    0.31
 -30  -2 -14    7.42    0.80
 -28   4  14    0.44    0.34
 -26   4  14    0.90    0.37
 -24   4  14    0.16    0.26
 -22   4  14    0.17    0.25
 -20   4  14    0.28    0.18
 -20   4  14    0.20    0.23
 -18   4  14    4.57    0.40
 -18   4  14    5.08    0.46
 -16   4  14    0.12    0.14
 -16   4  14    0.55    0.22
 -14   4  14    0.28    0.19
 -14   4  14    0.06    0.12
 -12   4  14    0.65    0.19
 -12   4  14    0.61    0.20
 -10   4  14   13.04    0.60
 -10   4  14   13.01    0.58
  -8   4  14    0.18    0.13
  -8   4  14    0.12    0.13
  -6   4  14    1.23    0.22
  -6   4  14    0.64    0.18
  -4   4  14    0.16    0.12
  -2   4  14   12.03    0.54
   0   4  14    0.19    0.12
  -2  -4 -14   11.53    0.53
   2   4  14   11.89    0.53
  -4  -4 -14   -0.02    0.07
   4   4  14    0.13    0.11
   6   4  14    1.01    0.20
   8   4  14    0.07    0.10
 -10  -4 -14   13.69    0.67
  10   4  14   14.53    0.62
 -12  -4 -14    0.93    0.25
  12   4  14    0.94    0.21
 -14  -4 -14    0.33    0.19
  14   4  14   -0.04    0.11
 -16  -4 -14    0.14    0.15
  16   4  14    0.11    0.15
 -18  -4 -14    4.06    0.47
  18   4  14    4.23    0.41
 -20  -4 -14    0.08    0.21
  20   4  14    0.23    0.18
 -22  -4 -14   -0.09    0.22
  22   4  14    0.29    0.20
 -24  -4 -14    0.21    0.24
  24   4  14    0.11    0.23
 -26  -4 -14    0.68    0.36
 -28  -4 -14    0.02    0.34
 -30  -4 -14    0.02    0.35
 -30   6  14    5.41    0.71
 -28   6  14    0.06    0.33
 -26   6  14    5.78    0.65
 -24   6  14   -0.06    0.25
 -22   6  14   10.54    0.75
 -20   6  14    0.26    0.24
 -18   6  14   16.14    0.71
 -18   6  14   17.09    0.84
 -16   6  14    4.84    0.39
 -16   6  14    2.86    0.37
 -14   6  14   23.12    0.80
 -14   6  14   21.75    0.87
 -12   6  14    0.94    0.24
 -12   6  14    0.70    0.19
 -10   6  14   20.90    0.80
 -10   6  14   20.34    0.73
  -8   6  14    8.64    0.51
  -8   6  14    8.07    0.46
  -6   6  14   26.70    0.89
  -6   6  14   25.40    0.81
  -4   6  14    0.64    0.17
  -2   6  14   19.11    0.70
   0  -6 -14    6.14    0.40
   0   6  14    6.39    0.41
  -2  -6 -14   17.82    0.67
   2   6  14   18.16    0.68
  -4  -6 -14    0.81    0.19
   4   6  14    0.77    0.18
   6   6  14   26.03    0.84
   8   6  14    8.25    0.46
  10   6  14   19.09    0.73
 -12  -6 -14    0.77    0.24
  12   6  14    1.00    0.23
 -14  -6 -14   22.81    0.94
  14   6  14   20.59    0.82
 -16  -6 -14    3.12    0.42
  16   6  14    3.66    0.39
 -18  -6 -14   14.82    0.83
  18   6  14   14.93    0.74
 -20  -6 -14    0.29    0.25
  20   6  14    0.39    0.20
 -22  -6 -14   12.68    0.83
  22   6  14   12.08    0.72
 -24  -6 -14    0.28    0.30
  24   6  14    0.35    0.26
 -26  -6 -14    7.48    0.75
  26   6  14    6.70    0.60
 -28  -6 -14   -0.21    0.32
 -30  -6 -14    6.37    0.77
 -30   8  14   -0.22    0.37
 -28   8  14   -0.06    0.35
 -26   8  14    0.09    0.31
 -24   8  14    0.98    0.36
 -22   8  14    1.20    0.37
 -20   8  14    0.65    0.29
 -18   8  14    0.54    0.27
 -16   8  14    0.59    0.24
 -16   8  14    0.76    0.20
 -14   8  14    5.20    0.47
 -14   8  14    5.56    0.40
 -12   8  14    0.49    0.22
 -12   8  14    0.47    0.16
 -10   8  14    0.18    0.15
 -10   8  14    0.06    0.14
  -8   8  14    0.05    0.15
  -8   8  14    0.13    0.13
  -6   8  14    7.98    0.46
  -6   8  14    7.62    0.50
  -4   8  14   -0.03    0.10
   2  -8 -14    0.19    0.13
  -2   8  14    0.08    0.12
   0  -8 -14   -0.02    0.11
   0   8  14    0.10    0.11
  -2  -8 -14   -0.02    0.12
   2   8  14    0.04    0.11
   4   8  14   -0.01    0.09
   6   8  14    8.44    0.48
   8   8  14   -0.01    0.12
  10   8  14    0.21    0.14
  12   8  14    0.09    0.15
 -14  -8 -14    6.15    0.53
  14   8  14    5.91    0.46
 -16  -8 -14    0.60    0.26
  16   8  14    0.75    0.25
 -18  -8 -14    0.59    0.30
  18   8  14    0.93    0.26
 -20  -8 -14    0.20    0.26
  20   8  14    0.14    0.21
 -22  -8 -14    1.46    0.42
  22   8  14    1.40    0.33
 -24  -8 -14    0.68    0.34
  24   8  14    0.71    0.29
 -26  -8 -14    0.10    0.32
  26   8  14    0.00    0.23
 -28  -8 -14    0.52    0.37
 -30  -8 -14    0.17    0.42
 -28  10  14   -0.25    0.34
 -26  10  14    5.84    0.67
 -24  10  14    1.02    0.39
 -22  10  14    7.90    0.70
 -20  10  14    1.58    0.35
 -18  10  14   11.28    0.73
 -16  10  14    0.33    0.24
 -14  10  14   14.88    0.79
 -14  10  14   15.40    0.64
 -12  10  14    2.01    0.33
 -12  10  14    1.45    0.24
 -10  10  14    9.58    0.59
 -10  10  14   10.29    0.52
  -8  10  14    0.04    0.13
  -8  10  14    0.07    0.13
   6 -10 -14   18.86    0.70
  -6  10  14   19.60    0.73
  -6  10  14   19.59    0.82
   4 -10 -14   13.45    0.58
  -4  10  14   12.53    0.58
   2 -10 -14   17.16    0.68
  -2  10  14   16.58    0.67
   0  10  14    7.91    0.46
   2  10  14   16.88    0.68
   4  10  14   12.81    0.59
   6  10  14   18.80    0.74
   8  10  14    0.15    0.12
  10  10  14   10.33    0.58
  12  10  14    2.01    0.30
  14  10  14   15.08    0.75
  16  10  14    0.24    0.19
 -18 -10 -14   12.86    0.82
  18  10  14   12.83    0.75
 -20 -10 -14    1.27    0.38
  20  10  14    1.92    0.37
 -22 -10 -14    6.28    0.67
  22  10  14    6.57    0.59
 -24 -10 -14    1.23    0.40
  24  10  14    0.87    0.33
 -26 -10 -14    5.29    0.68
  26  10  14    6.25    0.63
 -28 -10 -14   -0.29    0.33
  28  10  14    0.14    0.32
 -28  12  14    0.82    0.40
 -26  12  14    1.38    0.45
 -24  12  14    0.35    0.32
 -22  12  14    0.49    0.32
 -20  12  14    0.55    0.27
 -18  12  14    2.93    0.46
 -16  12  14    0.92    0.29
 -14  12  14    1.02    0.31
 -12  12  14    1.31    0.23
 -12  12  14    0.75    0.26
  10 -12 -14    1.73    0.26
 -10  12  14    2.17    0.28
 -10  12  14    1.09    0.27
   8 -12 -14    0.31    0.17
  -8  12  14    0.25    0.15
  -8  12  14    0.07    0.16
   6 -12 -14    0.96    0.21
  -6  12  14    0.95    0.25
  -6  12  14    1.08    0.21
   4 -12 -14    1.19    0.23
  -4  12  14    0.75    0.20
  -4  12  14    0.64    0.23
  -2  12  14    7.30    0.46
   0  12  14   -0.02    0.11
   2  12  14    7.51    0.46
   4  12  14    0.64    0.18
   6  12  14    0.84    0.20
   8  12  14    0.26    0.16
  10  12  14    2.11    0.31
  12  12  14    1.19    0.26
  14  12  14    0.78    0.24
  16  12  14    0.99    0.29
  18  12  14    2.19    0.38
  20  12  14    0.27    0.25
 -22 -12 -14    0.03    0.27
  22  12  14    0.11    0.22
 -24 -12 -14    0.82    0.39
  24  12  14   -0.15    0.22
 -26 -12 -14    1.22    0.44
  26  12  14    2.20    0.44
 -28 -12 -14    0.00    0.36
 -26  14  14    6.67    0.78
 -24  14  14    0.16    0.30
 -22  14  14    6.96    0.72
 -20  14  14    0.10    0.29
 -18  14  14   13.97    0.86
 -16  14  14    3.06    0.47
 -14  14  14   22.10    1.03
 -12  14  14    0.65    0.26
 -10  14  14   14.46    0.78
 -10  14  14   14.43    0.63
   8 -14 -14    5.51    0.42
  -8  14  14    6.40    0.43
  -8  14  14    6.33    0.54
  -6  14  14   21.84    0.94
  -6  14  14   20.73    0.78
  -4  14  14    0.24    0.19
  -4  14  14    0.19    0.16
  -2  14  14   26.41    0.89
   0  14  14    2.39    0.30
   2  14  14   24.80    0.88
   4  14  14   -0.06    0.11
   6  14  14   22.97    0.88
   8  14  14    7.92    0.53
  10  14  14   15.46    0.75
  12  14  14    0.43    0.19
  14  14  14   21.70    0.97
  16  14  14    3.92    0.47
  18  14  14   15.86    0.86
  20  14  14    0.37    0.23
  22  14  14    6.44    0.62
  24  14  14   -0.04    0.24
 -26  16  14    0.58    0.38
 -24  16  14    0.27    0.34
 -22  16  14    0.57    0.35
 -20  16  14    0.42    0.31
 -18  16  14    0.45    0.32
 -16  16  14    0.86    0.30
 -14  16  14    3.15    0.46
 -12  16  14    0.55    0.27
 -10  16  14   -0.02    0.20
  -8  16  14    0.64    0.26
  -8  16  14    0.50    0.19
  -6  16  14    4.29    0.47
  -6  16  14    3.79    0.36
  -4  16  14    0.15    0.14
  -4  16  14   -0.03    0.13
  -2  16  14   -0.01    0.14
   0  16  14   -0.01    0.11
   2  16  14    0.07    0.15
   4  16  14    0.01    0.13
   6  16  14    3.81    0.39
   8  16  14    0.25    0.16
  10  16  14    0.42    0.20
  12  16  14    1.25    0.29
  14  16  14    3.22    0.43
  16  16  14    0.79    0.30
  18  16  14    0.50    0.26
  20  16  14    0.20    0.26
  22  16  14    0.50    0.26
  24  16  14    0.35    0.32
 -24  18  14    0.00    0.31
 -22  18  14    3.46    0.57
 -20  18  14    1.53    0.42
 -18  18  14   10.09    0.82
 -16  18  14    0.35    0.30
 -14  18  14   14.51    0.88
 -12  18  14    1.90    0.37
 -10  18  14   12.71    0.78
  -8  18  14    1.19    0.30
  -6  18  14   15.65    0.85
  -4  18  14    4.30    0.40
  -4  18  14    4.29    0.48
  -2  18  14   19.81    0.81
  -2  18  14   17.50    0.89
   0  18  14    0.65    0.20
   2  18  14   17.91    0.79
   4  18  14    3.28    0.37
   6  18  14   15.39    0.76
   8  18  14    0.59    0.23
  10  18  14   10.66    0.67
  12  18  14    2.27    0.38
  14  18  14   15.05    0.85
  16  18  14   -0.12    0.15
  18  18  14   10.54    0.74
  20  18  14    1.00    0.31
  22  18  14    3.17    0.52
 -22  20  14   -0.08    0.33
 -20  20  14    0.06    0.31
 -18  20  14    1.54    0.46
 -16  20  14    0.11    0.24
 -14  20  14    0.46    0.26
 -12  20  14    0.30    0.27
 -10  20  14    1.75    0.38
  -8  20  14   -0.20    0.18
  -6  20  14    0.19    0.21
  -4  20  14    0.37    0.22
  -2  20  14    1.90    0.31
  -2  20  14    2.65    0.42
   0  20  14    0.14    0.16
   2  20  14    2.42    0.34
   4  20  14    0.23    0.19
   6  20  14    0.27    0.20
   8  20  14    0.38    0.20
  10  20  14    1.71    0.34
  12  20  14    0.24    0.22
  14  20  14    0.03    0.15
  16  20  14    0.49    0.26
  18  20  14    2.19    0.42
  20  20  14    0.55    0.31
 -22  22  14    3.52    0.61
 -20  22  14    0.00    0.28
 -18  22  14    4.55    0.62
 -16  22  14    0.74    0.31
 -14  22  14    6.09    0.65
 -12  22  14    0.13    0.23
 -10  22  14    7.33    0.67
  -8  22  14    1.18    0.33
  -6  22  14   10.27    0.72
  -4  22  14    0.82    0.29
  -2  22  14   10.17    0.72
   0  22  14    2.04    0.40
   0  22  14    1.56    0.32
   2  22  14   10.65    0.66
   4  22  14    0.25    0.20
   6  22  14   11.14    0.70
   8  22  14    1.33    0.31
  10  22  14    6.66    0.59
  12  22  14    0.37    0.23
  14  22  14    6.06    0.61
  16  22  14    0.17    0.22
  18  22  14    5.08    0.60
 -18  24  14    0.06    0.30
 -16  24  14    0.21    0.31
 -14  24  14   -0.28    0.22
 -12  24  14    0.43    0.28
 -10  24  14    1.20    0.37
  -8  24  14    0.15    0.24
  -6  24  14    0.00    0.24
  -4  24  14    0.20    0.24
  -2  24  14    0.34    0.26
   0  24  14    0.32    0.22
   2  24  14    0.21    0.24
   2  24  14    0.22    0.22
   4  24  14    0.30    0.23
   6  24  14    0.31    0.22
   8  24  14    0.78    0.29
  10  24  14    0.99    0.30
  12  24  14    0.45    0.24
  14  24  14   -0.04    0.20
  16  24  14    0.75    0.30
 -16  26  14    0.47    0.32
 -14  26  14    8.24    0.80
 -12  26  14    1.78    0.45
 -10  26  14    5.93    0.65
  -8  26  14    0.08    0.24
  -6  26  14    7.38    0.69
  -4  26  14    1.93    0.43
  -2  26  14    8.18    0.72
   0  26  14   -0.04    0.23
   2  26  14    8.48    0.73
   4  26  14    1.24    0.32
   6  26  14    6.97    0.61
   8  26  14    0.26    0.23
  10  26  14    6.19    0.60
  12  26  14    1.79    0.40
 -12  28  14   -0.13    0.29
 -10  28  14   -0.28    0.24
  -8  28  14    0.38    0.30
  -6  28  14   -0.34    0.23
  -4  28  14    0.09    0.26
  -2  28  14    0.08    0.25
   0  28  14    0.09    0.25
   2  28  14    0.40    0.27
   4  28  14   -0.07    0.26
   8  28  14    0.27    0.24
  10  28  14    0.52    0.28
  -8  30  14    0.19    0.29
  -6  30  14    6.15    0.69
  -4  30  14    0.17    0.30
  -2  30  14    8.22    0.76
   0  30  14    0.58    0.33
   2  30  14    7.85    0.75
   4  30  14    0.43    0.31
   6  30  14    5.74    0.68
   9  29 -15    0.13    0.34
   7  29 -15    0.15    0.34
   5  29 -15    0.28    0.36
   3  29 -15   -0.15    0.30
   1  29 -15   -0.42    0.22
  -1  29 -15    0.28    0.32
  -3  29 -15    0.23    0.28
  -5  29 -15   -0.28    0.27
  -7  29 -15    0.17    0.36
  -9  29 -15   -0.05    0.36
  11  27 -15    0.15    0.33
 -11 -27  15    0.46    0.35
   9  27 -15    0.40    0.31
   7  27 -15    0.37    0.30
   5  27 -15    0.26    0.31
   3  27 -15    0.37    0.31
   1  27 -15    0.30    0.31
  -1  27 -15   -0.05    0.25
  -3  27 -15    0.19    0.34
  -5  27 -15    0.02    0.27
  -7  27 -15    0.00    0.29
  -9  27 -15    0.51    0.38
 -11  27 -15    0.03    0.35
 -13  27 -15    0.04    0.36
  13  25 -15    0.17    0.31
 -13 -25  15   -0.13    0.25
  11  25 -15    0.61    0.35
 -11 -25  15    0.31    0.26
   9  25 -15    0.13    0.26
  -9 -25  15   -0.06    0.22
   7  25 -15    0.15    0.31
  -7 -25  15   -0.08    0.23
   5  25 -15    0.36    0.29
   3  25 -15    0.30    0.27
   1  25 -15    0.52    0.33
  -1  25 -15   -0.08    0.25
  -3  25 -15   -0.26    0.18
  -5  25 -15    0.50    0.34
  -7  25 -15   -0.38    0.26
  -9  25 -15   -0.46    0.26
 -11  25 -15    0.72    0.41
 -13  25 -15    0.03    0.34
 -15  25 -15   -0.29    0.30
 -17  25 -15   -0.31    0.36
 -15 -23  15    0.05    0.25
  13  23 -15    0.55    0.33
 -13 -23  15    0.42    0.29
  11  23 -15   -0.07    0.24
 -11 -23  15    0.21    0.27
   9  23 -15    0.10    0.25
  -9 -23  15    0.30    0.23
   7  23 -15    0.10    0.26
  -7 -23  15   -0.17    0.20
   5  23 -15    0.78    0.32
  -5 -23  15    0.36    0.24
   3  23 -15    0.12    0.23
   1  23 -15   -0.07    0.23
  -1  23 -15    0.24    0.23
  -3  23 -15    0.17    0.25
  -5  23 -15    0.84    0.36
  -7  23 -15   -0.41    0.22
  -9  23 -15   -0.15    0.26
 -11  23 -15   -0.40    0.28
 -13  23 -15    0.54    0.36
 -15  23 -15   -0.02    0.31
 -17  23 -15   -0.62    0.31
 -19  23 -15   -0.09    0.30
 -17 -21  15   -0.13    0.22
  15  21 -15    0.15    0.27
 -15 -21  15   -0.10    0.22
  13  21 -15    0.24    0.26
 -13 -21  15   -0.07    0.20
  11  21 -15    0.57    0.34
 -11 -21  15    0.62    0.26
   9  21 -15    0.52    0.27
  -9 -21  15    0.96    0.30
   7  21 -15    0.23    0.24
  -7 -21  15    0.65    0.26
   5  21 -15    0.08    0.23
  -5 -21  15   -0.04    0.19
   3  21 -15    0.10    0.24
  -3 -21  15    0.45    0.24
   1  21 -15    0.02    0.19
  -1  21 -15    0.03    0.19
  -3  21 -15    0.37    0.29
  -5  21 -15   -0.10    0.26
  -7  21 -15    0.41    0.25
  -9  21 -15    0.19    0.27
 -11  21 -15    0.85    0.35
 -13  21 -15    0.09    0.29
 -15  21 -15   -0.11    0.28
 -17  21 -15   -0.10    0.30
 -19  21 -15    0.14    0.34
 -19 -19  15   -0.05    0.22
 -17 -19  15   -0.06    0.21
  15  19 -15   -0.01    0.24
 -15 -19  15    0.14    0.22
  13  19 -15    0.24    0.26
 -13 -19  15    0.07    0.19
  11  19 -15    0.12    0.25
 -11 -19  15    0.10    0.21
   9  19 -15   -0.21    0.19
  -9 -19  15    0.13    0.19
   7  19 -15    0.04    0.21
  -7 -19  15    0.14    0.17
   5  19 -15    0.22    0.22
  -5 -19  15    0.64    0.23
   3  19 -15   -0.14    0.19
  -3 -19  15    0.08    0.16
   1  19 -15    0.04    0.18
  -1 -19  15   -0.09    0.13
  -1  19 -15   -0.04    0.18
  -3  19 -15   -0.31    0.20
  -5  19 -15    0.49    0.29
  -7  19 -15   -0.03    0.23
  -9  19 -15   -0.07    0.25
 -11  19 -15   -0.28    0.23
 -13  19 -15   -0.25    0.24
 -15  19 -15    0.13    0.28
 -17  19 -15   -0.39    0.27
 -19  19 -15    0.07    0.31
 -21 -17  15    0.08    0.22
 -19 -17  15    0.16    0.24
 -17 -17  15   -0.25    0.20
 -15 -17  15   -0.27    0.14
  13  17 -15    0.76    0.31
 -13 -17  15    0.45    0.27
  11  17 -15    0.97    0.33
 -11 -17  15    0.60    0.23
   9  17 -15    0.13    0.23
  -9 -17  15   -0.05    0.18
   7  17 -15   -0.02    0.22
  -7 -17  15    0.07    0.18
   5  17 -15   -0.15    0.16
  -5 -17  15    0.11    0.16
   3  17 -15    0.08    0.22
  -3 -17  15   -0.03    0.15
   1  17 -15    0.01    0.19
  -1 -17  15   -0.12    0.14
  -1  17 -15   -0.12    0.19
   1 -17  15   -0.05    0.13
  -3  17 -15    0.35    0.24
  -5  17 -15    0.03    0.22
  -7  17 -15   -0.15    0.20
  -9  17 -15    0.04    0.24
 -11  17 -15    0.98    0.33
 -13  17 -15    0.32    0.29
 -15  17 -15   -0.20    0.22
 -17  17 -15   -0.50    0.25
 -19  17 -15    0.10    0.29
 -19  17 -15   -0.19    0.25
 -21  17 -15   -0.08    0.29
 -23  17 -15    0.00    0.30
 -25  17 -15    0.38    0.35
 -23 -15  15   -0.23    0.16
 -21 -15  15    0.08    0.18
 -19 -15  15    0.13    0.19
 -17 -15  15   -0.03    0.17
 -15 -15  15    0.15    0.21
  13  15 -15    0.21    0.22
 -13 -15  15   -0.11    0.14
  11  15 -15   -0.05    0.22
 -11 -15  15   -0.05    0.15
   9  15 -15   -0.10    0.18
  -9 -15  15   -0.10    0.13
   7  15 -15    0.14    0.18
  -7 -15  15    0.18    0.16
   5  15 -15    0.00    0.18
  -5 -15  15   -0.04    0.11
   3  15 -15   -0.22    0.15
  -3 -15  15   -0.06    0.12
   1  15 -15    0.42    0.22
  -1 -15  15    0.02    0.13
  -1  15 -15   -0.04    0.19
   1 -15  15    0.02    0.14
  -3  15 -15    0.07    0.18
   3 -15  15   -0.01    0.12
  -5  15 -15   -0.07    0.18
  -7  15 -15    0.52    0.24
  -9  15 -15   -0.04    0.19
 -11  15 -15   -0.23    0.18
 -13  15 -15   -0.20    0.21
 -15  15 -15    0.04    0.22
 -15  15 -15    0.20    0.24
 -17  15 -15    0.23    0.26
 -17  15 -15    0.00    0.26
 -19  15 -15    0.09    0.24
 -21  15 -15    0.50    0.30
 -23  15 -15    0.13    0.30
 -25  15 -15    0.30    0.34
 -25 -13  15   -0.12    0.24
 -23 -13  15    0.08    0.20
 -21 -13  15    0.11    0.19
 -19 -13  15    0.09    0.19
 -17 -13  15    0.39    0.22
 -15 -13  15    0.22    0.19
 -13 -13  15   -0.07    0.15
  11  13 -15    0.56    0.26
 -11 -13  15    0.56    0.22
   9  13 -15    0.25    0.22
  -9 -13  15    0.08    0.15
   7  13 -15   -0.21    0.17
  -7 -13  15   -0.18    0.10
   5  13 -15    1.36    0.29
  -5 -13  15    0.77    0.22
   3  13 -15    0.25    0.20
  -3 -13  15    0.56    0.20
   1  13 -15   -0.22    0.14
  -1 -13  15   -0.05    0.11
  -1  13 -15    0.02    0.17
   1 -13  15    0.00    0.11
  -3  13 -15    0.65    0.24
   3 -13  15    0.15    0.14
  -5  13 -15    0.53    0.25
   5 -13  15    1.28    0.22
  -7  13 -15   -0.06    0.15
  -9  13 -15   -0.04    0.18
 -11  13 -15    0.58    0.25
 -11  13 -15    0.45    0.22
 -13  13 -15    0.05    0.20
 -13  13 -15   -0.01    0.21
 -15  13 -15   -0.14    0.18
 -15  13 -15   -0.16    0.24
 -17  13 -15    0.80    0.30
 -17  13 -15    0.65    0.30
 -19  13 -15    0.12    0.24
 -21  13 -15    0.00    0.26
 -23  13 -15   -0.07    0.25
 -25  13 -15   -0.25    0.28
 -27  13 -15    0.13    0.30
 -25 -11  15    0.52    0.30
 -23 -11  15   -0.07    0.20
 -21 -11  15    0.62    0.27
 -19 -11  15    0.05    0.17
 -17 -11  15    1.35    0.30
 -15 -11  15    0.01    0.15
 -13 -11  15    0.52    0.22
 -11 -11  15   -0.17    0.11
   9  11 -15   -0.14    0.15
  -9 -11  15    0.11    0.15
   7  11 -15    0.23    0.20
  -7 -11  15    0.05    0.12
   5  11 -15    1.49    0.30
  -5 -11  15    1.47    0.25
   3  11 -15    0.20    0.16
  -3 -11  15   -0.01    0.10
   1  11 -15    1.28    0.26
  -1 -11  15    1.02    0.21
  -1  11 -15    0.93    0.24
   1 -11  15    1.18    0.22
  -3  11 -15    0.01    0.15
   3 -11  15    0.01    0.11
  -5  11 -15    1.24    0.26
   5 -11  15    1.04    0.19
  -7  11 -15    0.08    0.16
  -7  11 -15    0.04    0.14
   7 -11  15   -0.02    0.12
  -9  11 -15    0.03    0.14
  -9  11 -15    0.14    0.17
 -11  11 -15   -0.03    0.16
 -11  11 -15   -0.16    0.17
 -13  11 -15    0.49    0.24
 -13  11 -15    0.59    0.24
 -15  11 -15    0.14    0.20
 -15  11 -15    0.18    0.21
 -17  11 -15    0.96    0.30
 -19  11 -15   -0.04    0.21
 -21  11 -15    0.86    0.33
 -23  11 -15    0.14    0.27
 -25  11 -15    0.44    0.33
 -27  11 -15    0.03    0.32
 -27  -9  15    0.30    0.24
 -25  -9  15   -0.06    0.19
 -23  -9  15   -0.08    0.20
 -21  -9  15    0.22    0.22
 -19  -9  15   -0.05    0.15
 -17  -9  15   -0.07    0.15
 -15  -9  15   -0.05    0.14
 -13  -9  15   -0.13    0.13
 -11  -9  15    0.06    0.15
  -9  -9  15   -0.13    0.12
   7   9 -15    0.26    0.18
  -7  -9  15    0.52    0.18
   5   9 -15    0.04    0.15
  -5  -9  15   -0.14    0.11
   3   9 -15    0.36    0.20
  -3  -9  15    0.52    0.17
   1   9 -15    3.50    0.37
  -1  -9  15    2.81    0.30
  -1   9 -15    2.67    0.32
   1  -9  15    2.50    0.27
  -3   9 -15    0.13    0.15
  -3   9 -15    0.66    0.15
   3  -9  15    0.38    0.14
  -5   9 -15    0.11    0.17
  -5   9 -15   -0.01    0.12
   5  -9  15    0.10    0.12
  -7   9 -15    0.52    0.17
  -7   9 -15   -0.05    0.15
   7  -9  15    0.27    0.14
  -9   9 -15    0.05    0.16
  -9   9 -15   -0.02    0.14
   9  -9  15    0.00    0.13
 -11   9 -15    0.16    0.18
 -11   9 -15    0.32    0.17
 -11   9 -15    0.02    0.11
  11  -9  15    0.03    0.12
 -13   9 -15    0.21    0.20
 -13   9 -15    0.24    0.20
 -15   9 -15   -0.26    0.16
 -15   9 -15    0.13    0.18
 -17   9 -15    0.16    0.21
 -19   9 -15    0.37    0.26
 -21   9 -15    0.32    0.29
 -23   9 -15   -0.09    0.24
 -25   9 -15   -0.28    0.27
 -27   9 -15    0.59    0.33
 -29   9 -15    0.25    0.36
 -29  -7  15    0.24    0.29
 -27  -7  15    0.03    0.23
 -25  -7  15   -0.16    0.18
 -23  -7  15    0.08    0.21
 -21  -7  15    0.62    0.26
 -19  -7  15   -0.08    0.17
 -17  -7  15    0.21    0.18
 -15  -7  15    0.12    0.15
 -13  -7  15   -0.16    0.11
 -11  -7  15   -0.05    0.11
  -9  -7  15    0.37    0.16
  -7  -7  15    0.11    0.12
   5   7 -15    1.75    0.29
  -5  -7  15    2.34    0.28
   3   7 -15    0.16    0.17
  -3  -7  15    0.26    0.14
   1   7 -15    0.04    0.15
  -1  -7  15    0.13    0.11
  -1   7 -15    0.22    0.16
   1  -7  15    0.17    0.11
  -3   7 -15    0.25    0.18
  -3   7 -15    0.30    0.13
   3  -7  15    0.45    0.15
  -5   7 -15    1.73    0.27
  -5   7 -15    1.61    0.21
   5  -7  15    2.05    0.25
  -7   7 -15   -0.03    0.12
  -7   7 -15    0.11    0.16
   7  -7  15   -0.01    0.11
  -9   7 -15    0.39    0.17
  -9   7 -15    0.64    0.18
  -9   7 -15    0.24    0.18
   9  -7  15    0.28    0.15
 -11   7 -15    0.01    0.16
 -11   7 -15    0.09    0.12
 -11   7 -15   -0.03    0.16
  11  -7  15   -0.09    0.11
 -13   7 -15   -0.12    0.15
 -13   7 -15   -0.09    0.15
  13  -7  15   -0.05    0.13
 -15   7 -15    0.15    0.20
 -17   7 -15    0.11    0.19
 -19   7 -15    0.25    0.24
 -21   7 -15    0.14    0.24
 -23   7 -15   -0.26    0.21
 -25   7 -15   -0.14    0.24
 -27   7 -15   -0.23    0.27
 -29   7 -15    0.17    0.32
 -27  -5  15   -0.11    0.22
 -25  -5  15    0.46    0.26
 -23  -5  15    0.23    0.19
 -21  -5  15    0.23    0.21
 -19  -5  15    0.81    0.24
 -17  -5  15   -0.05    0.14
 -15  -5  15   -0.12    0.10
 -13  -5  15    0.76    0.22
 -11  -5  15    1.32    0.25
  -9  -5  15    0.06    0.13
  -7  -5  15    1.61    0.26
  -5  -5  15   -0.11    0.08
  -5  -5  15   -0.20    0.08
   3   5 -15    0.40    0.18
  -3  -5  15    0.11    0.13
   1   5 -15    2.86    0.32
  -1  -5  15    2.19    0.26
  -1   5 -15    2.76    0.32
   1  -5  15    3.24    0.30
  -3   5 -15    0.32    0.15
   3  -5  15    0.09    0.12
  -5   5 -15   -0.10    0.10
  -5   5 -15   -0.19    0.12
   5  -5  15    0.00    0.11
  -7   5 -15    1.41    0.24
  -7   5 -15    2.23    0.26
   7  -5  15    2.13    0.26
  -9   5 -15    0.12    0.14
  -9   5 -15    0.05    0.12
  -9   5 -15    0.05    0.15
   9  -5  15   -0.05    0.11
 -11   5 -15    1.02    0.23
 -11   5 -15    1.62    0.23
 -11   5 -15    0.71    0.22
  11  -5  15    1.13    0.21
 -13   5 -15    1.18    0.24
 -13   5 -15    0.61    0.23
  13  -5  15    0.67    0.20
 -15   5 -15   -0.14    0.17
  15  -5  15    0.09    0.15
 -17   5 -15    0.03    0.19
 -19   5 -15    0.30    0.22
 -21   5 -15    0.03    0.21
 -23   5 -15    0.43    0.26
 -25   5 -15    0.23    0.27
 -27   5 -15    0.42    0.35
 -29   5 -15   -0.17    0.27
 -25  -3  15    0.20    0.22
 -23  -3  15    0.23    0.21
 -21  -3  15    0.32    0.22
 -19  -3  15    0.11    0.17
 -17  -3  15    0.40    0.19
 -15  -3  15   -0.03    0.11
 -13  -3  15    0.49    0.18
 -11  -3  15    0.03    0.11
 -11  -3  15    0.07    0.12
  -9  -3  15    0.32    0.15
  -9  -3  15    0.60    0.15
  -7  -3  15    0.26    0.14
  -7  -3  15    0.35    0.12
  -5  -3  15    0.32    0.13
  -5  -3  15    0.24    0.14
  -3  -3  15   -0.02    0.10
  -1  -3  15    3.52    0.31
  -1   3 -15    3.33    0.33
   1  -3  15    4.69    0.36
  -3   3 -15    0.31    0.15
   3  -3  15    0.01    0.10
  -5   3 -15    0.23    0.15
  -5   3 -15    0.53    0.16
   5  -3  15    0.21    0.12
  -7   3 -15    0.26    0.13
  -7   3 -15    0.02    0.13
  -7   3 -15    0.05    0.12
   7  -3  15    0.46    0.15
  -9   3 -15    0.44    0.17
  -9   3 -15    0.56    0.17
  -9   3 -15    0.54    0.17
   9  -3  15    0.79    0.19
 -11   3 -15    0.09    0.15
 -11   3 -15    0.10    0.15
  11  -3  15    0.04    0.13
 -13   3 -15    0.07    0.18
  13  -3  15    0.22    0.17
 -15   3 -15   -0.23    0.15
  15  -3  15    0.24    0.14
 -17   3 -15    0.19    0.19
  17  -3  15    0.42    0.19
 -19   3 -15    0.17    0.21
 -21   3 -15    0.58    0.29
 -23   3 -15   -0.11    0.23
 -25   3 -15   -0.02    0.24
 -27   3 -15    0.09    0.31
 -29   3 -15   -0.07    0.30
 -25  -1  15    0.03    0.23
 -23  -1  15    0.08    0.18
 -21  -1  15   -0.08    0.14
 -19  -1  15   -0.13    0.14
 -17  -1  15   -0.03    0.17
 -15  -1  15   -0.08    0.14
 -15  -1  15   -0.09    0.11
 -13  -1  15   -0.10    0.12
 -13  -1  15    0.11    0.14
 -11  -1  15    1.29    0.24
 -11  -1  15    1.10    0.21
  -9  -1  15    3.94    0.36
  -9  -1  15    3.97    0.31
  -7  -1  15    0.20    0.10
  -7  -1  15    0.21    0.13
  -5  -1  15    2.37    0.27
  -5  -1  15    2.89    0.26
  -3  -1  15    3.94    0.33
  -1  -1  15    0.11    0.11
   1  -1  15   -0.02    0.09
   3  -1  15    3.50    0.32
   5  -1  15    2.44    0.27
  -7   1 -15    0.50    0.17
  -7   1 -15    0.05    0.10
  -7   1 -15    0.32    0.16
   7  -1  15    0.02    0.11
  -9   1 -15    3.23    0.30
  -9   1 -15    3.99    0.36
  -9   1 -15    3.71    0.33
   9  -1  15    4.07    0.34
 -11   1 -15    1.18    0.20
 -11   1 -15    1.16    0.25
  11  -1  15    1.42    0.23
 -13   1 -15   -0.16    0.16
  13  -1  15    0.06    0.13
 -15   1 -15   -0.01    0.16
  15  -1  15    0.05    0.14
 -17   1 -15    0.03    0.21
  17  -1  15    0.28    0.17
 -19   1 -15   -0.29    0.17
  19  -1  15   -0.05    0.16
 -21   1 -15    0.13    0.22
 -23   1 -15    0.38    0.27
 -25   1 -15    0.39    0.29
 -27   1 -15    0.32    0.32
 -29   1 -15   -0.32    0.29
 -23   1  15    0.04    0.21
 -21   1  15    0.11    0.17
 -21   1  15   -0.37    0.19
 -19   1  15   -0.04    0.14
 -19   1  15    0.24    0.23
 -17   1  15    0.03    0.18
 -17   1  15    0.23    0.17
 -15   1  15    0.21    0.16
 -15   1  15    0.14    0.17
 -13   1  15   -0.09    0.11
 -13   1  15   -0.02    0.13
 -11   1  15    1.23    0.24
 -11   1  15    1.04    0.21
  -9   1  15    2.97    0.32
  -9   1  15    3.45    0.30
  -7   1  15    0.10    0.12
  -7   1  15    0.12    0.12
  -5   1  15    2.80    0.29
  -3   1  15    4.38    0.36
  -1   1  15    0.00    0.09
   1   1  15   -0.10    0.08
   3   1  15    3.84    0.33
  -5  -1 -15    3.37    0.31
   5   1  15    1.97    0.25
  -7  -1 -15    0.10    0.11
   7   1  15    0.27    0.14
  -9  -1 -15    3.00    0.33
   9   1  15    3.20    0.31
 -11  -1 -15    0.97    0.25
  11   1  15    1.62    0.25
 -13  -1 -15   -0.11    0.14
  13   1  15    0.00    0.13
 -15  -1 -15   -0.27    0.14
  15   1  15    0.18    0.14
 -17  -1 -15    0.18    0.17
  17   1  15    0.03    0.15
 -19  -1 -15   -0.09    0.17
  19   1  15   -0.04    0.16
 -21  -1 -15    0.38    0.26
  21   1  15    0.08    0.18
 -23  -1 -15    0.19    0.23
 -25  -1 -15    0.20    0.24
 -27  -1 -15    0.46    0.33
 -29  -1 -15    0.14    0.35
 -25   3  15   -0.42    0.26
 -23   3  15    0.04    0.25
 -21   3  15    0.34    0.21
 -21   3  15    0.43    0.29
 -19   3  15    0.13    0.14
 -19   3  15   -0.17    0.19
 -17   3  15    0.22    0.22
 -17   3  15    0.21    0.18
 -15   3  15    0.00    0.13
 -15   3  15   -0.03    0.15
 -13   3  15    0.32    0.18
 -13   3  15    0.49    0.19
 -11   3  15    0.04    0.14
 -11   3  15    0.08    0.13
  -9   3  15    0.48    0.17
  -9   3  15    0.60    0.19
  -7   3  15    0.25    0.13
  -7   3  15    0.40    0.16
  -5   3  15    0.08    0.11
  -3   3  15   -0.10    0.10
  -1   3  15    3.49    0.32
   1   3  15    3.79    0.33
  -3  -3 -15    0.00    0.10
   3   3  15    0.01    0.09
  -5  -3 -15    0.28    0.13
   5   3  15    0.43    0.15
   7   3  15    0.09    0.12
  -9  -3 -15    0.38    0.18
   9   3  15    1.02    0.21
 -11  -3 -15    0.18    0.18
  11   3  15    0.10    0.13
 -13  -3 -15    0.38    0.21
  13   3  15    0.82    0.21
 -15  -3 -15   -0.07    0.15
  15   3  15   -0.12    0.12
 -17  -3 -15    0.37    0.22
  17   3  15    0.25    0.18
 -19  -3 -15   -0.16    0.17
  19   3  15    0.04    0.16
 -21  -3 -15    0.83    0.29
  21   3  15   -0.10    0.15
 -23  -3 -15   -0.12    0.23
  23   3  15    0.02    0.20
 -25  -3 -15   -0.14    0.30
 -27  -3 -15    0.14    0.35
 -29  -3 -15   -0.15    0.31
 -27   5  15    0.08    0.32
 -25   5  15    0.18    0.28
 -23   5  15    0.60    0.32
 -21   5  15    0.22    0.26
 -19   5  15    0.71    0.27
 -19   5  15    0.67    0.22
 -17   5  15    0.10    0.15
 -17   5  15    0.08    0.19
 -15   5  15    0.09    0.15
 -15   5  15    0.16    0.18
 -13   5  15    0.47    0.21
 -13   5  15    0.86    0.21
 -11   5  15    1.13    0.22
 -11   5  15    0.65    0.21
  -9   5  15   -0.22    0.13
  -9   5  15    0.13    0.14
  -7   5  15    1.20    0.22
  -7   5  15    1.72    0.27
  -5   5  15    0.00    0.11
  -5   5  15   -0.04    0.10
  -3   5  15    0.32    0.14
  -1   5  15    2.79    0.30
  -1  -5 -15    2.44    0.29
   1   5  15    2.20    0.27
  -3  -5 -15    0.31    0.14
   3   5  15    0.23    0.13
  -5  -5 -15   -0.12    0.10
   5   5  15    0.12    0.11
   7   5  15    1.96    0.25
   9   5  15   -0.03    0.12
 -11  -5 -15    1.09    0.28
  11   5  15    1.52    0.25
 -13  -5 -15    0.84    0.25
  13   5  15    0.87    0.23
 -15  -5 -15    0.14    0.16
  15   5  15   -0.05    0.14
 -17  -5 -15   -0.02    0.17
  17   5  15    0.04    0.15
 -19  -5 -15    0.61    0.27
  19   5  15    0.46    0.20
 -21  -5 -15    0.18    0.25
  21   5  15    0.11    0.19
 -23  -5 -15    0.16    0.31
  23   5  15    0.38    0.23
 -25  -5 -15    0.21    0.32
  25   5  15    0.28    0.26
 -27  -5 -15    0.16    0.34
 -29  -5 -15   -0.30    0.34
 -29   7  15   -0.06    0.37
 -27   7  15    0.09    0.33
 -25   7  15   -0.18    0.29
 -23   7  15    0.06    0.26
 -21   7  15    0.05    0.25
 -19   7  15   -0.20    0.19
 -17   7  15   -0.21    0.19
 -17   7  15   -0.24    0.15
 -15   7  15    0.19    0.16
 -15   7  15    0.09    0.19
 -13   7  15    0.26    0.18
 -13   7  15    0.02    0.13
 -11   7  15   -0.17    0.12
 -11   7  15    0.17    0.14
  -9   7  15    0.46    0.18
  -9   7  15    0.47    0.21
  -7   7  15   -0.09    0.13
  -7   7  15    0.06    0.13
  -5   7  15    2.03    0.27
  -5   7  15    2.24    0.31
  -3   7  15    0.31    0.15
   1  -7 -15    0.50    0.19
  -1   7  15    0.49    0.17
  -1  -7 -15    0.56    0.17
   1   7  15    0.17    0.13
  -3  -7 -15    0.11    0.13
   3   7  15    0.19    0.13
   5   7  15    1.96    0.26
   7   7  15   -0.02    0.11
   9   7  15    0.20    0.15
  11   7  15   -0.16    0.10
  13   7  15    0.14    0.14
 -15  -7 -15   -0.11    0.17
  15   7  15   -0.17    0.14
 -17  -7 -15   -0.28    0.23
  17   7  15   -0.21    0.15
 -19  -7 -15    0.11    0.24
  19   7  15   -0.29    0.15
 -21  -7 -15   -0.01    0.22
  21   7  15    0.25    0.21
 -23  -7 -15    0.08    0.25
  23   7  15    0.12    0.22
 -25  -7 -15   -0.04    0.28
  25   7  15    0.15    0.23
 -27  -7 -15   -0.25    0.30
 -29  -7 -15    0.03    0.38
 -29   9  15   -0.45    0.36
 -27   9  15   -0.16    0.29
 -25   9  15   -0.20    0.29
 -23   9  15   -0.26    0.24
 -21   9  15    0.42    0.30
 -19   9  15    0.20    0.23
 -17   9  15    0.39    0.26
 -15   9  15   -0.02    0.15
 -15   9  15    0.00    0.18
 -13   9  15    0.10    0.14
 -13   9  15    0.27    0.20
 -11   9  15    0.06    0.14
 -11   9  15    0.13    0.18
  -9   9  15    0.13    0.15
  -9   9  15   -0.21    0.14
  -7   9  15    0.13    0.18
  -7   9  15    0.47    0.18
  -5   9  15    0.10    0.14
  -5   9  15    0.05    0.16
   3  -9 -15    0.41    0.16
  -3   9  15    0.33    0.17
   1  -9 -15    3.13    0.33
  -1   9  15    3.73    0.34
  -1  -9 -15    2.67    0.32
   1   9  15    3.75    0.34
   3   9  15    0.32    0.15
   5   9  15   -0.02    0.10
   7   9  15    0.53    0.18
   9   9  15   -0.02    0.13
  11   9  15    0.38    0.18
  13   9  15   -0.02    0.14
  15   9  15   -0.04    0.15
 -17  -9 -15    0.25    0.24
  17   9  15   -0.10    0.17
 -19  -9 -15   -0.06    0.25
  19   9  15    0.08    0.17
 -21  -9 -15    0.28    0.27
  21   9  15    0.60    0.29
 -23  -9 -15    0.00    0.24
  23   9  15    0.23    0.23
 -25  -9 -15    0.02    0.32
  25   9  15   -0.03    0.25
 -27  -9 -15    0.12    0.34
  27   9  15    0.35    0.28
 -29  -9 -15   -0.32    0.33
 -27  11  15   -0.05    0.29
 -25  11  15    0.41    0.36
 -23  11  15    0.07    0.28
 -21  11  15    0.56    0.33
 -19  11  15    0.01    0.24
 -17  11  15    1.02    0.35
 -15  11  15   -0.14    0.17
 -13  11  15    0.56    0.19
 -13  11  15    0.59    0.23
 -11  11  15    0.04    0.17
 -11  11  15    0.05    0.15
  -9  11  15    0.06    0.16
  -9  11  15    0.15    0.16
   7 -11 -15    0.07    0.16
  -7  11  15   -0.09    0.14
  -7  11  15   -0.07    0.14
   5 -11 -15    1.45    0.24
  -5  11  15    0.99    0.26
  -5  11  15    0.88    0.21
   3 -11 -15    0.06    0.14
  -3  11  15    0.02    0.13
  -1  11  15    1.67    0.26
   1  11  15    1.09    0.22
   3  11  15   -0.06    0.10
   5  11  15    1.04    0.22
   7  11  15   -0.01    0.11
   9  11  15    0.04    0.12
  11  11  15   -0.10    0.14
  13  11  15    0.42    0.20
  15  11  15   -0.02    0.15
  17  11  15    0.76    0.26
  19  11  15    0.38    0.24
 -21 -11 -15   -0.10    0.25
  21  11  15    0.38    0.25
 -23 -11 -15    0.07    0.31
  23  11  15    0.07    0.26
 -25 -11 -15    0.13    0.36
  25  11  15    0.61    0.30
 -27 -11 -15   -0.05    0.36
  27  11  15    0.28    0.34
 -27  13  15   -0.11    0.36
 -25  13  15    0.26    0.36
 -23  13  15    0.35    0.35
 -21  13  15   -0.21    0.25
 -19  13  15   -0.20    0.24
 -17  13  15    0.35    0.28
 -15  13  15    0.06    0.20
 -13  13  15    0.04    0.19
 -11  13  15    0.28    0.22
 -11  13  15    0.66    0.21
   9 -13 -15    0.24    0.18
  -9  13  15    0.04    0.15
  -9  13  15    0.33    0.21
   7 -13 -15    0.08    0.16
  -7  13  15   -0.11    0.17
  -7  13  15    0.01    0.14
   5 -13 -15    0.85    0.22
  -5  13  15    0.92    0.22
  -5  13  15    0.99    0.28
  -3  13  15    0.47    0.18
  -1  13  15    0.09    0.12
   1  13  15    0.01    0.12
   3  13  15    0.42    0.16
   5  13  15    1.12    0.26
   7  13  15    0.07    0.12
   9  13  15   -0.06    0.11
  11  13  15    0.36    0.18
  13  13  15   -0.24    0.15
  15  13  15    0.00    0.16
  17  13  15    0.32    0.23
  19  13  15    0.61    0.28
  21  13  15    0.05    0.21
  23  13  15   -0.35    0.22
  25  13  15    0.17    0.31
 -25  15  15   -0.46    0.33
 -23  15  15   -0.32    0.29
 -21  15  15   -0.22    0.28
 -19  15  15   -0.08    0.25
 -17  15  15   -0.08    0.26
 -15  15  15   -0.01    0.21
 -13  15  15    0.03    0.20
 -11  15  15    0.06    0.18
  -9  15  15   -0.13    0.15
  -9  15  15   -0.17    0.15
  -7  15  15   -0.01    0.16
  -7  15  15    0.08    0.13
  -5  15  15    0.00    0.18
  -5  15  15    0.03    0.13
  -3  15  15    0.08    0.14
  -3  15  15    0.27    0.17
  -1  15  15   -0.04    0.11
   1  15  15    0.02    0.14
   3  15  15    0.01    0.13
   5  15  15   -0.03    0.12
   7  15  15   -0.07    0.13
   9  15  15    0.00    0.13
  11  15  15   -0.14    0.12
  13  15  15   -0.15    0.13
  15  15  15   -0.18    0.19
  17  15  15   -0.03    0.18
  19  15  15   -0.12    0.22
  21  15  15   -0.03    0.21
  23  15  15    0.33    0.29
 -25  17  15   -0.32    0.31
 -23  17  15    0.08    0.32
 -21  17  15   -0.12    0.29
 -19  17  15   -0.28    0.28
 -17  17  15   -0.04    0.26
 -15  17  15   -0.17    0.23
 -13  17  15    0.55    0.29
 -11  17  15    0.51    0.28
  -9  17  15   -0.17    0.16
  -7  17  15   -0.01    0.15
  -7  17  15    0.16    0.19
  -5  17  15    0.29    0.19
  -5  17  15    0.01    0.15
  -3  17  15    0.26    0.19
  -3  17  15    0.45    0.20
  -1  17  15    0.17    0.18
   1  17  15   -0.11    0.15
   3  17  15    0.39    0.20
   5  17  15    0.00    0.15
   7  17  15    0.04    0.15
   9  17  15   -0.06    0.15
  11  17  15    1.07    0.28
  13  17  15    0.52    0.23
  15  17  15   -0.11    0.16
  17  17  15   -0.21    0.17
  19  17  15   -0.19    0.22
  21  17  15   -0.09    0.25
 -23  19  15    0.02    0.34
 -21  19  15    0.12    0.32
 -19  19  15    0.28    0.31
 -17  19  15    0.13    0.27
 -15  19  15   -0.28    0.20
 -13  19  15   -0.02    0.22
 -11  19  15    0.10    0.19
  -9  19  15    0.10    0.19
  -7  19  15    0.01    0.21
  -5  19  15    0.19    0.21
  -3  19  15    0.03    0.17
  -3  19  15   -0.16    0.14
  -1  19  15   -0.14    0.15
  -1  19  15   -0.19    0.13
   1  19  15   -0.10    0.14
   3  19  15    0.10    0.17
   5  19  15    0.43    0.19
   7  19  15   -0.10    0.18
   9  19  15   -0.05    0.15
  11  19  15    1.08    0.29
  13  19  15    0.01    0.18
  15  19  15   -0.22    0.15
  17  19  15    0.02    0.20
  19  19  15   -0.18    0.22
 -21  21  15   -0.05    0.33
 -19  21  15   -0.15    0.29
 -17  21  15    0.30    0.27
 -15  21  15   -0.07    0.18
 -13  21  15   -0.06    0.22
 -11  21  15    1.11    0.34
  -9  21  15    0.69    0.28
  -7  21  15    0.52    0.25
  -5  21  15    0.04    0.19
  -3  21  15    0.35    0.24
  -1  21  15   -0.05    0.19
  -1  21  15   -0.08    0.16
   1  21  15   -0.03    0.17
   3  21  15    0.93    0.28
   5  21  15    0.05    0.18
   7  21  15    0.40    0.21
   9  21  15    0.96    0.30
  11  21  15    0.81    0.28
  13  21  15    0.00    0.20
  15  21  15   -0.16    0.16
  17  21  15   -0.01    0.18
 -19  23  15   -0.30    0.27
 -17  23  15   -0.24    0.21
 -15  23  15    0.01    0.24
 -13  23  15    0.24    0.25
 -11  23  15    0.13    0.23
  -9  23  15    0.09    0.22
  -7  23  15   -0.20    0.19
  -5  23  15    0.73    0.28
  -3  23  15   -0.07    0.21
  -1  23  15    0.62    0.29
   1  23  15    0.00    0.18
   1  23  15   -0.05    0.21
   3  23  15   -0.15    0.18
   5  23  15    0.37    0.22
   7  23  15    0.27    0.23
   9  23  15    0.12    0.21
  11  23  15    0.16    0.21
  13  23  15    0.19    0.23
  15  23  15    0.11    0.20
 -17  25  15    0.04    0.27
 -15  25  15    0.25    0.27
 -13  25  15    0.23    0.27
 -11  25  15    0.06    0.24
  -9  25  15    0.09    0.24
  -7  25  15    0.18    0.24
  -5  25  15   -0.40    0.19
  -3  25  15    0.10    0.23
  -1  25  15    0.81    0.30
   1  25  15    0.17    0.23
   3  25  15    0.08    0.21
   5  25  15    0.42    0.21
   7  25  15   -0.05    0.17
   9  25  15   -0.53    0.18
  11  25  15    1.31    0.34
  13  25  15   -0.32    0.20
 -13  27  15    0.03    0.29
 -11  27  15    0.34    0.32
  -9  27  15    0.43    0.29
  -7  27  15   -0.16    0.25
  -5  27  15    0.34    0.28
  -3  27  15    0.22    0.28
  -1  27  15    0.20    0.27
   1  27  15    0.27    0.30
   3  27  15    0.30    0.30
   5  27  15    0.38    0.24
   7  27  15   -0.05    0.20
   9  27  15    0.09    0.23
  11  27  15   -0.04    0.23
  -9  29  15   -0.03    0.28
  -7  29  15    0.33    0.30
  -5  29  15   -0.10    0.27
  -3  29  15   -0.06    0.24
  -1  29  15    0.03    0.26
   1  29  15   -0.19    0.27
   3  29  15    0.22    0.30
   5  29  15    0.05    0.29
   2  30 -16    0.10    0.34
   0  30 -16    0.17    0.32
  -2  30 -16   -0.23    0.30
  10  28 -16    0.20    0.35
   8  28 -16   12.95    0.94
   6  28 -16    0.38    0.36
   4  28 -16   19.46    1.14
   2  28 -16    0.63    0.34
   0  28 -16   18.82    1.10
  -2  28 -16    0.58    0.32
  -4  28 -16   20.91    1.20
  -6  28 -16    0.47    0.38
  -8  28 -16   15.52    1.07
 -10  28 -16    0.16    0.37
  12  26 -16    0.57    0.36
 -12 -26  16    0.26    0.31
  10  26 -16    0.33    0.32
 -10 -26  16    0.18    0.29
   8  26 -16    0.43    0.32
   6  26 -16   -0.05    0.28
   4  26 -16    0.21    0.32
   2  26 -16    0.54    0.31
   0  26 -16    0.29    0.27
  -2  26 -16    0.66    0.35
  -4  26 -16    0.16    0.26
  -6  26 -16   -0.15    0.29
  -8  26 -16   -0.07    0.28
 -10  26 -16    0.27    0.35
 -12  26 -16    0.38    0.36
 -14  26 -16   -0.41    0.35
  14  24 -16    0.26    0.33
 -14 -24  16    0.67    0.35
  12  24 -16   16.08    0.99
 -12 -24  16   17.05    0.98
  10  24 -16    0.77    0.33
 -10 -24  16    0.16    0.27
   8  24 -16   32.56    1.36
  -8 -24  16   30.66    1.25
   6  24 -16    0.00    0.26
  -6 -24  16    0.27    0.25
   4  24 -16   25.80    1.22
   2  24 -16    0.16    0.27
   0  24 -16   42.82    1.58
  -2  24 -16    0.65    0.32
  -4  24 -16   26.01    1.25
  -6  24 -16   -0.03    0.27
  -8  24 -16   32.83    1.42
 -10  24 -16    0.84    0.41
 -12  24 -16   17.93    1.09
 -14  24 -16    0.69    0.38
 -16  24 -16   24.06    1.26
 -18  24 -16   -0.05    0.40
 -16 -22  16   -0.05    0.28
  14  22 -16    0.75    0.33
 -14 -22  16    0.54    0.29
  12  22 -16    0.23    0.27
 -12 -22  16    0.10    0.21
  10  22 -16    0.31    0.27
 -10 -22  16    0.26    0.26
   8  22 -16    0.01    0.25
  -8 -22  16    0.32    0.22
   6  22 -16    0.71    0.31
  -6 -22  16    1.08    0.31
   4  22 -16    0.15    0.23
  -4 -22  16   -0.06    0.18
   2  22 -16    0.39    0.28
   0  22 -16   -0.13    0.20
  -2  22 -16    0.46    0.28
  -4  22 -16    0.10    0.25
  -6  22 -16    0.98    0.36
  -8  22 -16    0.06    0.28
 -10  22 -16    0.11    0.29
 -12  22 -16    0.23    0.30
 -14  22 -16    0.49    0.34
 -16  22 -16    0.00    0.29
 -18  22 -16    0.37    0.40
 -20  22 -16   -0.03    0.36
 -18 -20  16   -0.06    0.29
 -16 -20  16   27.93    1.25
  14  20 -16    0.36    0.27
 -14 -20  16   -0.09    0.20
  12  20 -16   33.74    1.34
 -12 -20  16   30.08    1.23
  10  20 -16    0.30    0.25
 -10 -20  16    0.27    0.25
   8  20 -16   42.05    1.46
  -8 -20  16   40.02    1.36
   6  20 -16    0.28    0.25
  -6 -20  16    0.16    0.20
   4  20 -16   47.35    1.56
  -4 -20  16   49.74    1.43
   2  20 -16    1.17    0.34
  -2 -20  16    0.67    0.24
   0  20 -16   41.35    1.43
  -2  20 -16    0.89    0.30
  -4  20 -16   48.13    1.60
  -6  20 -16    0.77    0.34
  -8  20 -16   42.17    1.50
 -10  20 -16    0.58    0.32
 -12  20 -16   33.42    1.36
 -14  20 -16    0.41    0.34
 -16  20 -16   29.12    1.30
 -18  20 -16   -0.16    0.30
 -20 -18  16    0.18    0.30
 -18 -18  16    0.20    0.23
 -16 -18  16    0.10    0.22
  14  18 -16    0.12    0.23
 -14 -18  16    0.23    0.25
  12  18 -16   -0.05    0.22
 -12 -18  16    0.11    0.22
  10  18 -16   -0.12    0.24
 -10 -18  16    0.17    0.19
   8  18 -16   -0.05    0.20
  -8 -18  16    0.08    0.17
   6  18 -16    0.12    0.21
  -6 -18  16   -0.01    0.15
   4  18 -16   -0.12    0.18
  -4 -18  16    0.24    0.18
   2  18 -16    0.64    0.26
  -2 -18  16    0.15    0.18
   0  18 -16    0.00    0.18
   0 -18  16    0.03    0.15
  -2  18 -16    0.08    0.22
  -4  18 -16   -0.12    0.20
  -6  18 -16    0.09    0.23
  -8  18 -16    0.06    0.24
 -10  18 -16    0.44    0.27
 -12  18 -16   -0.02    0.26
 -14  18 -16    0.45    0.30
 -16  18 -16    0.35    0.32
 -18  18 -16    0.11    0.31
 -22 -16  16    0.05    0.20
 -20 -16  16   28.98    1.27
 -18 -16  16    0.19    0.24
 -16 -16  16   73.07    2.01
 -14 -16  16    0.96    0.29
  12  16 -16   48.22    1.56
 -12 -16  16   50.23    1.52
  10  16 -16    0.29    0.24
 -10 -16  16    0.11    0.18
   8  16 -16   98.08    2.29
  -8 -16  16   92.26    2.13
   6  16 -16    0.41    0.24
  -6 -16  16   -0.10    0.15
   4  16 -16   81.76    2.01
  -4 -16  16   79.54    1.83
   2  16 -16    0.75    0.26
  -2 -16  16    0.47    0.19
   0  16 -16  144.04    2.94
   0 -16  16  143.93    2.64
  -2  16 -16    1.51    0.34
   2 -16  16    1.10    0.24
  -4  16 -16   84.62    2.07
  -6  16 -16    0.18    0.24
  -8  16 -16   95.41    2.26
 -10  16 -16    0.33    0.23
 -12  16 -16   53.33    1.62
 -14  16 -16    0.64    0.32
 -16  16 -16   81.69    2.12
 -18  16 -16    0.08    0.28
 -20  16 -16   30.25    1.29
 -22  16 -16    0.12    0.34
 -24  16 -16   25.94    1.30
 -22 -14  16    0.31    0.24
 -20 -14  16    0.19    0.22
 -18 -14  16    0.39    0.22
 -16 -14  16    0.30    0.22
 -14 -14  16    2.57    0.40
  12  14 -16    0.86    0.30
 -12 -14  16    0.93    0.27
  10  14 -16    0.27    0.22
 -10 -14  16    0.00    0.14
   8  14 -16   -0.09    0.19
  -8 -14  16    0.52    0.21
   6  14 -16    3.70    0.42
  -6 -14  16    4.27    0.41
   4  14 -16    0.08    0.18
  -4 -14  16    0.13    0.14
   2  14 -16    0.23    0.19
  -2 -14  16    0.02    0.13
   0  14 -16    0.30    0.22
   0 -14  16    0.13    0.14
  -2  14 -16    0.38    0.23
   2 -14  16   -0.05    0.12
  -4  14 -16   -0.09    0.18
   4 -14  16    0.01    0.12
  -6  14 -16    3.88    0.43
  -8  14 -16    0.32    0.25
 -10  14 -16    0.28    0.21
 -12  14 -16    1.73    0.35
 -14  14 -16    3.39    0.43
 -14  14 -16    4.12    0.48
 -16  14 -16    0.33    0.27
 -16  14 -16    0.78    0.31
 -18  14 -16    0.35    0.26
 -20  14 -16    0.16    0.25
 -22  14 -16    0.66    0.35
 -24  14 -16    0.28    0.33
 -26  14 -16   -0.12    0.31
 -24 -12  16   15.88    0.95
 -22 -12  16    0.02    0.20
 -20 -12  16   35.95    1.35
 -18 -12  16    0.02    0.17
 -16 -12  16   48.79    1.51
 -14 -12  16    0.99    0.27
 -12 -12  16   60.84    1.62
  10  12 -16    0.35    0.22
 -10 -12  16    0.60    0.21
   8  12 -16   64.14    1.71
  -8 -12  16   62.66    1.60
   6  12 -16   -0.08    0.16
  -6 -12  16    0.04    0.13
   4  12 -16   94.04    2.11
  -4 -12  16   96.88    2.00
   2  12 -16    1.06    0.27
  -2 -12  16    0.80    0.22
   0  12 -16   65.75    1.66
   0 -12  16   66.01    1.52
  -2  12 -16    1.59    0.31
   2 -12  16    1.17    0.22
  -4  12 -16   95.05    2.11
   4 -12  16   98.34    1.90
  -6  12 -16    0.11    0.18
   6 -12  16    0.15    0.15
  -8  12 -16   63.54    1.63
 -10  12 -16    0.49    0.22
 -10  12 -16    0.20    0.21
 -12  12 -16   64.93    1.63
 -12  12 -16   67.14    1.71
 -14  12 -16    0.65    0.25
 -14  12 -16    1.16    0.32
 -16  12 -16   55.18    1.56
 -16  12 -16   53.30    1.58
 -18  12 -16    0.31    0.25
 -20  12 -16   36.63    1.39
 -22  12 -16   -0.12    0.26
 -24  12 -16   18.11    1.06
 -26  12 -16    0.14    0.32
 -26 -10  16    0.04    0.25
 -24 -10  16    0.23    0.23
 -22 -10  16    0.44    0.25
 -20 -10  16    0.19    0.19
 -18 -10  16    0.08    0.19
 -16 -10  16    0.18    0.17
 -14 -10  16    0.12    0.15
 -12 -10  16    0.15    0.16
 -10 -10  16    0.07    0.14
   8  10 -16    0.40    0.26
  -8 -10  16    0.25    0.17
   6  10 -16    0.62    0.23
  -6 -10  16    0.64    0.19
   4  10 -16    0.06    0.17
  -4 -10  16    0.12    0.12
   2  10 -16    3.73    0.39
  -2 -10  16    4.16    0.37
   0  10 -16    0.10    0.17
   0 -10  16    0.02    0.11
  -2  10 -16    4.09    0.40
   2 -10  16    3.69    0.33
  -4  10 -16    0.04    0.16
   4 -10  16   -0.01    0.11
  -6  10 -16    0.62    0.18
  -6  10 -16    0.52    0.23
   6 -10  16    0.43    0.17
  -8  10 -16   -0.01    0.15
  -8  10 -16    0.33    0.19
   8 -10  16   -0.01    0.13
 -10  10 -16   -0.01    0.18
 -10  10 -16    0.25    0.19
 -12  10 -16    0.37    0.20
 -12  10 -16    0.65    0.24
 -14  10 -16    0.12    0.21
 -14  10 -16    0.06    0.21
 -16  10 -16    0.42    0.26
 -18  10 -16    0.52    0.27
 -20  10 -16    0.55    0.28
 -22  10 -16    0.75    0.32
 -24  10 -16    0.30    0.34
 -26  10 -16    0.49    0.33
 -28  10 -16   -0.39    0.30
 -26  -8  16   -0.21    0.20
 -24  -8  16   34.05    1.35
 -22  -8  16    0.17    0.21
 -20  -8  16   41.66    1.40
 -18  -8  16   -0.09    0.15
 -16  -8  16   90.89    2.11
 -14  -8  16    0.41    0.19
 -12  -8  16   57.70    1.52
 -10  -8  16    0.22    0.17
  -8  -8  16  128.54    2.46
   6   8 -16    0.32    0.20
  -6  -8  16    0.13    0.14
   4   8 -16  115.45    2.38
  -4  -8  16  117.40    2.24
   2   8 -16    1.43    0.28
  -2  -8  16    1.43    0.24
   0   8 -16  175.11    3.13
   0  -8  16  174.40    2.95
  -2   8 -16    1.63    0.28
   2  -8  16    1.19    0.23
  -4   8 -16  115.40    2.28
  -4   8 -16  114.64    2.05
   4  -8  16  116.16    2.15
  -6   8 -16    0.02    0.14
  -6   8 -16    0.45    0.18
   6  -8  16    0.19    0.15
  -8   8 -16  135.17    2.54
  -8   8 -16  132.70    2.41
   8  -8  16  130.79    2.35
 -10   8 -16    0.42    0.19
 -10   8 -16    0.07    0.13
 -10   8 -16    0.53    0.21
  10  -8  16    0.23    0.15
 -12   8 -16   65.11    1.44
 -12   8 -16   63.88    1.55
 -12   8 -16   63.21    1.59
  12  -8  16   65.09    1.45
 -14   8 -16    0.42    0.22
 -14   8 -16    0.50    0.26
 -16   8 -16   93.04    2.18
 -18   8 -16    0.18    0.20
 -20   8 -16   44.30    1.52
 -22   8 -16    0.24    0.26
 -24   8 -16   31.04    1.37
 -26   8 -16   -0.03    0.27
 -28   8 -16   14.03    0.98
 -28  -6  16    0.61    0.30
 -26  -6  16   -0.10    0.21
 -24  -6  16    0.09    0.19
 -22  -6  16    0.79    0.28
 -20  -6  16    0.20    0.20
 -18  -6  16   -0.03    0.13
 -16  -6  16    0.19    0.15
 -14  -6  16    4.29    0.41
 -12  -6  16    0.25    0.15
 -10  -6  16    0.38    0.16
  -8  -6  16    0.11    0.15
  -6  -6  16    1.11    0.23
   4   6 -16    0.05    0.18
  -4  -6  16    0.06    0.11
   2   6 -16    0.08    0.16
  -2  -6  16    0.07    0.12
   0   6 -16    0.15    0.15
   0  -6  16   -0.13    0.11
  -2   6 -16    0.02    0.14
   2  -6  16   -0.05    0.12
  -4   6 -16    0.07    0.14
  -4   6 -16    0.34    0.18
   4  -6  16    0.01    0.12
  -6   6 -16    1.10    0.20
  -6   6 -16    0.57    0.21
   6  -6  16    1.66    0.25
  -8   6 -16    0.21    0.17
  -8   6 -16    0.31    0.16
   8  -6  16    0.01    0.13
 -10   6 -16    0.44    0.19
 -10   6 -16    0.59    0.22
 -10   6 -16    0.55    0.18
  10  -6  16    0.64    0.19
 -12   6 -16    0.37    0.20
 -12   6 -16    0.11    0.19
  12  -6  16    0.17    0.15
 -14   6 -16    4.22    0.43
  14  -6  16    2.87    0.32
 -16   6 -16    0.07    0.19
 -18   6 -16   -0.15    0.18
 -20   6 -16    0.00    0.23
 -22   6 -16    0.97    0.32
 -24   6 -16    0.27    0.30
 -26   6 -16    0.31    0.30
 -28   6 -16   -0.07    0.30
 -26  -4  16   -0.19    0.19
 -24  -4  16   28.09    1.17
 -22  -4  16    0.05    0.20
 -20  -4  16   49.39    1.49
 -18  -4  16    0.05    0.16
 -16  -4  16   80.76    1.91
 -14  -4  16    0.08    0.15
 -12  -4  16   94.84    2.03
 -10  -4  16   -0.07    0.11
  -8  -4  16  108.88    2.15
  -6  -4  16    0.04    0.11
  -6  -4  16    0.01    0.12
  -4  -4  16  115.50    2.20
  -2  -4  16    0.08    0.13
   0   4 -16  111.70    2.23
   0  -4  16  111.89    2.13
  -2   4 -16    0.08    0.14
   2  -4  16    0.00    0.12
  -4   4 -16  117.47    2.27
   4  -4  16  118.18    2.19
  -6   4 -16    0.11    0.16
  -6   4 -16    0.14    0.14
   6  -4  16    0.11    0.13
  -8   4 -16  115.19    2.18
  -8   4 -16  112.43    2.15
  -8   4 -16  108.16    2.10
   8  -4  16  113.16    2.12
 -10   4 -16    0.02    0.16
 -10   4 -16   -0.05    0.14
 -10   4 -16    0.07    0.13
  10  -4  16   -0.14    0.12
 -12   4 -16   99.89    1.96
 -12   4 -16  101.08    2.12
  12  -4  16   96.44    1.96
 -14   4 -16    0.26    0.20
  14  -4  16    0.04    0.14
 -16   4 -16   84.00    2.03
  16  -4  16   85.92    1.82
 -18   4 -16    0.12    0.21
 -20   4 -16   50.31    1.63
 -22   4 -16    0.00    0.24
 -24   4 -16   27.65    1.28
 -26   4 -16    0.00    0.25
 -28   4 -16   19.24    1.15
 -26  -2  16   -0.05    0.23
 -24  -2  16    0.29    0.21
 -22  -2  16    0.28    0.19
 -20  -2  16    0.58    0.22
 -18  -2  16    0.21    0.16
 -16  -2  16    0.83    0.23
 -14  -2  16    0.02    0.12
 -12  -2  16    0.85    0.21
 -10  -2  16    3.28    0.29
 -10  -2  16    3.43    0.34
  -8  -2  16    1.40    0.21
  -8  -2  16    1.14    0.23
  -6  -2  16    0.05    0.12
  -6  -2  16    0.07    0.12
  -4  -2  16    0.04    0.11
  -2  -2  16    0.84    0.22
   0  -2  16    0.03    0.12
   2  -2  16    1.26    0.22
  -4   2 -16    0.04    0.15
   4  -2  16   -0.07    0.10
  -6   2 -16    0.03    0.13
  -6   2 -16   -0.01    0.13
   6  -2  16    0.12    0.12
  -8   2 -16    1.42    0.24
  -8   2 -16    0.87    0.21
  -8   2 -16    1.32    0.23
   8  -2  16    1.40    0.24
 -10   2 -16    4.43    0.36
 -10   2 -16    4.15    0.39
 -10   2 -16    3.45    0.33
  10  -2  16    4.00    0.35
 -12   2 -16    1.21    0.27
  12  -2  16    0.94    0.22
 -14   2 -16    0.17    0.20
  14  -2  16   -0.08    0.12
 -16   2 -16    0.63    0.23
  16  -2  16    1.06    0.23
 -18   2 -16   -0.13    0.20
  18  -2  16    0.01    0.16
 -20   2 -16    0.62    0.28
 -22   2 -16    0.36    0.25
 -24   2 -16    0.11    0.27
 -26   2 -16    0.05    0.27
 -28   2 -16    0.48    0.36
 -30   2 -16   -0.12    0.29
 -24   0  16   44.33    1.43
 -22   0  16    0.03    0.18
 -20   0  16   41.92    1.30
 -18   0  16    0.21    0.16
 -16   0  16  137.80    2.71
 -16   0  16  150.31    2.74
 -14   0  16    0.09    0.16
 -14   0  16    0.15    0.15
 -12   0  16   67.71    1.51
 -12   0  16   64.19    1.56
 -10   0  16    0.02    0.12
 -10   0  16    0.04    0.13
  -8   0  16  170.54    2.98
  -8   0  16  175.28    2.92
  -6   0  16    0.19    0.12
  -6   0  16    0.03    0.12
  -4   0  16  111.73    2.15
  -2   0  16    0.06    0.13
   0   0  16  355.95    5.21
   2   0  16    0.02    0.13
   4   0  16  113.23    2.14
  -6   0 -16    0.03    0.11
   6   0  16   -0.02    0.12
  -8   0 -16  165.95    2.88
  -8   0 -16  168.82    3.01
   8   0  16  171.64    2.90
 -10   0 -16    0.28    0.18
  10   0  16   -0.05    0.12
 -12   0 -16   65.73    1.66
  12   0  16   68.24    1.55
 -14   0 -16    0.12    0.18
  14   0  16    0.11    0.13
 -16   0 -16  137.79    2.86
  16   0  16  142.77    2.61
 -18   0 -16   -0.07    0.18
  18   0  16    0.08    0.16
 -20   0 -16   42.83    1.47
  20   0  16   42.75    1.27
 -22   0 -16   -0.08    0.21
 -24   0 -16   44.72    1.63
 -26   0 -16   -0.33    0.22
 -28   0 -16   15.76    1.02
 -30   0 -16   -0.32    0.28
 -22   2  16    0.52    0.23
 -20   2  16    0.93    0.26
 -20   2  16    1.16    0.34
 -18   2  16    0.10    0.16
 -18   2  16    0.05    0.19
 -16   2  16    1.06    0.27
 -16   2  16    1.23    0.27
 -14   2  16   -0.07    0.15
 -14   2  16    0.10    0.15
 -12   2  16    1.04    0.24
 -12   2  16    1.44    0.27
 -10   2  16    3.25    0.32
 -10   2  16    4.24    0.37
  -8   2  16    1.10    0.22
  -8   2  16    0.86    0.20
  -6   2  16   -0.06    0.13
  -6   2  16    0.27    0.16
  -4   2  16    0.06    0.14
  -2   2  16    1.10    0.23
   0   2  16    0.08    0.13
   2   2  16    1.49    0.24
  -4  -2 -16    0.15    0.12
   4   2  16    0.08    0.13
  -6  -2 -16    0.19    0.12
   6   2  16    0.00    0.11
   8   2  16    1.22    0.23
 -10  -2 -16    3.54    0.37
  10   2  16    4.62    0.38
 -12  -2 -16    0.73    0.24
  12   2  16    1.09    0.23
 -14  -2 -16    0.20    0.17
  14   2  16    0.00    0.12
 -16  -2 -16    1.46    0.31
  16   2  16    0.61    0.20
 -18  -2 -16    0.32    0.22
  18   2  16    0.20    0.18
 -20  -2 -16    1.42    0.36
  20   2  16    0.96    0.28
 -22  -2 -16    0.14    0.21
  22   2  16    0.05    0.21
 -24  -2 -16    1.22    0.36
 -26  -2 -16    0.51    0.29
 -28  -2 -16    0.68    0.38
 -30  -2 -16    0.32    0.42
 -24   4  16   27.15    1.20
 -22   4  16    0.00    0.25
 -20   4  16   52.33    1.57
 -20   4  16   49.20    1.42
 -18   4  16    0.06    0.15
 -18   4  16   -0.09    0.20
 -16   4  16   85.34    1.90
 -16   4  16   87.39    2.02
 -14   4  16   -0.24    0.15
 -14   4  16    0.19    0.14
 -12   4  16   96.22    1.98
 -12   4  16   95.87    2.05
 -10   4  16    0.05    0.11
 -10   4  16    0.17    0.14
  -8   4  16  110.59    2.20
  -8   4  16  108.33    2.14
  -6   4  16    0.03    0.13
  -6   4  16   -0.06    0.11
  -4   4  16  118.78    2.23
  -2   4  16    0.19    0.15
   0   4  16  109.41    2.11
  -2  -4 -16   -0.04    0.11
   2   4  16    0.19    0.13
  -4  -4 -16  113.71    2.18
   4   4  16  114.16    2.17
  -6  -4 -16    0.06    0.11
   6   4  16    0.16    0.13
   8   4  16  114.99    2.21
  10   4  16    0.12    0.13
 -12  -4 -16   94.43    2.16
  12   4  16   98.59    2.02
 -14  -4 -16   -0.04    0.16
  14   4  16    0.11    0.13
 -16  -4 -16   81.70    2.05
  16   4  16   80.94    1.85
 -18  -4 -16    0.05    0.21
  18   4  16    0.04    0.17
 -20  -4 -16   44.60    1.54
  20   4  16   47.34    1.39
 -22  -4 -16    0.34    0.26
  22   4  16    0.13    0.20
 -24  -4 -16   24.94    1.22
 -26  -4 -16   -0.12    0.32
 -28  -4 -16   19.84    1.19
 -28   6  16    0.27    0.37
 -26   6  16    0.39    0.32
 -24   6  16    0.58    0.32
 -22   6  16    1.14    0.36
 -20   6  16    0.24    0.25
 -18   6  16    0.21    0.23
 -18   6  16   -0.10    0.13
 -16   6  16    0.32    0.23
 -16   6  16    0.13    0.17
 -14   6  16    4.05    0.38
 -14   6  16    3.63    0.40
 -12   6  16    0.23    0.18
 -12   6  16    0.20    0.16
 -10   6  16    0.91    0.22
 -10   6  16    0.61    0.21
  -8   6  16    0.24    0.16
  -8   6  16    0.47    0.18
  -6   6  16    0.94    0.23
  -6   6  16    0.90    0.23
  -4   6  16    0.29    0.15
  -2   6  16   -0.02    0.12
   0  -6 -16    0.01    0.14
   0   6  16    0.10    0.12
  -2  -6 -16    0.07    0.13
   2   6  16    0.17    0.13
  -4  -6 -16    0.08    0.12
   4   6  16    0.18    0.12
   6   6  16    1.25    0.23
   8   6  16    0.43    0.16
  10   6  16    0.37    0.18
  12   6  16    0.45    0.19
 -14  -6 -16    3.39    0.43
  14   6  16    3.53    0.38
 -16  -6 -16    0.50    0.21
  16   6  16    0.28    0.17
 -18  -6 -16    0.10    0.23
  18   6  16   -0.06    0.16
 -20  -6 -16    0.19    0.28
  20   6  16    0.20    0.20
 -22  -6 -16    1.27    0.42
  22   6  16    0.41    0.26
 -24  -6 -16    0.33    0.30
  24   6  16    0.29    0.25
 -26  -6 -16    0.53    0.36
 -28  -6 -16   -0.07    0.32
 -28   8  16   15.49    1.04
 -26   8  16    0.53    0.35
 -24   8  16   37.75    1.49
 -22   8  16    0.08    0.23
 -20   8  16   45.87    1.54
 -18   8  16    0.18    0.24
 -16   8  16   96.86    2.02
 -16   8  16   91.99    2.23
 -14   8  16    0.70    0.26
 -14   8  16    0.41    0.20
 -12   8  16   57.71    1.58
 -12   8  16   60.05    1.45
 -10   8  16    0.26    0.18
 -10   8  16    0.13    0.15
  -8   8  16  129.29    2.61
  -8   8  16  127.46    2.39
  -6   8  16    0.04    0.16
  -6   8  16    0.01    0.13
  -4   8  16  114.57    2.21
   2  -8 -16    1.53    0.27
  -2   8  16    1.16    0.24
   0  -8 -16  164.77    2.89
  -2  -8 -16    1.36    0.24
   2   8  16    0.77    0.19
   4   8  16  114.71    2.23
   6   8  16    0.04    0.12
   8   8  16  134.63    2.54
  10   8  16    0.03    0.13
  12   8  16   61.91    1.57
  14   8  16    0.70    0.23
 -16  -8 -16   89.92    2.29
  16   8  16   93.51    2.11
 -18  -8 -16    0.10    0.24
  18   8  16    0.03    0.19
 -20  -8 -16   44.45    1.59
  20   8  16   41.70    1.39
 -22  -8 -16    0.24    0.26
  22   8  16    0.19    0.23
 -24  -8 -16   32.01    1.43
  24   8  16   31.79    1.26
 -26  -8 -16    0.18    0.36
  26   8  16   -0.10    0.25
 -28  -8 -16   12.91    1.00
 -28  10  16    0.35    0.40
 -26  10  16    0.24    0.36
 -24  10  16    0.16    0.32
 -22  10  16    0.29    0.29
 -20  10  16    0.92    0.35
 -18  10  16    0.47    0.27
 -16  10  16    0.15    0.19
 -14  10  16    0.17    0.17
 -14  10  16   -0.04    0.20
 -12  10  16    0.62    0.20
 -12  10  16    0.46    0.21
 -10  10  16    0.08    0.14
 -10  10  16    0.11    0.16
  -8  10  16    0.23    0.18
  -8  10  16    0.06    0.14
   6 -10 -16    0.22    0.16
  -6  10  16    0.62    0.21
  -6  10  16    0.95    0.25
   4 -10 -16    0.12    0.15
  -4  10  16    0.13    0.14
   2 -10 -16    3.41    0.35
  -2  10  16    3.67    0.36
   0 -10 -16    0.10    0.16
   0  10  16    0.23    0.14
   2  10  16    4.78    0.39
   4  10  16   -0.09    0.10
   6  10  16    0.34    0.17
   8  10  16    0.18    0.13
  10  10  16   -0.08    0.12
  12  10  16    0.70    0.22
  14  10  16    0.26    0.19
  16  10  16    0.20    0.19
  18  10  16    0.11    0.19
  20  10  16    0.59    0.27
 -22 -10 -16    0.32    0.34
  22  10  16    0.10    0.21
 -24 -10 -16    0.38    0.33
  24  10  16    0.43    0.29
 -26 -10 -16    0.41    0.38
  26  10  16   -0.15    0.27
 -28 -10 -16    0.31    0.35
 -26  12  16    0.00    0.31
 -24  12  16   19.13    1.13
 -22  12  16   -0.01    0.25
 -20  12  16   33.86    1.38
 -18  12  16    0.22    0.27
 -16  12  16   49.95    1.62
 -14  12  16    0.41    0.25
 -12  12  16   60.64    1.72
 -12  12  16   59.43    1.47
  10 -12 -16    0.47    0.19
 -10  12  16    0.14    0.17
 -10  12  16    0.30    0.22
   8 -12 -16   63.18    1.52
  -8  12  16   64.49    1.53
  -8  12  16   65.03    1.76
   6 -12 -16    0.13    0.16
  -6  12  16    0.25    0.17
  -6  12  16    0.39    0.20
   4 -12 -16   97.68    2.00
  -4  12  16   92.28    2.19
  -4  12  16   96.74    2.01
  -2  12  16    1.69    0.28
   0  12  16   67.35    1.60
   2  12  16    1.15    0.24
   4  12  16   94.17    2.01
   6  12  16    0.12    0.14
   8  12  16   63.57    1.62
  10  12  16    0.52    0.20
  12  12  16   63.65    1.69
  14  12  16    0.75    0.26
  16  12  16   52.95    1.59
  18  12  16    0.33    0.24
  20  12  16   34.25    1.32
  22  12  16    0.36    0.26
  24  12  16   17.83    0.99
  26  12  16    0.51    0.31
 -26  14  16    0.78    0.41
 -24  14  16    0.44    0.33
 -22  14  16    0.49    0.35
 -20  14  16    0.09    0.26
 -18  14  16    0.25    0.28
 -16  14  16    0.65    0.29
 -14  14  16    4.65    0.54
 -12  14  16    1.13    0.32
  10 -14 -16   -0.23    0.17
 -10  14  16    0.03    0.20
 -10  14  16    0.18    0.17
   8 -14 -16    0.67    0.23
  -8  14  16    0.38    0.21
  -8  14  16    0.34    0.18
   6 -14 -16    3.60    0.38
  -6  14  16    3.72    0.37
  -6  14  16    3.52    0.44
  -4  14  16   -0.09    0.11
  -4  14  16   -0.02    0.16
  -2  14  16    0.30    0.16
   0  14  16    0.21    0.15
   2  14  16    0.12    0.15
   4  14  16    0.03    0.13
   6  14  16    3.71    0.40
   8  14  16    0.64    0.21
  10  14  16    0.15    0.17
  12  14  16    0.57    0.22
  14  14  16    3.37    0.44
  16  14  16    0.71    0.27
  18  14  16    0.24    0.23
  20  14  16    0.37    0.23
  22  14  16    0.87    0.33
  24  14  16    0.54    0.33
 -24  16  16   25.03    1.33
 -22  16  16    0.29    0.33
 -20  16  16   28.40    1.34
 -18  16  16   -0.26    0.25
 -16  16  16   74.36    2.16
 -14  16  16    0.72    0.30
 -12  16  16   50.44    1.65
 -10  16  16    0.09    0.24
  -8  16  16   89.39    2.27
  -8  16  16   90.15    1.95
  -6  16  16    0.13    0.18
  -6  16  16    0.07    0.22
  -4  16  16   84.94    2.16
  -4  16  16   81.82    1.88
  -2  16  16    1.12    0.26
   0  16  16  140.73    2.71
   2  16  16    1.03    0.27
   4  16  16   82.72    1.94
   6  16  16    0.27    0.18
   8  16  16   89.38    2.09
  10  16  16    0.14    0.15
  12  16  16   53.77    1.62
  14  16  16    0.71    0.25
  16  16  16   78.14    2.10
  18  16  16    0.40    0.24
  20  16  16   29.20    1.27
  22  16  16   -0.09    0.28
 -24  18  16    0.19    0.36
 -22  18  16    0.30    0.32
 -20  18  16   -0.34    0.28
 -18  18  16    0.34    0.33
 -16  18  16    0.10    0.28
 -14  18  16    0.66    0.33
 -12  18  16    0.20    0.25
 -10  18  16   -0.01    0.22
  -8  18  16    0.27    0.21
  -6  18  16    0.31    0.22
  -4  18  16    0.23    0.17
  -4  18  16    0.16    0.18
  -2  18  16    0.28    0.21
  -2  18  16    0.21    0.19
   0  18  16   -0.12    0.15
   2  18  16    0.59    0.21
   4  18  16    0.17    0.16
   6  18  16   -0.16    0.14
   8  18  16   -0.05    0.14
  10  18  16    0.49    0.22
  12  18  16    0.21    0.19
  14  18  16    0.31    0.22
  16  18  16   -0.05    0.18
  18  18  16    0.56    0.29
  20  18  16    0.07    0.28
 -22  20  16    0.53    0.38
 -20  20  16   17.57    1.13
 -18  20  16    0.14    0.28
 -16  20  16   28.91    1.36
 -14  20  16    0.02    0.26
 -12  20  16   30.41    1.32
 -10  20  16    0.28    0.23
  -8  20  16   41.65    1.51
  -6  20  16    0.22    0.26
  -4  20  16   44.89    1.56
  -2  20  16    1.15    0.27
  -2  20  16    1.00    0.32
   0  20  16   43.97    1.37
   2  20  16    0.91    0.27
   4  20  16   47.70    1.46
   6  20  16    0.59    0.24
   8  20  16   41.97    1.42
  10  20  16    0.55    0.25
  12  20  16   32.54    1.29
  14  20  16   -0.26    0.16
  16  20  16   26.82    1.21
  18  20  16    0.11    0.22
 -20  22  16   -0.12    0.30
 -18  22  16    0.05    0.30
 -16  22  16    0.04    0.23
 -14  22  16    0.67    0.31
 -12  22  16   -0.06    0.21
 -10  22  16    0.28    0.23
  -8  22  16    0.00    0.16
  -6  22  16    0.67    0.28
  -4  22  16    0.12    0.22
  -2  22  16    0.26    0.23
   0  22  16   -0.05    0.19
   0  22  16    0.26    0.24
   2  22  16    0.05    0.18
   4  22  16    0.18    0.19
   6  22  16    0.56    0.24
   8  22  16   -0.08    0.18
  10  22  16    0.13    0.21
  12  22  16   -0.20    0.17
  14  22  16    0.50    0.25
  16  22  16    0.05    0.18
 -18  24  16    0.10    0.30
 -16  24  16   24.03    1.30
 -14  24  16    0.01    0.28
 -12  24  16   17.56    1.07
 -10  24  16    0.41    0.27
  -8  24  16   32.60    1.40
  -6  24  16    0.33    0.28
  -4  24  16   25.40    1.22
  -2  24  16    0.27    0.26
   0  24  16   47.94    1.71
   2  24  16    0.57    0.27
   2  24  16    0.66    0.30
   4  24  16   26.34    1.12
   6  24  16    0.35    0.24
   8  24  16   34.82    1.34
  10  24  16    0.82    0.30
  12  24  16   18.60    1.02
  14  24  16    0.90    0.34
 -14  26  16    0.09    0.29
 -12  26  16    0.00    0.28
 -10  26  16    0.00    0.26
  -8  26  16    0.15    0.28
  -6  26  16    0.05    0.24
  -4  26  16    0.23    0.25
  -2  26  16    0.20    0.26
   0  26  16    0.10    0.26
   2  26  16    0.30    0.29
   4  26  16   -0.10    0.23
   6  26  16    0.33    0.26
   8  26  16   -0.19    0.19
  10  26  16    0.09    0.25
 -10  28  16   -0.01    0.31
  -8  28  16   15.20    1.00
  -6  28  16   -0.10    0.24
  -4  28  16   19.16    1.11
  -2  28  16    0.52    0.34
   0  28  16   18.01    1.08
   2  28  16    1.38    0.42
   4  28  16   18.36    1.11
   8  28  16   14.97    0.92
  -2  30  16    0.10    0.28
   0  30  16   -0.26    0.26
   2  30  16   -0.19    0.26
   5  29 -17   -0.09    0.28
   3  29 -17   -0.05    0.30
   1  29 -17    0.04    0.34
  -1  29 -17   -0.25    0.32
  -3  29 -17   -0.12    0.27
  -5  29 -17   -0.12    0.31
  11  27 -17    0.49    0.38
   9  27 -17   -0.10    0.31
   7  27 -17   -0.07    0.31
   5  27 -17    0.21    0.34
   3  27 -17    0.04    0.31
   1  27 -17    0.08    0.32
  -1  27 -17    0.16    0.30
  -3  27 -17    0.28    0.30
  -5  27 -17    0.19    0.35
  -7  27 -17   -0.22    0.33
  -9  27 -17    0.46    0.36
 -11  27 -17   -0.01    0.32
  13  25 -17   -0.22    0.31
  11  25 -17    0.25    0.33
 -11 -25  17    0.20    0.30
   9  25 -17    0.02    0.26
  -9 -25  17    0.46    0.29
   7  25 -17    0.41    0.33
   5  25 -17    0.01    0.27
   3  25 -17    0.07    0.29
   1  25 -17   -0.03    0.25
  -1  25 -17    0.28    0.31
  -3  25 -17    0.26    0.27
  -5  25 -17   -0.18    0.30
  -7  25 -17    0.06    0.34
  -9  25 -17    0.24    0.34
 -11  25 -17   -0.26    0.31
 -13  25 -17    0.02    0.34
 -15  25 -17   -0.44    0.32
 -15 -23  17    0.03    0.30
  13  23 -17   -0.02    0.31
 -13 -23  17    0.23    0.27
  11  23 -17    0.50    0.31
 -11 -23  17    0.75    0.33
   9  23 -17   -0.14    0.26
  -9 -23  17    0.20    0.24
   7  23 -17    0.07    0.27
  -7 -23  17    0.52    0.26
   5  23 -17    0.01    0.27
  -5 -23  17    0.22    0.24
   3  23 -17    0.48    0.30
   1  23 -17    0.11    0.25
  -1  23 -17    0.25    0.26
  -3  23 -17    0.55    0.32
  -5  23 -17   -0.02    0.30
  -7  23 -17   -0.24    0.28
  -9  23 -17    0.47    0.30
 -11  23 -17    0.50    0.36
 -13  23 -17    0.11    0.31
 -15  23 -17   -0.17    0.31
 -17  23 -17    0.06    0.37
 -17 -21  17    0.03    0.28
  15  21 -17    0.20    0.32
 -15 -21  17    0.11    0.28
  13  21 -17    0.17    0.27
 -13 -21  17    0.08    0.22
  11  21 -17   -0.21    0.26
 -11 -21  17    0.24    0.24
   9  21 -17    0.03    0.24
  -9 -21  17    0.19    0.21
   7  21 -17   -0.02    0.24
  -7 -21  17    0.05    0.20
   5  21 -17    0.06    0.25
  -5 -21  17    0.27    0.20
   3  21 -17   -0.15    0.22
  -3 -21  17    0.15    0.20
   1  21 -17   -0.07    0.22
  -1  21 -17   -0.02    0.24
  -3  21 -17    0.12    0.28
  -5  21 -17    0.10    0.28
  -7  21 -17   -0.03    0.27
  -9  21 -17    0.13    0.30
 -11  21 -17    0.12    0.30
 -13  21 -17    0.05    0.31
 -15  21 -17   -0.07    0.31
 -17  21 -17   -0.33    0.32
 -19  21 -17    0.39    0.41
 -19 -19  17   -0.18    0.23
 -17 -19  17   -0.15    0.25
 -15 -19  17   -0.25    0.23
  13  19 -17    0.02    0.25
 -13 -19  17    0.41    0.25
  11  19 -17    0.13    0.23
 -11 -19  17   -0.09    0.19
   9  19 -17    0.10    0.24
  -9 -19  17    0.54    0.26
   7  19 -17    0.33    0.27
  -7 -19  17    0.67    0.26
   5  19 -17    0.15    0.24
  -5 -19  17    0.12    0.20
   3  19 -17    0.00    0.19
  -3 -19  17   -0.04    0.16
   1  19 -17   -0.35    0.19
  -1 -19  17   -0.16    0.15
  -1  19 -17    0.27    0.23
  -3  19 -17   -0.37    0.22
  -5  19 -17    0.51    0.29
  -7  19 -17    0.67    0.33
  -9  19 -17    0.47    0.27
 -11  19 -17    0.25    0.30
 -13  19 -17   -0.14    0.27
 -15  19 -17   -0.09    0.29
 -17  19 -17   -0.16    0.27
 -19 -17  17   -0.04    0.25
 -17 -17  17    0.40    0.26
 -15 -17  17    0.17    0.22
  13  17 -17    0.11    0.24
 -13 -17  17    0.02    0.21
  11  17 -17    0.09    0.23
 -11 -17  17    0.08    0.18
   9  17 -17    0.09    0.23
  -9 -17  17   -0.02    0.16
   7  17 -17   -0.14    0.19
  -7 -17  17    0.11    0.18
   5  17 -17   -0.07    0.18
  -5 -17  17   -0.01    0.14
   3  17 -17    0.08    0.21
  -3 -17  17   -0.06    0.14
   1  17 -17    0.26    0.23
  -1 -17  17   -0.07    0.14
  -1  17 -17    0.32    0.26
   1 -17  17    0.07    0.15
  -3  17 -17    0.06    0.21
  -5  17 -17    0.07    0.23
  -7  17 -17   -0.14    0.21
  -9  17 -17   -0.12    0.23
 -11  17 -17    0.14    0.27
 -13  17 -17    0.01    0.27
 -15  17 -17    0.10    0.28
 -17  17 -17    0.45    0.32
 -21 -15  17    0.21    0.21
 -19 -15  17   -0.07    0.21
 -17 -15  17    0.07    0.18
 -15 -15  17   -0.19    0.17
 -13 -15  17    0.36    0.23
  11  15 -17    1.03    0.33
 -11 -15  17    0.53    0.24
   9  15 -17    0.01    0.24
  -9 -15  17    0.26    0.19
   7  15 -17   -0.02    0.19
  -7 -15  17   -0.06    0.14
   5  15 -17   -0.18    0.18
  -5 -15  17   -0.17    0.13
   3  15 -17    0.00    0.19
  -3 -15  17    0.01    0.15
   1  15 -17   -0.28    0.21
  -1 -15  17    0.32    0.18
  -1  15 -17    0.17    0.22
   1 -15  17    0.05    0.16
  -3  15 -17   -0.12    0.23
   3 -15  17    0.34    0.18
  -5  15 -17   -0.03    0.20
  -7  15 -17    0.16    0.22
  -9  15 -17    0.18    0.22
 -11  15 -17    0.94    0.33
 -13  15 -17    0.41    0.26
 -15  15 -17   -0.03    0.27
 -17  15 -17    0.01    0.28
 -19  15 -17    0.37    0.30
 -21  15 -17    0.19    0.31
 -23  15 -17    0.24    0.34
 -25  15 -17    0.08    0.36
 -23 -13  17    0.05    0.21
 -21 -13  17   -0.01    0.19
 -19 -13  17    0.15    0.20
 -17 -13  17   -0.08    0.16
 -15 -13  17    0.66    0.25
 -13 -13  17   -0.02    0.15
 -11 -13  17    0.44    0.21
   9  13 -17    0.40    0.24
  -9 -13  17    0.15    0.17
   7  13 -17    2.20    0.38
  -7 -13  17    1.30    0.28
   5  13 -17    1.28    0.30
  -5 -13  17    2.02    0.31
   3  13 -17    0.51    0.22
  -3 -13  17    0.10    0.14
   1  13 -17    0.67    0.26
  -1 -13  17    0.65    0.21
  -1  13 -17    0.47    0.22
   1 -13  17    0.58    0.20
  -3  13 -17    0.71    0.26
   3 -13  17    0.29    0.16
  -5  13 -17    1.79    0.34
   5 -13  17    1.14    0.22
  -7  13 -17    1.62    0.32
  -9  13 -17    0.06    0.22
 -11  13 -17    0.85    0.30
 -13  13 -17   -0.08    0.22
 -15  13 -17    0.53    0.32
 -15  13 -17    0.38    0.26
 -17  13 -17    0.03    0.24
 -19  13 -17    0.14    0.25
 -21  13 -17    0.58    0.32
 -23  13 -17    0.36    0.30
 -25  13 -17   -0.24    0.29
 -25 -11  17   -0.07    0.19
 -23 -11  17    0.40    0.25
 -21 -11  17    0.18    0.21
 -19 -11  17   -0.08    0.18
 -17 -11  17   -0.05    0.13
 -15 -11  17    0.59    0.25
 -13 -11  17    0.53    0.23
 -11 -11  17   -0.32    0.13
   9  11 -17   -0.28    0.16
  -9 -11  17    0.10    0.16
   7  11 -17    0.12    0.19
  -7 -11  17   -0.05    0.16
   5  11 -17   -0.12    0.17
  -5 -11  17    0.03    0.13
   3  11 -17    0.34    0.22
  -3 -11  17    0.47    0.19
   1  11 -17   -0.16    0.15
  -1 -11  17    0.17    0.15
  -1  11 -17   -0.07    0.17
   1 -11  17    0.10    0.13
  -3  11 -17    0.15    0.22
   3 -11  17    0.27    0.17
  -5  11 -17   -0.10    0.17
   5 -11  17    0.19    0.15
  -7  11 -17    0.17    0.21
   7 -11  17    0.05    0.13
  -9  11 -17    0.11    0.19
  -9  11 -17    0.05    0.15
 -11  11 -17   -0.31    0.17
 -11  11 -17    0.02    0.20
 -13  11 -17    0.55    0.26
 -13  11 -17    0.49    0.24
 -15  11 -17    0.73    0.29
 -15  11 -17    0.35    0.27
 -17  11 -17    0.37    0.25
 -19  11 -17   -0.43    0.19
 -21  11 -17    0.02    0.26
 -23  11 -17    0.27    0.32
 -25  11 -17    0.63    0.34
 -27  11 -17   -0.02    0.31
 -25  -9  17    0.34    0.24
 -23  -9  17    0.35    0.23
 -21  -9  17    0.11    0.21
 -19  -9  17    0.30    0.20
 -17  -9  17    0.09    0.17
 -15  -9  17    0.12    0.17
 -13  -9  17    0.51    0.19
 -11  -9  17   -0.02    0.13
  -9  -9  17   -0.02    0.12
   7   9 -17   -0.03    0.19
  -7  -9  17    0.02    0.12
   5   9 -17    0.26    0.23
  -5  -9  17    0.14    0.14
   3   9 -17    2.24    0.35
  -3  -9  17    2.68    0.32
   1   9 -17   -0.03    0.17
  -1  -9  17    0.03    0.11
  -1   9 -17   -0.02    0.16
   1  -9  17    0.10    0.12
  -3   9 -17    2.55    0.33
   3  -9  17    2.32    0.28
  -5   9 -17    0.40    0.16
  -5   9 -17    0.13    0.18
   5  -9  17    0.23    0.15
  -7   9 -17   -0.09    0.14
  -7   9 -17    0.08    0.16
   7  -9  17   -0.15    0.11
  -9   9 -17   -0.06    0.15
  -9   9 -17    0.16    0.20
   9  -9  17   -0.03    0.13
 -11   9 -17    0.04    0.17
 -11   9 -17   -0.08    0.17
 -13   9 -17    0.01    0.19
 -13   9 -17    0.06    0.20
 -15   9 -17    0.10    0.19
 -17   9 -17    0.18    0.22
 -19   9 -17    0.41    0.25
 -21   9 -17    0.26    0.24
 -23   9 -17    0.47    0.28
 -25   9 -17    0.46    0.33
 -27   9 -17   -0.26    0.28
 -27  -7  17   -0.03    0.24
 -25  -7  17    0.26    0.26
 -23  -7  17   -0.08    0.21
 -21  -7  17    0.02    0.18
 -19  -7  17    0.56    0.25
 -17  -7  17    0.05    0.15
 -15  -7  17   -0.11    0.14
 -13  -7  17    1.73    0.30
 -11  -7  17   -0.12    0.12
  -9  -7  17    0.01    0.13
  -7  -7  17    0.04    0.13
  -5  -7  17   -0.05    0.12
   3   7 -17    1.42    0.29
  -3  -7  17    1.16    0.23
   1   7 -17   -0.11    0.16
  -1  -7  17    0.39    0.16
  -1   7 -17   -0.07    0.15
   1  -7  17    0.25    0.14
  -3   7 -17    1.17    0.28
   3  -7  17    1.28    0.23
  -5   7 -17   -0.08    0.16
  -5   7 -17   -0.09    0.13
   5  -7  17   -0.13    0.11
  -7   7 -17   -0.13    0.15
  -7   7 -17   -0.07    0.15
   7  -7  17   -0.01    0.13
  -9   7 -17   -0.07    0.11
  -9   7 -17    0.07    0.17
  -9   7 -17    0.00    0.15
   9  -7  17   -0.03    0.13
 -11   7 -17    0.03    0.19
 -11   7 -17    0.25    0.19
 -11   7 -17    0.41    0.17
  11  -7  17    0.17    0.15
 -13   7 -17    1.01    0.27
 -13   7 -17    1.77    0.32
 -15   7 -17    0.07    0.22
 -17   7 -17    0.00    0.20
 -19   7 -17    0.02    0.22
 -21   7 -17   -0.06    0.22
 -23   7 -17   -0.03    0.25
 -25   7 -17    0.01    0.28
 -27   7 -17    0.05    0.32
 -27  -5  17    0.13    0.25
 -25  -5  17    0.20    0.23
 -23  -5  17    0.17    0.20
 -21  -5  17    0.17    0.20
 -19  -5  17    0.18    0.18
 -17  -5  17   -0.05    0.15
 -15  -5  17    0.30    0.17
 -13  -5  17    0.79    0.24
 -11  -5  17    0.18    0.15
  -9  -5  17    0.39    0.16
  -7  -5  17    0.00    0.12
  -5  -5  17   -0.05    0.11
  -3  -5  17    2.07    0.28
   1   5 -17   -0.05    0.16
  -1  -5  17    0.23    0.15
  -1   5 -17   -0.04    0.15
   1  -5  17    0.32    0.16
  -3   5 -17    2.14    0.31
   3  -5  17    1.70    0.25
  -5   5 -17    0.05    0.13
  -5   5 -17   -0.02    0.16
   5  -5  17    0.03    0.11
  -7   5 -17   -0.19    0.13
  -7   5 -17    0.03    0.16
   7  -5  17   -0.05    0.12
  -9   5 -17    0.26    0.16
  -9   5 -17    0.31    0.19
  -9   5 -17    0.45    0.17
   9  -5  17    0.28    0.16
 -11   5 -17   -0.20    0.15
 -11   5 -17    0.26    0.16
 -11   5 -17    0.01    0.16
  11  -5  17   -0.03    0.14
 -13   5 -17    1.37    0.30
  13  -5  17    0.94    0.24
 -15   5 -17   -0.16    0.16
  15  -5  17   -0.12    0.16
 -17   5 -17    0.09    0.21
 -19   5 -17    0.32    0.23
 -21   5 -17   -0.13    0.21
 -23   5 -17    0.35    0.31
 -25   5 -17   -0.07    0.27
 -27   5 -17   -0.08    0.28
 -29   5 -17   -0.38    0.27
 -25  -3  17   -0.06    0.21
 -23  -3  17    0.38    0.25
 -21  -3  17    0.11    0.21
 -19  -3  17    0.22    0.20
 -17  -3  17   -0.13    0.13
 -15  -3  17    0.18    0.19
 -13  -3  17    0.59    0.20
 -11  -3  17    0.20    0.15
  -9  -3  17    1.56    0.27
  -7  -3  17    1.59    0.22
  -7  -3  17    2.13    0.28
  -5  -3  17    2.15    0.24
  -5  -3  17    2.15    0.29
  -3  -3  17    0.01    0.11
  -1  -3  17    0.23    0.15
   1  -3  17    0.74    0.19
  -3   3 -17   -0.03    0.16
   3  -3  17   -0.10    0.11
  -5   3 -17    2.06    0.29
   5  -3  17    1.51    0.25
  -7   3 -17    1.70    0.26
  -7   3 -17    1.13    0.25
  -7   3 -17    1.24    0.26
   7  -3  17    1.51    0.25
  -9   3 -17    1.87    0.28
  -9   3 -17    2.45    0.31
  -9   3 -17    2.72    0.30
   9  -3  17    2.17    0.29
 -11   3 -17    0.19    0.21
 -11   3 -17    0.61    0.23
  11  -3  17    0.85    0.22
 -13   3 -17    0.32    0.22
  13  -3  17    0.16    0.16
 -15   3 -17    0.02    0.18
  15  -3  17    0.23    0.18
 -17   3 -17    0.03    0.18
  17  -3  17    0.04    0.15
 -19   3 -17   -0.32    0.17
 -21   3 -17   -0.15    0.21
 -23   3 -17    0.10    0.26
 -25   3 -17    0.18    0.27
 -27   3 -17   -0.04    0.25
 -29   3 -17   -0.02    0.31
 -25  -1  17    0.26    0.24
 -23  -1  17   -0.03    0.18
 -21  -1  17    0.18    0.19
 -19  -1  17    0.13    0.17
 -17  -1  17    0.05    0.14
 -15  -1  17    0.00    0.13
 -13  -1  17    0.58    0.21
 -11  -1  17    0.03    0.12
 -11  -1  17    0.21    0.15
  -9  -1  17   -0.02    0.11
  -9  -1  17    0.10    0.12
  -7  -1  17    0.01    0.12
  -7  -1  17    0.34    0.17
  -5  -1  17    0.03    0.12
  -3  -1  17    0.34    0.17
  -1  -1  17    0.15    0.14
   1  -1  17    0.02    0.11
   3  -1  17    0.49    0.17
   5  -1  17    0.03    0.13
  -7   1 -17    0.03    0.15
   7  -1  17    0.16    0.15
  -9   1 -17   -0.11    0.14
  -9   1 -17    0.03    0.14
   9  -1  17   -0.01    0.12
 -11   1 -17    0.09    0.17
  11  -1  17   -0.14    0.13
 -13   1 -17    0.89    0.27
  13  -1  17    1.30    0.25
 -15   1 -17    0.08    0.18
  15  -1  17   -0.13    0.14
 -17   1 -17    0.01    0.19
  17  -1  17    0.13    0.17
 -19   1 -17   -0.14    0.20
  19  -1  17   -0.20    0.16
 -21   1 -17   -0.13    0.19
 -23   1 -17    0.46    0.28
 -25   1 -17    0.07    0.27
 -27   1 -17    0.18    0.31
 -29   1 -17   -0.21    0.24
 -23   1  17    0.07    0.20
 -21   1  17    0.16    0.17
 -19   1  17   -0.03    0.15
 -17   1  17    0.00    0.19
 -17   1  17    0.00    0.13
 -15   1  17   -0.12    0.15
 -15   1  17   -0.03    0.17
 -13   1  17    0.79    0.21
 -13   1  17    0.37    0.18
 -11   1  17   -0.04    0.11
 -11   1  17    0.01    0.15
  -9   1  17    0.10    0.13
  -9   1  17   -0.01    0.12
  -7   1  17    0.33    0.15
  -7   1  17    0.10    0.14
  -5   1  17    0.04    0.12
  -3   1  17    0.52    0.18
  -1   1  17    0.00    0.11
   1   1  17    0.06    0.13
   3   1  17    0.40    0.18
  -5  -1 -17    0.19    0.13
   5   1  17    0.16    0.13
  -7  -1 -17    0.16    0.14
   7   1  17    0.15    0.15
  -9  -1 -17   -0.24    0.14
   9   1  17   -0.08    0.11
 -11  -1 -17    0.00    0.16
  11   1  17    0.03    0.13
 -13  -1 -17    0.41    0.21
  13   1  17    0.22    0.16
 -15  -1 -17   -0.15    0.19
  15   1  17    0.27    0.18
 -17  -1 -17    0.05    0.18
  17   1  17    0.02    0.15
 -19  -1 -17   -0.25    0.19
  19   1  17   -0.08    0.17
 -21  -1 -17   -0.30    0.21
  21   1  17   -0.10    0.17
 -23  -1 -17    0.00    0.22
 -25  -1 -17    0.09    0.27
 -27  -1 -17    0.13    0.28
 -29  -1 -17    0.25    0.32
 -21   3  17    0.11    0.24
 -21   3  17    0.03    0.17
 -19   3  17   -0.10    0.15
 -19   3  17   -0.18    0.19
 -17   3  17    0.09    0.16
 -17   3  17   -0.06    0.18
 -15   3  17    0.29    0.21
 -15   3  17    0.20    0.18
 -13   3  17    0.05    0.13
 -13   3  17    0.34    0.19
 -11   3  17    0.18    0.16
 -11   3  17    0.54    0.19
  -9   3  17    2.49    0.31
  -9   3  17    2.05    0.29
  -7   3  17    1.62    0.26
  -7   3  17    1.94    0.28
  -5   3  17    1.26    0.24
  -3   3  17    0.01    0.10
  -1   3  17    0.74    0.20
   1   3  17    0.60    0.19
  -3  -3 -17   -0.14    0.12
   3   3  17   -0.11    0.10
  -5  -3 -17    1.93    0.28
   5   3  17    2.55    0.31
  -7  -3 -17    1.62    0.27
   7   3  17    0.98    0.23
   9   3  17    3.13    0.34
 -11  -3 -17    0.30    0.20
  11   3  17    0.18    0.16
 -13  -3 -17    0.40    0.20
  13   3  17    0.19    0.15
 -15  -3 -17    0.31    0.20
  15   3  17    0.07    0.18
 -17  -3 -17   -0.03    0.19
  17   3  17   -0.04    0.17
 -19  -3 -17   -0.12    0.19
  19   3  17   -0.09    0.16
 -21  -3 -17    0.16    0.23
  21   3  17   -0.03    0.20
 -23  -3 -17    1.13    0.38
 -25  -3 -17   -0.23    0.20
 -27  -3 -17    0.16    0.35
 -29  -3 -17    0.07    0.40
 -25   5  17    0.15    0.34
 -23   5  17    0.23    0.30
 -21   5  17    0.07    0.24
 -19   5  17    0.07    0.24
 -19   5  17    0.11    0.19
 -17   5  17    0.15    0.21
 -17   5  17    0.13    0.17
 -15   5  17    0.38    0.21
 -15   5  17    0.25    0.17
 -13   5  17    1.38    0.29
 -13   5  17    1.53    0.27
 -11   5  17    0.15    0.15
 -11   5  17    0.13    0.17
  -9   5  17    0.29    0.17
  -9   5  17    0.33    0.18
  -7   5  17   -0.04    0.14
  -7   5  17   -0.11    0.10
  -5   5  17    0.08    0.12
  -3   5  17    1.32    0.24
  -1   5  17   -0.12    0.09
  -1  -5 -17    0.16    0.14
   1   5  17   -0.05    0.09
  -3  -5 -17    1.84    0.28
   3   5  17    1.91    0.27
  -5  -5 -17    0.07    0.14
   5   5  17   -0.05    0.11
   7   5  17    0.08    0.13
   9   5  17    0.29    0.18
  11   5  17    0.04    0.14
 -13  -5 -17    1.87    0.34
  13   5  17    1.26    0.26
 -15  -5 -17   -0.15    0.16
  15   5  17    0.06    0.16
 -17  -5 -17   -0.05    0.18
  17   5  17   -0.06    0.15
 -19  -5 -17    0.41    0.26
  19   5  17    0.11    0.20
 -21  -5 -17    0.34    0.25
  21   5  17   -0.09    0.17
 -23  -5 -17   -0.28    0.28
  23   5  17    0.16    0.22
 -25  -5 -17    0.24    0.33
 -27  -5 -17   -0.10    0.31
 -29  -5 -17   -0.26    0.35
 -27   7  17    0.13    0.33
 -25   7  17    0.05    0.31
 -23   7  17    0.31    0.31
 -21   7  17    0.12    0.25
 -19   7  17    0.38    0.28
 -17   7  17    0.28    0.24
 -17   7  17    0.02    0.15
 -15   7  17   -0.02    0.20
 -15   7  17    0.00    0.16
 -13   7  17    0.90    0.23
 -13   7  17    1.07    0.28
 -11   7  17    0.40    0.17
 -11   7  17   -0.02    0.17
  -9   7  17    0.05    0.15
  -9   7  17   -0.16    0.10
  -7   7  17    0.05    0.13
  -7   7  17    0.11    0.16
  -5   7  17   -0.11    0.13
  -5   7  17   -0.08    0.10
  -3   7  17    1.80    0.27
   1  -7 -17   -0.08    0.13
  -1   7  17    0.00    0.14
  -1  -7 -17    0.20    0.16
   1   7  17    0.29    0.15
  -3  -7 -17    1.89    0.29
   3   7  17    1.43    0.26
   5   7  17   -0.09    0.12
   7   7  17   -0.19    0.10
   9   7  17    0.06    0.13
  11   7  17    0.10    0.15
  13   7  17    1.50    0.29
  15   7  17   -0.16    0.16
 -17  -7 -17   -0.12    0.20
  17   7  17    0.06    0.16
 -19  -7 -17    0.42    0.28
  19   7  17    0.24    0.21
 -21  -7 -17    0.28    0.31
  21   7  17    0.07    0.22
 -23  -7 -17   -0.04    0.29
  23   7  17    0.05    0.25
 -25  -7 -17    0.72    0.40
  25   7  17    0.38    0.29
 -27  -7 -17    0.28    0.38
 -27   9  17   -0.17    0.30
 -25   9  17    0.02    0.32
 -23   9  17    0.12    0.30
 -21   9  17    0.17    0.27
 -19   9  17    0.11    0.25
 -17   9  17   -0.01    0.22
 -15   9  17   -0.20    0.20
 -15   9  17    0.05    0.16
 -13   9  17    0.01    0.15
 -13   9  17    0.05    0.19
 -11   9  17    0.18    0.17
 -11   9  17    0.12    0.19
  -9   9  17    0.06    0.16
  -9   9  17    0.07    0.14
  -7   9  17   -0.04    0.15
  -7   9  17   -0.16    0.13
  -5   9  17    0.37    0.18
  -5   9  17    0.40    0.21
   3  -9 -17    2.71    0.33
  -3   9  17    1.77    0.28
   1  -9 -17   -0.13    0.12
  -1   9  17    0.02    0.13
  -1  -9 -17    0.06    0.16
   1   9  17   -0.10    0.09
   3   9  17    2.18    0.29
   5   9  17    0.23    0.15
   7   9  17   -0.02    0.11
   9   9  17   -0.01    0.12
  11   9  17    0.33    0.18
  13   9  17    0.05    0.16
  15   9  17    0.07    0.19
  17   9  17   -0.04    0.18
  19   9  17    0.61    0.27
 -21  -9 -17    0.05    0.25
  21   9  17    0.07    0.22
 -23  -9 -17   -0.01    0.31
  23   9  17   -0.16    0.21
 -25  -9 -17    0.36    0.35
  25   9  17   -0.11    0.23
 -27  -9 -17   -0.41    0.33
  27   9  17    0.08    0.30
 -27  11  17   -0.34    0.33
 -25  11  17    0.01    0.37
 -23  11  17    0.13    0.31
 -21  11  17    0.33    0.31
 -19  11  17    0.10    0.27
 -17  11  17    0.24    0.25
 -15  11  17    0.58    0.30
 -13  11  17    0.86    0.23
 -13  11  17    0.64    0.28
 -11  11  17   -0.14    0.13
 -11  11  17   -0.09    0.17
  -9  11  17    0.02    0.16
  -9  11  17    0.02    0.18
   7 -11 -17    0.03    0.16
  -7  11  17   -0.07    0.16
  -7  11  17    0.21    0.16
   5 -11 -17   -0.02    0.16
  -5  11  17    0.14    0.14
  -5  11  17   -0.12    0.14
   3 -11 -17    0.49    0.20
  -3  11  17    0.59    0.21
   1 -11 -17    0.56    0.20
  -1  11  17   -0.13    0.13
   1  11  17    0.07    0.12
   3  11  17    0.29    0.18
   5  11  17    0.21    0.14
   7  11  17    0.16    0.14
   9  11  17    0.03    0.14
  11  11  17   -0.30    0.11
  13  11  17    0.92    0.28
  15  11  17    0.45    0.24
  17  11  17   -0.01    0.19
  19  11  17   -0.34    0.18
  21  11  17    0.15    0.25
  23  11  17    0.30    0.28
  25  11  17    0.23    0.29
 -27 -11 -17   -0.25    0.34
 -25  13  17   -0.22    0.32
 -23  13  17   -0.14    0.31
 -21  13  17   -0.15    0.29
 -19  13  17   -0.03    0.29
 -17  13  17    0.18    0.26
 -15  13  17    0.74    0.31
 -13  13  17   -0.13    0.20
  11 -13 -17    0.22    0.22
 -11  13  17    0.66    0.24
 -11  13  17    0.67    0.28
   9 -13 -17    0.23    0.17
  -9  13  17    0.24    0.21
  -9  13  17    0.44    0.19
   7 -13 -17    1.25    0.26
  -7  13  17    1.33    0.27
  -7  13  17    1.50    0.33
   5 -13 -17    0.99    0.25
  -5  13  17    1.50    0.28
  -5  13  17    1.01    0.31
  -3  13  17    0.36    0.18
  -1  13  17    0.73    0.21
   1  13  17    0.65    0.21
   3  13  17    0.33    0.19
   5  13  17    1.40    0.28
   7  13  17    0.94    0.25
   9  13  17    0.64    0.21
  11  13  17    0.77    0.23
  13  13  17   -0.10    0.14
  15  13  17    0.20    0.21
  17  13  17    0.14    0.20
  19  13  17    0.15    0.25
  21  13  17   -0.08    0.22
  23  13  17    0.02    0.26
 -25  15  17   -0.05    0.33
 -23  15  17   -0.16    0.32
 -21  15  17    0.26    0.33
 -19  15  17    0.20    0.32
 -17  15  17   -0.01    0.25
 -15  15  17   -0.38    0.17
 -13  15  17    0.37    0.25
 -11  15  17    0.88    0.32
   9 -15 -17    0.13    0.20
  -9  15  17    0.13    0.21
  -9  15  17   -0.13    0.16
  -7  15  17    0.19    0.21
  -7  15  17   -0.03    0.16
  -5  15  17    0.18    0.21
  -5  15  17    0.06    0.18
  -3  15  17    0.25    0.17
  -3  15  17    0.46    0.23
  -1  15  17   -0.02    0.17
   1  15  17    0.18    0.18
   3  15  17    0.31    0.20
   5  15  17   -0.05    0.15
   7  15  17    0.04    0.17
   9  15  17    0.10    0.16
  11  15  17    0.65    0.25
  13  15  17    0.95    0.27
  15  15  17   -0.33    0.19
  17  15  17   -0.04    0.21
  19  15  17    0.32    0.26
  21  15  17   -0.07    0.26
 -23  17  17   -0.50    0.33
 -21  17  17   -0.11    0.27
 -19  17  17   -0.13    0.26
 -17  17  17    0.00    0.24
 -15  17  17   -0.35    0.25
 -13  17  17    0.03    0.20
 -11  17  17   -0.15    0.18
  -9  17  17   -0.02    0.19
  -7  17  17   -0.13    0.21
  -7  17  17    0.04    0.16
  -5  17  17    0.03    0.20
  -5  17  17   -0.04    0.15
  -3  17  17    0.01    0.17
  -3  17  17   -0.02    0.15
  -1  17  17    0.09    0.17
   1  17  17   -0.11    0.14
   3  17  17    0.22    0.16
   5  17  17   -0.01    0.16
   7  17  17    0.06    0.16
   9  17  17   -0.18    0.13
  11  17  17    0.10    0.15
  13  17  17    0.11    0.17
  15  17  17    0.06    0.18
  17  17  17   -0.11    0.21
  19  17  17   -0.06    0.21
 -21  19  17    0.16    0.35
 -19  19  17   -0.16    0.30
 -17  19  17   -0.25    0.26
 -15  19  17   -0.11    0.27
 -13  19  17   -0.29    0.18
 -11  19  17    0.23    0.27
  -9  19  17    0.25    0.24
  -7  19  17    0.69    0.28
  -5  19  17    0.37    0.24
  -3  19  17   -0.23    0.15
  -3  19  17    0.00    0.17
  -1  19  17    0.17    0.19
   1  19  17    0.08    0.18
   3  19  17   -0.06    0.17
   5  19  17    0.27    0.20
   7  19  17    0.60    0.24
   9  19  17    0.66    0.23
  11  19  17    0.00    0.18
  13  19  17   -0.06    0.17
  15  19  17   -0.06    0.19
  17  19  17   -0.10    0.16
  19  19  17    0.50    0.32
 -19  21  17    0.08    0.36
 -17  21  17    0.02    0.32
 -15  21  17   -0.05    0.32
 -13  21  17    0.03    0.22
 -11  21  17   -0.09    0.22
  -9  21  17    0.17    0.21
  -7  21  17   -0.13    0.19
  -5  21  17    0.24    0.23
  -3  21  17    0.06    0.18
  -1  21  17   -0.06    0.17
  -1  21  17    0.05    0.19
   1  21  17   -0.12    0.18
   3  21  17    0.31    0.20
   5  21  17    0.17    0.20
   7  21  17   -0.04    0.18
   9  21  17    0.33    0.24
  11  21  17    0.27    0.22
  13  21  17    0.07    0.17
  15  21  17    0.51    0.27
 -17  23  17    0.45    0.34
 -15  23  17    0.23    0.29
 -13  23  17    0.37    0.30
 -11  23  17    0.21    0.24
  -9  23  17    0.08    0.23
  -7  23  17   -0.04    0.21
  -5  23  17    0.13    0.20
  -3  23  17    0.36    0.27
  -1  23  17    0.18    0.25
   1  23  17    0.33    0.26
   1  23  17   -0.07    0.21
   3  23  17    0.17    0.22
   5  23  17    0.11    0.21
   7  23  17    0.08    0.21
   9  23  17    0.08    0.21
  11  23  17    0.35    0.23
  13  23  17    0.13    0.22
 -15  25  17    0.18    0.27
 -13  25  17   -0.37    0.21
 -11  25  17   -0.20    0.23
  -9  25  17    0.23    0.30
  -7  25  17    0.32    0.26
  -5  25  17    0.26    0.26
  -3  25  17    0.26    0.28
  -1  25  17   -0.21    0.21
   1  25  17   -0.17    0.23
   3  25  17    0.07    0.22
   5  25  17    0.40    0.27
   7  25  17    0.17    0.23
   9  25  17    0.01    0.20
  11  25  17   -0.22    0.19
 -11  27  17    0.14    0.30
  -9  27  17   -0.13    0.25
  -7  27  17    0.24    0.29
  -5  27  17   -0.08    0.25
  -3  27  17    0.14    0.25
  -1  27  17   -0.04    0.23
   1  27  17    0.27    0.29
   3  27  17    0.16    0.30
   5  27  17   -0.05    0.23
   7  27  17   -0.02    0.24
   9  27  17    0.02    0.25
  -5  29  17   -0.11    0.28
  -3  29  17    0.34    0.28
  -1  29  17   -0.20    0.25
   1  29  17   -0.01    0.26
   3  29  17    0.09    0.26
   5  29  17   -0.11    0.27
   6  28 -18    0.08    0.31
   4  28 -18   -0.32    0.31
   2  28 -18    0.14    0.31
   0  28 -18    0.05    0.29
  -2  28 -18   -0.17    0.26
  -4  28 -18    0.40    0.34
  -6  28 -18   -0.11    0.39
  12  26 -18    0.97    0.43
  10  26 -18    4.39    0.63
 -10 -26  18    3.61    0.57
   8  26 -18    1.04    0.40
   6  26 -18    5.45    0.67
   4  26 -18    0.27    0.34
   2  26 -18    6.21    0.71
   0  26 -18    0.70    0.33
  -2  26 -18    3.71    0.56
  -4  26 -18   -0.01    0.36
  -6  26 -18    3.87    0.63
  -8  26 -18    0.13    0.38
 -10  26 -18    3.57    0.64
 -12  26 -18    0.27    0.39
  14  24 -18    0.03    0.35
  12  24 -18    0.42    0.32
 -12 -24  18    0.37    0.33
  10  24 -18   -0.16    0.26
 -10 -24  18    0.14    0.26
   8  24 -18    0.06    0.29
  -8 -24  18    0.17    0.27
   6  24 -18    0.73    0.35
   4  24 -18   -0.04    0.28
   2  24 -18    0.36    0.28
   0  24 -18   -0.04    0.27
  -2  24 -18   -0.01    0.26
  -4  24 -18    0.44    0.32
  -6  24 -18    0.19    0.33
  -8  24 -18    0.55    0.38
 -10  24 -18    0.28    0.35
 -12  24 -18    0.35    0.37
 -14  24 -18   -0.02    0.33
 -16  24 -18    0.06    0.38
  14  22 -18    4.82    0.63
 -14 -22  18    4.49    0.59
  12  22 -18    0.41    0.32
 -12 -22  18    1.04    0.34
  10  22 -18    5.40    0.63
 -10 -22  18    5.81    0.60
   8  22 -18    0.16    0.29
  -8 -22  18    0.39    0.24
   6  22 -18    6.79    0.67
  -6 -22  18    6.70    0.60
   4  22 -18    1.84    0.42
  -4 -22  18    1.25    0.32
   2  22 -18    5.01    0.59
   0  22 -18    0.46    0.27
  -2  22 -18    5.91    0.63
  -4  22 -18    0.24    0.30
  -6  22 -18    6.90    0.69
  -8  22 -18    0.04    0.32
 -10  22 -18    4.86    0.62
 -12  22 -18    0.04    0.35
 -14  22 -18    3.52    0.57
 -16  22 -18   -0.29    0.31
 -16 -20  18    0.25    0.31
  14  20 -18    1.63    0.42
 -14 -20  18    1.71    0.40
  12  20 -18    0.06    0.27
 -12 -20  18    0.23    0.25
  10  20 -18   -0.01    0.29
 -10 -20  18   -0.03    0.21
   8  20 -18    0.38    0.26
  -8 -20  18    0.25    0.22
   6  20 -18    0.55    0.28
  -6 -20  18    0.50    0.23
   4  20 -18    0.00    0.21
  -4 -20  18    0.54    0.24
   2  20 -18    0.25    0.26
  -2 -20  18    0.10    0.19
   0  20 -18    0.01    0.22
  -2  20 -18   -0.09    0.25
  -4  20 -18   -0.14    0.25
  -6  20 -18    0.34    0.30
  -8  20 -18    0.43    0.28
 -10  20 -18    0.22    0.31
 -12  20 -18    0.08    0.31
 -14  20 -18    1.28    0.42
 -16  20 -18   -0.28    0.28
 -18  20 -18   -0.08    0.33
 -18 -18  18    5.95    0.64
 -16 -18  18    0.03    0.25
 -14 -18  18    8.76    0.70
  12  18 -18   -0.15    0.24
 -12 -18  18   -0.02    0.21
  10  18 -18    8.62    0.70
 -10 -18  18    9.29    0.67
   8  18 -18    1.25    0.37
  -8 -18  18    1.03    0.30
   6  18 -18   11.53    0.75
  -6 -18  18    9.89    0.66
   4  18 -18    0.36    0.23
  -4 -18  18    0.32    0.22
   2  18 -18   10.25    0.72
  -2 -18  18   10.36    0.62
   0  18 -18    0.46    0.26
   0 -18  18    0.44    0.21
  -2  18 -18   11.79    0.77
  -4  18 -18    0.51    0.30
  -6  18 -18    9.61    0.70
  -8  18 -18    0.92    0.37
 -10  18 -18    9.14    0.71
 -12  18 -18    0.33    0.28
 -14  18 -18   10.42    0.78
 -16  18 -18   -0.14    0.31
 -18  18 -18    8.41    0.74
 -20 -16  18   -0.11    0.19
 -18 -16  18   -0.09    0.23
 -16 -16  18   -0.05    0.21
 -14 -16  18    0.24    0.22
  12  16 -18    0.42    0.30
 -12 -16  18    0.02    0.19
  10  16 -18    0.40    0.30
 -10 -16  18    0.58    0.24
   8  16 -18    0.14    0.26
  -8 -16  18    0.02    0.17
   6  16 -18   -0.08    0.16
  -6 -16  18    0.16    0.20
   4  16 -18    0.09    0.21
  -4 -16  18    0.06    0.15
   2  16 -18    0.42    0.22
  -2 -16  18    0.21    0.18
   0  16 -18    0.24    0.23
   0 -16  18    0.11    0.16
  -2  16 -18    0.15    0.21
   2 -16  18    0.39    0.20
  -4  16 -18    0.55    0.28
  -6  16 -18    0.22    0.26
  -8  16 -18    0.16    0.27
 -10  16 -18   -0.11    0.25
 -12  16 -18    0.02    0.26
 -14  16 -18    0.39    0.32
 -16  16 -18    0.34    0.34
 -22 -14  18    3.43    0.53
 -20 -14  18    1.00    0.33
 -18 -14  18   10.21    0.73
 -16 -14  18    0.25    0.24
 -14 -14  18   12.39    0.75
 -12 -14  18    1.69    0.34
  10  14 -18   10.67    0.74
 -10 -14  18   10.89    0.67
   8  14 -18    0.13    0.22
  -8 -14  18    1.04    0.27
   6  14 -18   15.87    0.85
  -6 -14  18   13.24    0.71
   4  14 -18    4.79    0.50
  -4 -14  18    4.32    0.43
   2  14 -18   17.85    0.88
  -2 -14  18   16.43    0.75
   0  14 -18    0.44    0.25
   0 -14  18    0.18    0.17
  -2  14 -18   15.51    0.82
   2 -14  18   17.19    0.74
  -4  14 -18    3.70    0.46
   4 -14  18    2.88    0.33
  -6  14 -18   15.23    0.82
  -8  14 -18    0.25    0.23
 -10  14 -18   11.96    0.73
 -12  14 -18    2.18    0.39
 -14  14 -18   14.10    0.82
 -16  14 -18    0.23    0.28
 -18  14 -18   10.41    0.75
 -20  14 -18    1.43    0.42
 -22  14 -18    4.20    0.59
 -24  14 -18   -0.23    0.33
 -22 -12  18    0.53    0.26
 -20 -12  18    0.26    0.21
 -18 -12  18    0.26    0.22
 -16 -12  18    0.15    0.19
 -14 -12  18    1.57    0.33
 -12 -12  18    0.02    0.15
 -10 -12  18    0.12    0.15
   8  12 -18   -0.07    0.19
  -8 -12  18   -0.11    0.14
   6  12 -18    0.06    0.19
  -6 -12  18   -0.05    0.14
   4  12 -18    0.50    0.23
  -4 -12  18    0.31    0.18
   2  12 -18    2.03    0.36
  -2 -12  18    2.23    0.31
   0  12 -18   -0.01    0.18
   0 -12  18   -0.04    0.13
  -2  12 -18    1.20    0.30
   2 -12  18    2.12    0.29
  -4  12 -18    0.16    0.23
   4 -12  18    0.37    0.18
  -6  12 -18   -0.28    0.19
   6 -12  18    0.03    0.15
  -8  12 -18    0.09    0.21
 -10  12 -18    0.55    0.27
 -12  12 -18   -0.10    0.21
 -14  12 -18    2.55    0.38
 -14  12 -18    1.76    0.37
 -16  12 -18    0.23    0.24
 -18  12 -18    0.32    0.26
 -20  12 -18    0.17    0.28
 -22  12 -18    1.13    0.40
 -24  12 -18    0.00    0.29
 -26  12 -18    0.57    0.36
 -24 -10  18    0.00    0.23
 -22 -10  18    6.32    0.63
 -20 -10  18    0.22    0.21
 -18 -10  18    8.10    0.63
 -16 -10  18    0.11    0.17
 -14 -10  18   10.72    0.67
 -12 -10  18    0.19    0.18
 -10 -10  18   10.48    0.65
  -8 -10  18    3.21    0.38
   6  10 -18   17.48    0.84
  -6 -10  18   15.61    0.74
   4  10 -18    0.93    0.29
  -4 -10  18    0.76    0.23
   2  10 -18   14.38    0.77
  -2 -10  18   15.57    0.71
   0  10 -18    2.20    0.35
   0 -10  18    2.40    0.30
  -2  10 -18   14.77    0.75
   2 -10  18   16.11    0.70
  -4  10 -18    1.40    0.29
   4 -10  18    1.19    0.23
  -6  10 -18   14.09    0.73
   6 -10  18   16.20    0.69
  -8  10 -18    2.77    0.37
   8 -10  18    3.38    0.34
 -10  10 -18   10.22    0.63
 -10  10 -18    9.73    0.57
 -12  10 -18    0.38    0.23
 -12  10 -18    0.33    0.23
 -14  10 -18   11.38    0.70
 -14  10 -18   11.73    0.69
 -16  10 -18    0.00    0.24
 -18  10 -18    8.00    0.65
 -20  10 -18   -0.18    0.22
 -22  10 -18    4.89    0.59
 -24  10 -18    0.07    0.29
 -26  10 -18    3.35    0.58
 -26  -8  18    0.93    0.36
 -24  -8  18    0.05    0.22
 -22  -8  18    0.46    0.24
 -20  -8  18    0.04    0.19
 -18  -8  18    0.72    0.25
 -16  -8  18    0.10    0.16
 -14  -8  18    0.34    0.18
 -12  -8  18   -0.04    0.12
 -10  -8  18    3.15    0.37
  -8  -8  18   -0.02    0.14
  -6  -8  18    0.26    0.17
   4   8 -18    0.06    0.19
  -4  -8  18    0.08    0.13
   2   8 -18   -0.06    0.17
  -2  -8  18   -0.08    0.12
   0   8 -18   -0.06    0.16
   0  -8  18   -0.04    0.11
  -2   8 -18   -0.08    0.16
   2  -8  18    0.02    0.12
  -4   8 -18   -0.09    0.15
   4  -8  18    0.22    0.15
  -6   8 -18    0.07    0.15
  -6   8 -18    0.01    0.18
   6  -8  18    0.27    0.17
  -8   8 -18   -0.11    0.17
  -8   8 -18    0.13    0.16
   8  -8  18    0.10    0.15
 -10   8 -18    3.13    0.34
 -10   8 -18    2.42    0.33
 -10   8 -18    3.12    0.36
  10  -8  18    3.67    0.36
 -12   8 -18    0.32    0.20
 -12   8 -18    0.12    0.22
 -14   8 -18    0.57    0.24
 -16   8 -18    0.15    0.22
 -18   8 -18    0.45    0.26
 -20   8 -18    0.24    0.27
 -22   8 -18    0.64    0.31
 -24   8 -18    0.14    0.27
 -26   8 -18    0.60    0.36
 -26  -6  18    3.44    0.51
 -24  -6  18    0.12    0.22
 -22  -6  18    6.23    0.59
 -20  -6  18    0.00    0.16
 -18  -6  18   11.63    0.71
 -16  -6  18    0.23    0.19
 -14  -6  18   15.12    0.77
 -12  -6  18    0.02    0.13
 -10  -6  18   15.49    0.75
  -8  -6  18    0.54    0.21
  -6  -6  18   20.52    0.84
  -4  -6  18    0.28    0.17
   2   6 -18   16.34    0.77
  -2  -6  18   15.05    0.69
   0   6 -18    1.98    0.32
   0  -6  18    1.52    0.27
  -2   6 -18   16.36    0.75
   2  -6  18   15.77    0.70
  -4   6 -18    0.22    0.19
   4  -6  18    0.43    0.17
  -6   6 -18   20.28    0.76
  -6   6 -18   19.86    0.82
   6  -6  18   20.93    0.80
  -8   6 -18    0.05    0.16
  -8   6 -18    0.58    0.23
   8  -6  18    0.27    0.17
 -10   6 -18   15.32    0.68
 -10   6 -18   15.51    0.71
 -10   6 -18   16.26    0.73
  10  -6  18   16.96    0.71
 -12   6 -18    0.06    0.21
 -12   6 -18   -0.24    0.15
 -12   6 -18    0.01    0.16
  12  -6  18    0.13    0.17
 -14   6 -18   15.56    0.78
 -16   6 -18   -0.12    0.21
 -18   6 -18   11.48    0.74
 -20   6 -18    0.36    0.25
 -22   6 -18    6.84    0.66
 -24   6 -18   -0.10    0.26
 -26   6 -18    3.44    0.57
 -28   6 -18   -0.14    0.32
 -26  -4  18    0.46    0.28
 -24  -4  18   -0.02    0.20
 -22  -4  18    1.38    0.34
 -20  -4  18    0.31    0.21
 -18  -4  18    0.56    0.23
 -16  -4  18    0.00    0.16
 -14  -4  18    5.03    0.46
 -12  -4  18    0.18    0.16
 -10  -4  18    0.60    0.20
  -8  -4  18    0.04    0.13
  -6  -4  18    0.46    0.18
  -4  -4  18    0.20    0.14
  -2  -4  18    2.77    0.33
   0  -4  18   -0.02    0.12
  -2   4 -18    3.03    0.37
   2  -4  18    3.38    0.35
  -4   4 -18    0.24    0.18
   4  -4  18    0.01    0.12
  -6   4 -18    0.26    0.19
   6  -4  18    0.53    0.18
  -8   4 -18    0.14    0.18
  -8   4 -18    0.36    0.19
  -8   4 -18    0.19    0.15
   8  -4  18    0.17    0.14
 -10   4 -18    1.18    0.28
 -10   4 -18    1.20    0.26
 -10   4 -18    1.17    0.25
  10  -4  18    1.33    0.25
 -12   4 -18    0.03    0.18
  12  -4  18    0.24    0.17
 -14   4 -18    5.00    0.47
  14  -4  18    4.64    0.43
 -16   4 -18    0.26    0.21
 -18   4 -18    0.15    0.24
 -20   4 -18    0.13    0.24
 -22   4 -18    1.50    0.40
 -24   4 -18   -0.24    0.23
 -26   4 -18    0.02    0.27
 -28   4 -18    0.25    0.36
 -26  -2  18    5.53    0.59
 -24  -2  18    0.32    0.25
 -22  -2  18    5.43    0.53
 -20  -2  18    0.29    0.21
 -18  -2  18   12.88    0.74
 -16  -2  18    0.15    0.19
 -14  -2  18   17.86    0.81
 -12  -2  18    0.87    0.23
 -10  -2  18   16.46    0.75
  -8  -2  18    0.12    0.14
  -6  -2  18   15.62    0.71
  -6  -2  18   15.15    0.61
  -4  -2  18    2.73    0.32
  -2  -2  18   26.76    0.93
   0  -2  18    0.19    0.14
   2  -2  18   25.42    0.89
   4  -2  18    3.44    0.34
  -6   2 -18   16.27    0.70
   6  -2  18   15.44    0.69
  -8   2 -18    0.32    0.18
  -8   2 -18   -0.08    0.15
  -8   2 -18    0.13    0.16
   8  -2  18    0.14    0.14
 -10   2 -18   16.10    0.71
 -10   2 -18   16.10    0.75
 -10   2 -18   16.80    0.71
  10  -2  18   16.22    0.72
 -12   2 -18    1.72    0.32
  12  -2  18    1.54    0.28
 -14   2 -18   18.47    0.86
  14  -2  18   16.42    0.75
 -16   2 -18    0.18    0.23
  16  -2  18    0.07    0.18
 -18   2 -18   10.97    0.73
 -20   2 -18   -0.01    0.22
 -22   2 -18    5.90    0.63
 -24   2 -18    0.16    0.29
 -26   2 -18    6.11    0.70
 -28   2 -18   -0.16    0.30
 -24   0  18   -0.08    0.18
 -22   0  18    0.29    0.23
 -20   0  18    0.13    0.17
 -18   0  18    0.63    0.22
 -16   0  18    0.09    0.16
 -14   0  18    0.45    0.20
 -12   0  18   -0.10    0.14
 -12   0  18   -0.05    0.12
 -10   0  18    2.00    0.30
 -10   0  18    1.74    0.26
  -8   0  18   -0.14    0.12
  -8   0  18   -0.08    0.10
  -6   0  18    2.36    0.28
  -6   0  18    1.96    0.29
  -4   0  18   -0.02    0.12
  -2   0  18    0.27    0.16
   0   0  18    0.07    0.13
   2   0  18    0.37    0.17
   4   0  18    0.05    0.13
  -6   0 -18    2.20    0.30
   6   0  18    1.94    0.28
  -8   0 -18    0.08    0.16
   8   0  18   -0.03    0.11
 -10   0 -18    2.16    0.33
  10   0  18    2.35    0.31
 -12   0 -18    0.18    0.18
  12   0  18    0.08    0.15
 -14   0 -18    0.71    0.26
  14   0  18    0.42    0.20
 -16   0 -18    0.20    0.22
  16   0  18    0.14    0.16
 -18   0 -18    0.43    0.25
  18   0  18    0.60    0.24
 -20   0 -18    0.04    0.18
 -22   0 -18    0.26    0.24
 -24   0 -18   -0.04    0.25
 -26   0 -18    0.79    0.36
 -28   0 -18    0.17    0.32
 -22   2  18    4.84    0.49
 -20   2  18    0.07    0.17
 -18   2  18   11.26    0.67
 -16   2  18    0.10    0.16
 -16   2  18    0.03    0.21
 -14   2  18   18.57    0.82
 -14   2  18   17.80    0.79
 -12   2  18    1.98    0.30
 -12   2  18    1.67    0.29
 -10   2  18   14.78    0.68
 -10   2  18   15.22    0.72
  -8   2  18    0.04    0.13
  -8   2  18    0.16    0.17
  -6   2  18   16.08    0.72
  -6   2  18   16.02    0.70
  -4   2  18    2.76    0.32
  -2   2  18   25.39    0.90
   0   2  18    0.32    0.17
   2   2  18   26.10    0.91
  -4  -2 -18    2.25    0.30
   4   2  18    3.08    0.33
  -6  -2 -18   13.44    0.65
   6   2  18   14.87    0.69
  -8  -2 -18    0.01    0.14
   8   2  18   -0.13    0.13
  10   2  18   16.54    0.74
 -12  -2 -18    0.80    0.25
  12   2  18    1.94    0.29
 -14  -2 -18   17.41    0.86
  14   2  18   17.52    0.78
 -16  -2 -18    0.21    0.22
  16   2  18    0.26    0.20
 -18  -2 -18   12.01    0.76
  18   2  18   11.19    0.66
 -20  -2 -18   -0.11    0.21
  20   2  18    0.13    0.20
 -22  -2 -18    4.93    0.59
 -24  -2 -18    0.07    0.28
 -26  -2 -18    3.97    0.59
 -28  -2 -18    0.30    0.29
 -20   4  18    0.38    0.22
 -20   4  18    0.24    0.24
 -18   4  18    0.21    0.27
 -18   4  18    0.58    0.24
 -16   4  18    0.01    0.21
 -16   4  18    0.06    0.15
 -14   4  18    4.14    0.43
 -14   4  18    4.07    0.41
 -12   4  18    0.21    0.17
 -12   4  18    0.36    0.17
 -10   4  18    1.07    0.26
 -10   4  18    1.38    0.26
  -8   4  18    0.09    0.14
  -8   4  18   -0.12    0.13
  -6   4  18    0.45    0.18
  -6   4  18    0.54    0.20
  -4   4  18    0.07    0.13
  -2   4  18    2.91    0.34
   0   4  18    0.09    0.11
  -2  -4 -18    2.44    0.31
   2   4  18    2.04    0.29
  -4  -4 -18    0.23    0.17
   4   4  18    0.09    0.14
  -6  -4 -18    0.31    0.19
   6   4  18    0.32    0.17
   8   4  18    0.21    0.15
  10   4  18    0.96    0.24
  12   4  18    0.38    0.21
 -14  -4 -18    4.35    0.47
  14   4  18    3.13    0.38
 -16  -4 -18   -0.18    0.18
  16   4  18   -0.03    0.16
 -18  -4 -18    0.60    0.27
  18   4  18    0.19    0.21
 -20  -4 -18    0.41    0.27
  20   4  18   -0.02    0.19
 -22  -4 -18    1.10    0.38
  22   4  18    1.22    0.33
 -24  -4 -18    0.13    0.26
 -26  -4 -18    0.30    0.35
 -28  -4 -18    0.10    0.35
 -24   6  18    0.57    0.35
 -22   6  18    6.85    0.65
 -20   6  18    0.19    0.27
 -18   6  18   11.69    0.66
 -18   6  18   10.11    0.71
 -16   6  18    0.19    0.16
 -16   6  18    0.20    0.21
 -14   6  18   15.90    0.80
 -14   6  18   15.27    0.73
 -12   6  18   -0.11    0.13
 -12   6  18    0.00    0.17
 -10   6  18   15.88    0.76
 -10   6  18   13.52    0.67
  -8   6  18    0.36    0.19
  -8   6  18    0.17    0.15
  -6   6  18   18.73    0.78
  -6   6  18   17.59    0.80
  -4   6  18    0.44    0.18
  -2   6  18   16.61    0.73
   0  -6 -18    2.01    0.30
   0   6  18    2.10    0.29
  -2  -6 -18   14.85    0.69
   2   6  18   15.50    0.71
  -4  -6 -18    0.42    0.18
   4   6  18   -0.11    0.12
   6   6  18   18.29    0.77
   8   6  18    0.07    0.14
  10   6  18   17.80    0.79
  12   6  18    0.16    0.16
  14   6  18   13.82    0.72
 -16  -6 -18   -0.20    0.16
  16   6  18   -0.04    0.15
 -18  -6 -18   10.70    0.76
  18   6  18   10.02    0.67
 -20  -6 -18    0.52    0.30
  20   6  18    0.38    0.23
 -22  -6 -18    7.17    0.72
  22   6  18    5.84    0.56
 -24  -6 -18    0.68    0.34
  24   6  18    0.60    0.29
 -26  -6 -18    4.44    0.65
 -28  -6 -18    0.36    0.43
 -26   8  18    0.75    0.41
 -24   8  18    0.29    0.35
 -22   8  18    0.06    0.29
 -20   8  18   -0.09    0.25
 -18   8  18    0.61    0.30
 -16   8  18    0.20    0.17
 -16   8  18    0.06    0.22
 -14   8  18    0.94    0.25
 -14   8  18    0.49    0.24
 -12   8  18   -0.07    0.18
 -12   8  18    0.14    0.14
 -10   8  18    2.72    0.37
 -10   8  18    3.12    0.36
  -8   8  18   -0.05    0.12
  -8   8  18    0.23    0.21
  -6   8  18    0.33    0.21
  -6   8  18   -0.03    0.13
  -4   8  18    0.11    0.15
   2  -8 -18    0.10    0.14
  -2   8  18    0.04    0.12
   0  -8 -18   -0.03    0.12
   0   8  18   -0.01    0.11
  -2  -8 -18   -0.08    0.12
   2   8  18    0.05    0.12
   4   8  18   -0.10    0.10
   6   8  18    0.35    0.18
   8   8  18    0.12    0.16
  10   8  18    3.42    0.39
  12   8  18   -0.11    0.11
  14   8  18    0.86    0.27
  16   8  18   -0.25    0.16
  18   8  18    0.80    0.28
 -20  -8 -18    0.16    0.25
  20   8  18    0.13    0.18
 -22  -8 -18    0.66    0.38
  22   8  18    0.15    0.22
 -24  -8 -18   -0.03    0.32
  24   8  18   -0.08    0.25
 -26  -8 -18    0.36    0.39
  26   8  18    0.83    0.35
 -26  10  18    3.81    0.62
 -24  10  18    0.11    0.32
 -22  10  18    6.14    0.65
 -20  10  18    0.01    0.24
 -18  10  18    9.00    0.73
 -16  10  18    0.40    0.26
 -14  10  18   11.47    0.63
 -14  10  18   10.92    0.71
 -12  10  18    0.08    0.16
 -12  10  18    0.15    0.22
 -10  10  18    9.59    0.65
 -10  10  18   10.63    0.61
  -8  10  18    4.54    0.42
  -8  10  18    4.28    0.47
   6 -10 -18   15.39    0.71
  -6  10  18   13.80    0.75
  -6  10  18   15.18    0.71
   4 -10 -18    1.30    0.26
  -4  10  18    1.43    0.28
   2 -10 -18   14.76    0.70
  -2  10  18   15.18    0.71
   0 -10 -18    2.55    0.34
   0  10  18    2.54    0.34
   2  10  18   16.75    0.76
   4  10  18    1.19    0.26
   6  10  18   15.30    0.74
   8  10  18    3.86    0.40
  10  10  18    9.24    0.60
  12  10  18    0.72    0.24
  14  10  18   10.95    0.68
  16  10  18    0.24    0.20
  18  10  18    7.82    0.63
  20  10  18   -0.17    0.20
  22  10  18    5.21    0.56
  24  10  18    0.13    0.27
 -26 -10 -18    3.53    0.67
  26  10  18    3.22    0.53
 -26  12  18    0.59    0.40
 -24  12  18    0.13    0.31
 -22  12  18    0.45    0.33
 -20  12  18    0.32    0.29
 -18  12  18   -0.04    0.23
 -16  12  18   -0.08    0.21
 -14  12  18    1.40    0.35
 -12  12  18   -0.07    0.22
 -12  12  18    0.03    0.15
  10 -12 -18    0.83    0.24
 -10  12  18    0.56    0.21
 -10  12  18    0.41    0.25
   8 -12 -18   -0.16    0.16
  -8  12  18   -0.20    0.14
  -8  12  18    0.22    0.21
   6 -12 -18    0.02    0.17
  -6  12  18   -0.13    0.15
  -6  12  18    0.00    0.17
   4 -12 -18    0.32    0.20
  -4  12  18    0.36    0.23
  -4  12  18    0.52    0.19
   2 -12 -18    1.36    0.28
  -2  12  18    1.62    0.29
   0  12  18   -0.05    0.11
   2  12  18    1.18    0.26
   4  12  18    0.44    0.20
   6  12  18   -0.07    0.12
   8  12  18   -0.04    0.14
  10  12  18    0.58    0.21
  12  12  18    0.14    0.18
  14  12  18    2.18    0.37
  16  12  18    0.08    0.20
  18  12  18    0.60    0.26
  20  12  18    0.20    0.25
  22  12  18    0.52    0.30
  24  12  18   -0.28    0.26
 -24  14  18    0.14    0.36
 -22  14  18    3.09    0.57
 -20  14  18    1.19    0.43
 -18  14  18    9.54    0.79
 -16  14  18    0.45    0.30
 -14  14  18   13.67    0.86
 -12  14  18    1.35    0.34
  10 -14 -18   10.29    0.62
 -10  14  18   11.93    0.77
 -10  14  18   11.59    0.64
   8 -14 -18    0.99    0.27
  -8  14  18    0.70    0.23
  -8  14  18    0.63    0.28
   6 -14 -18   14.67    0.72
  -6  14  18   15.44    0.86
  -6  14  18   14.51    0.72
  -4  14  18    3.95    0.49
  -4  14  18    4.02    0.41
  -2  14  18   18.16    0.83
   0  14  18    0.59    0.22
   2  14  18   18.23    0.83
   4  14  18    4.90    0.47
   6  14  18   16.55    0.81
   8  14  18    0.91    0.26
  10  14  18   11.71    0.71
  12  14  18    1.85    0.34
  14  14  18   15.23    0.84
  16  14  18    0.38    0.26
  18  14  18   10.70    0.77
  20  14  18    1.76    0.41
  22  14  18    4.11    0.58
 -24  16  18    0.46    0.40
 -22  16  18    0.15    0.37
 -20  16  18   -0.23    0.27
 -18  16  18    0.28    0.32
 -16  16  18    0.26    0.30
 -14  16  18    0.07    0.27
 -12  16  18    0.17    0.23
 -10  16  18    0.25    0.25
  -8  16  18    0.08    0.21
  -8  16  18    0.29    0.20
  -6  16  18   -0.08    0.19
  -6  16  18    0.05    0.17
  -4  16  18    0.16    0.17
  -4  16  18   -0.03    0.23
  -2  16  18    0.23    0.18
   0  16  18    0.31    0.20
   2  16  18    0.24    0.18
   4  16  18   -0.26    0.11
   6  16  18   -0.05    0.14
   8  16  18   -0.08    0.14
  10  16  18    0.26    0.21
  12  16  18    0.08    0.15
  14  16  18    0.09    0.17
  16  16  18   -0.15    0.20
  18  16  18    0.62    0.29
  20  16  18   -0.20    0.21
 -22  18  18    2.84    0.60
 -20  18  18    0.42    0.36
 -18  18  18    8.73    0.82
 -16  18  18   -0.09    0.25
 -14  18  18    8.98    0.77
 -12  18  18    0.14    0.26
 -10  18  18    7.33    0.67
  -8  18  18    0.83    0.33
  -6  18  18   12.01    0.69
  -6  18  18   10.33    0.76
  -4  18  18    0.45    0.23
  -4  18  18    0.39    0.21
  -2  18  18   10.72    0.75
  -2  18  18   11.36    0.68
   0  18  18    0.44    0.21
   2  18  18   12.16    0.72
   4  18  18   -0.02    0.17
   6  18  18   11.36    0.72
   8  18  18    0.77    0.28
  10  18  18    8.51    0.66
  12  18  18    0.11    0.19
  14  18  18   11.87    0.79
  16  18  18    0.12    0.19
  18  18  18    8.68    0.76
 -20  20  18    0.18    0.34
 -18  20  18    0.60    0.41
 -16  20  18   -0.14    0.26
 -14  20  18    1.94    0.46
 -12  20  18    0.08    0.26
 -10  20  18    0.16    0.25
  -8  20  18    0.21    0.22
  -6  20  18    0.49    0.24
  -4  20  18    0.02    0.21
  -2  20  18   -0.03    0.18
  -2  20  18    0.07    0.21
   0  20  18   -0.06    0.17
   2  20  18    0.24    0.21
   4  20  18    0.22    0.20
   6  20  18    0.07    0.19
   8  20  18    0.17    0.21
  10  20  18    0.14    0.18
  12  20  18    0.13    0.20
  14  20  18    2.07    0.41
  16  20  18   -0.06    0.22
 -18  22  18    4.45    0.70
 -16  22  18   -0.10    0.29
 -14  22  18    4.16    0.62
 -12  22  18    0.70    0.29
 -10  22  18    4.79    0.59
  -8  22  18    0.12    0.24
  -6  22  18    7.81    0.72
  -4  22  18    0.89    0.32
  -2  22  18    4.65    0.56
   0  22  18    0.07    0.25
   0  22  18   -0.06    0.19
   2  22  18    5.82    0.56
   4  22  18    2.15    0.40
   6  22  18    7.14    0.63
   8  22  18    0.27    0.23
  10  22  18    3.95    0.51
  12  22  18    0.86    0.32
  14  22  18    4.56    0.57
 -16  24  18    0.47    0.33
 -14  24  18    0.08    0.28
 -12  24  18   -0.14    0.27
 -10  24  18   -0.16    0.25
  -8  24  18    0.00    0.26
  -6  24  18    0.28    0.25
  -4  24  18    0.18    0.23
  -2  24  18    0.03    0.21
   0  24  18   -0.22    0.21
   2  24  18   -0.03    0.23
   4  24  18    0.40    0.26
   6  24  18    0.04    0.23
   8  24  18    0.38    0.26
  10  24  18    0.01    0.20
  12  24  18   -0.07    0.22
 -12  26  18    0.43    0.33
 -10  26  18    4.13    0.62
  -8  26  18    0.62    0.34
  -6  26  18    4.19    0.58
  -4  26  18    0.19    0.27
  -2  26  18    4.69    0.64
   0  26  18    1.29    0.42
   2  26  18    3.65    0.57
   4  26  18    0.35    0.26
   6  26  18    4.55    0.57
   8  26  18    1.02    0.37
  -6  28  18   -0.11    0.27
  -4  28  18   -0.17    0.25
  -2  28  18    0.16    0.30
   0  28  18    0.16    0.27
   2  28  18    0.63    0.34
   4  28  18    0.07    0.27
   7  27 -19    0.10    0.31
   5  27 -19   -0.29    0.28
   3  27 -19   -0.51    0.26
   1  27 -19   -0.19    0.28
  -1  27 -19    0.10    0.31
  -3  27 -19   -0.50    0.27
  -5  27 -19   -0.37    0.35
  -7  27 -19   -0.38    0.35
  13  25 -19    0.54    0.38
  11  25 -19   -0.32    0.32
   9  25 -19    0.22    0.33
  -9 -25  19   -0.15    0.25
   7  25 -19   -0.03    0.28
   5  25 -19   -0.03    0.30
   3  25 -19   -0.48    0.25
   1  25 -19    0.21    0.27
  -1  25 -19    0.41    0.33
  -3  25 -19   -0.39    0.27
  -5  25 -19    0.12    0.35
  -7  25 -19   -0.02    0.30
  -9  25 -19    0.02    0.38
 -11  25 -19    0.01    0.36
 -13  25 -19    0.34    0.42
  15  23 -19   -0.38    0.31
  13  23 -19   -0.09    0.29
 -13 -23  19   -0.01    0.29
  11  23 -19    0.70    0.35
 -11 -23  19   -0.23    0.23
   9  23 -19    0.44    0.34
  -9 -23  19    0.44    0.29
   7  23 -19   -0.13    0.26
  -7 -23  19   -0.09    0.23
   5  23 -19   -0.25    0.23
   3  23 -19   -0.23    0.24
   1  23 -19   -0.16    0.25
  -1  23 -19    0.30    0.28
  -3  23 -19    0.16    0.28
  -5  23 -19   -0.07    0.30
  -7  23 -19   -0.51    0.27
  -9  23 -19    0.07    0.31
 -11  23 -19   -0.19    0.32
 -13  23 -19    0.08    0.34
 -15  23 -19    0.14    0.38
 -15 -21  19    0.10    0.29
  13  21 -19    0.02    0.24
 -13 -21  19   -0.18    0.25
  11  21 -19    0.38    0.34
 -11 -21  19   -0.09    0.22
   9  21 -19    0.76    0.34
  -9 -21  19    0.20    0.26
   7  21 -19   -0.04    0.28
  -7 -21  19    0.97    0.32
   5  21 -19    0.29    0.28
  -5 -21  19    0.10    0.23
   3  21 -19    0.13    0.26
  -3 -21  19    0.30    0.21
   1  21 -19    0.06    0.22
  -1  21 -19   -0.23    0.24
  -3  21 -19    0.36    0.32
  -5  21 -19   -0.13    0.26
  -7  21 -19   -0.10    0.29
  -9  21 -19   -0.16    0.27
 -11  21 -19    0.01    0.33
 -13  21 -19   -0.18    0.33
 -15  21 -19   -0.18    0.30
 -17  21 -19   -0.13    0.33
 -17 -19  19    0.23    0.29
 -15 -19  19   -0.19    0.24
  13  19 -19    0.03    0.28
 -13 -19  19   -0.05    0.20
  11  19 -19   -0.09    0.26
 -11 -19  19   -0.06    0.20
   9  19 -19   -0.39    0.22
  -9 -19  19   -0.01    0.18
   7  19 -19   -0.07    0.24
  -7 -19  19    0.07    0.20
   5  19 -19   -0.09    0.24
  -5 -19  19   -0.19    0.16
   3  19 -19    0.07    0.24
  -3 -19  19   -0.04    0.18
   1  19 -19   -0.13    0.20
  -1 -19  19   -0.02    0.16
  -1  19 -19    0.05    0.26
  -3  19 -19   -0.15    0.25
  -5  19 -19   -0.15    0.26
  -7  19 -19    0.16    0.28
  -9  19 -19    0.13    0.30
 -11  19 -19   -0.27    0.29
 -13  19 -19    0.10    0.30
 -15  19 -19    0.14    0.32
 -17  19 -19   -0.14    0.32
 -19 -17  19   -0.13    0.27
 -17 -17  19   -0.09    0.20
 -15 -17  19    0.27    0.23
 -13 -17  19   -0.04    0.23
  11  17 -19   -0.28    0.24
 -11 -17  19    0.30    0.21
   9  17 -19    0.22    0.27
  -9 -17  19    0.06    0.22
   7  17 -19    0.49    0.29
  -7 -17  19    0.55    0.24
   5  17 -19    0.34    0.24
  -5 -17  19    0.00    0.19
   3  17 -19   -0.04    0.21
  -3 -17  19    0.06    0.16
   1  17 -19    0.31    0.24
  -1 -17  19   -0.09    0.17
  -1  17 -19   -0.17    0.23
   1 -17  19   -0.08    0.17
  -3  17 -19   -0.10    0.22
  -5  17 -19    0.27    0.28
  -7  17 -19    0.24    0.27
  -9  17 -19    0.21    0.26
 -11  17 -19   -0.26    0.23
 -13  17 -19    0.03    0.28
 -15  17 -19   -0.29    0.28
 -17  17 -19   -0.02    0.33
 -19 -15  19    0.15    0.19
 -17 -15  19    0.21    0.24
 -15 -15  19    0.00    0.20
 -13 -15  19   -0.09    0.16
  11  15 -19    0.11    0.27
 -11 -15  19    0.06    0.16
   9  15 -19    0.19    0.24
  -9 -15  19   -0.09    0.16
   7  15 -19    0.39    0.24
  -7 -15  19    0.04    0.17
   5  15 -19    0.25    0.25
  -5 -15  19    0.56    0.23
   3  15 -19    0.00    0.21
  -3 -15  19    0.01    0.15
   1  15 -19    0.10    0.21
  -1 -15  19   -0.07    0.15
  -1  15 -19    0.05    0.21
   1 -15  19   -0.09    0.15
  -3  15 -19   -0.15    0.19
   3 -15  19    0.19    0.17
  -5  15 -19    0.85    0.30
  -7  15 -19    0.36    0.28
  -9  15 -19   -0.06    0.25
 -11  15 -19    0.21    0.27
 -13  15 -19    0.02    0.25
 -15  15 -19   -0.14    0.29
 -21 -13  19   -0.08    0.20
 -19 -13  19    0.15    0.18
 -17 -13  19   -0.03    0.21
 -15 -13  19    0.03    0.19
 -13 -13  19   -0.25    0.15
 -11 -13  19   -0.03    0.17
   9  13 -19    0.09    0.20
  -9 -13  19   -0.15    0.16
   7  13 -19    0.28    0.24
  -7 -13  19    0.53    0.23
   5  13 -19    0.02    0.21
  -5 -13  19   -0.09    0.14
   3  13 -19   -0.38    0.18
  -3 -13  19    0.03    0.16
   1  13 -19    0.03    0.19
  -1 -13  19   -0.13    0.13
  -1  13 -19   -0.33    0.18
   1 -13  19    0.11    0.15
  -3  13 -19   -0.07    0.21
   3 -13  19   -0.01    0.15
  -5  13 -19   -0.34    0.17
   5 -13  19    0.04    0.16
  -7  13 -19    0.16    0.24
  -9  13 -19   -0.24    0.21
 -11  13 -19   -0.23    0.24
 -13  13 -19    0.14    0.26
 -15  13 -19    0.32    0.29
 -19  13 -19    0.01    0.27
 -21  13 -19   -0.31    0.28
 -23  13 -19   -0.33    0.27
 -25  13 -19   -0.27    0.33
 -23 -11  19   -0.05    0.20
 -21 -11  19    0.07    0.18
 -19 -11  19   -0.37    0.12
 -17 -11  19   -0.02    0.17
 -15 -11  19    0.09    0.16
 -13 -11  19    0.01    0.17
 -11 -11  19    0.06    0.19
  -9 -11  19   -0.05    0.15
   7  11 -19    0.15    0.24
  -7 -11  19    0.24    0.18
   5  11 -19    0.09    0.20
  -5 -11  19   -0.07    0.14
   3  11 -19   -0.10    0.20
  -3 -11  19    0.33    0.19
   1  11 -19    1.74    0.34
  -1 -11  19    2.48    0.33
  -1  11 -19    1.81    0.35
   1 -11  19    1.84    0.29
  -3  11 -19    0.20    0.21
   3 -11  19    0.30    0.18
  -5  11 -19    0.11    0.22
   5 -11  19    0.06    0.15
  -7  11 -19   -0.07    0.18
   7 -11  19   -0.06    0.13
  -9  11 -19    0.05    0.22
 -11  11 -19    0.11    0.22
 -13  11 -19    0.15    0.26
 -13  11 -19   -0.06    0.22
 -15  11 -19    0.36    0.26
 -17  11 -19    0.10    0.24
 -19  11 -19    0.10    0.25
 -21  11 -19    0.13    0.30
 -23  11 -19    0.05    0.30
 -25  11 -19    0.11    0.32
 -23  -9  19    0.33    0.24
 -21  -9  19   -0.16    0.20
 -19  -9  19    0.04    0.16
 -17  -9  19    0.11    0.19
 -15  -9  19   -0.09    0.13
 -13  -9  19   -0.19    0.13
 -11  -9  19    0.06    0.17
  -9  -9  19   -0.22    0.16
  -7  -9  19    0.60    0.21
   5   9 -19    0.04    0.18
  -5  -9  19    0.13    0.17
   3   9 -19   -0.06    0.18
  -3  -9  19   -0.04    0.15
   1   9 -19    0.96    0.30
  -1  -9  19    0.10    0.17
  -1   9 -19    0.27    0.22
   1  -9  19    0.26    0.17
  -3   9 -19   -0.08    0.17
   3  -9  19   -0.08    0.12
  -5   9 -19    0.06    0.20
   5  -9  19    0.03    0.14
  -7   9 -19    1.02    0.29
   7  -9  19    0.33    0.19
  -9   9 -19    0.16    0.21
  -9   9 -19   -0.06    0.20
   9  -9  19   -0.07    0.15
 -11   9 -19    0.27    0.23
 -11   9 -19    0.42    0.27
 -13   9 -19   -0.20    0.21
 -13   9 -19    0.07    0.23
 -15   9 -19   -0.22    0.20
 -17   9 -19    0.47    0.29
 -19   9 -19    0.14    0.26
 -21   9 -19    0.62    0.34
 -23   9 -19   -0.28    0.26
 -25   9 -19    0.12    0.31
 -25  -7  19    0.28    0.26
 -23  -7  19    0.29    0.25
 -21  -7  19    0.34    0.21
 -19  -7  19    0.01    0.15
 -17  -7  19    0.73    0.25
 -15  -7  19    0.13    0.16
 -13  -7  19    0.24    0.18
 -11  -7  19    0.10    0.14
  -9  -7  19    0.60    0.22
  -7  -7  19    0.05    0.15
  -5  -7  19   -0.01    0.13
   3   7 -19    0.43    0.23
  -3  -7  19    0.48    0.21
   1   7 -19    0.76    0.27
  -1  -7  19    0.88    0.23
  -1   7 -19    0.67    0.28
   1  -7  19    0.95    0.24
  -3   7 -19    0.62    0.24
   3  -7  19    0.46    0.18
  -5   7 -19    0.02    0.18
   5  -7  19    0.13    0.14
  -7   7 -19    0.10    0.17
  -7   7 -19    0.06    0.19
   7  -7  19   -0.05    0.14
  -9   7 -19    0.71    0.23
  -9   7 -19    0.74    0.23
  -9   7 -19    0.82    0.26
   9  -7  19    0.70    0.21
 -11   7 -19   -0.17    0.18
 -11   7 -19   -0.08    0.16
 -11   7 -19    0.08    0.21
  11  -7  19    0.13    0.15
 -13   7 -19    0.59    0.25
 -13   7 -19    0.14    0.23
 -15   7 -19   -0.16    0.20
 -17   7 -19    0.84    0.31
 -19   7 -19   -0.14    0.25
 -21   7 -19    0.30    0.29
 -23   7 -19   -0.17    0.28
 -25   7 -19   -0.13    0.28
 -27   7 -19   -0.28    0.27
 -27  -5  19   -0.12    0.25
 -25  -5  19    0.09    0.22
 -23  -5  19    0.23    0.24
 -21  -5  19    0.20    0.24
 -19  -5  19    0.02    0.16
 -17  -5  19   -0.01    0.18
 -15  -5  19    0.36    0.19
 -13  -5  19   -0.19    0.12
 -11  -5  19   -0.13    0.12
  -9  -5  19    0.38    0.21
  -7  -5  19   -0.07    0.14
  -5  -5  19    0.02    0.15
  -3  -5  19    0.53    0.20
  -1  -5  19    0.08    0.16
  -1   5 -19    0.19    0.20
   1  -5  19   -0.04    0.13
  -3   5 -19    0.65    0.22
   3  -5  19    0.54    0.20
  -5   5 -19    0.07    0.19
   5  -5  19   -0.12    0.11
  -7   5 -19   -0.07    0.19
  -7   5 -19   -0.10    0.15
   7  -5  19   -0.02    0.13
  -9   5 -19    0.29    0.24
  -9   5 -19    0.77    0.25
  -9   5 -19    0.17    0.18
   9  -5  19    0.61    0.21
 -11   5 -19   -0.26    0.14
 -11   5 -19   -0.22    0.19
 -11   5 -19    0.03    0.17
  11  -5  19   -0.05    0.17
 -13   5 -19   -0.15    0.18
  13  -5  19   -0.15    0.15
 -15   5 -19    0.48    0.26
 -17   5 -19    0.40    0.26
 -19   5 -19   -0.05    0.24
 -21   5 -19   -0.24    0.25
 -23   5 -19    0.28    0.30
 -25   5 -19    0.08    0.33
 -27   5 -19   -0.25    0.29
 -25  -3  19   -0.03    0.21
 -23  -3  19    0.14    0.21
 -21  -3  19    0.13    0.20
 -19  -3  19    0.17    0.19
 -17  -3  19   -0.13    0.15
 -15  -3  19   -0.16    0.14
 -13  -3  19    0.05    0.13
 -11  -3  19    0.19    0.16
  -9  -3  19    0.23    0.16
  -7  -3  19    0.52    0.21
  -5  -3  19    0.65    0.21
  -3  -3  19    0.00    0.14
  -1  -3  19    1.36    0.26
   1  -3  19    1.55    0.27
   3  -3  19   -0.05    0.11
   5  -3  19    0.52    0.20
  -7   3 -19    0.79    0.25
  -7   3 -19    0.32    0.19
   7  -3  19    0.32    0.19
  -9   3 -19    0.13    0.17
  -9   3 -19    0.24    0.20
  -9   3 -19    0.41    0.20
   9  -3  19    0.12    0.15
 -11   3 -19    0.14    0.20
 -11   3 -19    0.61    0.22
 -11   3 -19    0.50    0.21
  11  -3  19    0.39    0.20
 -13   3 -19   -0.16    0.17
  13  -3  19    0.07    0.19
 -15   3 -19    0.10    0.19
  15  -3  19   -0.13    0.17
 -17   3 -19   -0.02    0.22
 -19   3 -19   -0.28    0.16
 -21   3 -19    0.52    0.29
 -23   3 -19    0.44    0.31
 -25   3 -19    0.00    0.30
 -27   3 -19    0.14    0.33
 -25  -1  19   -0.08    0.24
 -23  -1  19    0.46    0.26
 -21  -1  19   -0.24    0.16
 -19  -1  19   -0.11    0.17
 -17  -1  19   -0.13    0.17
 -15  -1  19    0.10    0.17
 -13  -1  19   -0.02    0.14
 -11  -1  19    1.56    0.29
  -9  -1  19    0.28    0.16
  -7  -1  19    0.95    0.24
  -7  -1  19    0.21    0.17
  -5  -1  19   -0.05    0.12
  -3  -1  19    1.37    0.26
  -1  -1  19   -0.04    0.12
   1  -1  19    0.21    0.16
   3  -1  19    1.25    0.26
   5  -1  19    0.10    0.13
  -7   1 -19    0.72    0.22
   7  -1  19    1.11    0.24
  -9   1 -19    0.62    0.21
   9  -1  19    0.58    0.21
 -11   1 -19    2.16    0.35
  11  -1  19    1.73    0.29
 -13   1 -19    0.19    0.19
  13  -1  19   -0.05    0.16
 -15   1 -19   -0.22    0.19
  15  -1  19    0.06    0.15
 -17   1 -19   -0.26    0.19
  17  -1  19    0.11    0.19
 -19   1 -19   -0.04    0.20
 -21   1 -19   -0.10    0.24
 -23   1 -19    0.45    0.30
 -25   1 -19    0.11    0.33
 -27   1 -19   -0.05    0.26
 -23   1  19    0.14    0.22
 -21   1  19   -0.01    0.20
 -19   1  19    0.21    0.20
 -17   1  19    0.05    0.16
 -15   1  19    0.05    0.15
 -13   1  19   -0.05    0.11
 -13   1  19   -0.14    0.17
 -11   1  19    1.63    0.28
 -11   1  19    1.63    0.30
  -9   1  19    0.63    0.20
  -9   1  19    0.44    0.19
  -7   1  19    0.98    0.23
  -7   1  19    1.05    0.25
  -5   1  19    0.09    0.14
  -3   1  19    1.53    0.27
  -1   1  19    0.17    0.16
   1   1  19   -0.13    0.12
   3   1  19    0.92    0.24
  -5  -1 -19   -0.07    0.12
   5   1  19   -0.02    0.11
  -7  -1 -19    1.05    0.25
   7   1  19    0.91    0.24
   9   1  19    0.11    0.15
 -11  -1 -19    1.82    0.33
  11   1  19    2.12    0.31
 -13  -1 -19    0.05    0.18
  13   1  19   -0.07    0.13
 -15  -1 -19   -0.01    0.18
  15   1  19    0.01    0.14
 -17  -1 -19    0.15    0.23
  17   1  19    0.05    0.18
 -19  -1 -19   -0.01    0.20
  19   1  19   -0.04    0.19
 -21  -1 -19    0.51    0.30
 -23  -1 -19    0.33    0.28
 -25  -1 -19    0.30    0.29
 -27  -1 -19    0.24    0.33
 -21   3  19    0.09    0.21
 -19   3  19   -0.27    0.15
 -17   3  19    0.13    0.17
 -17   3  19   -0.20    0.20
 -15   3  19   -0.17    0.13
 -15   3  19   -0.01    0.16
 -13   3  19   -0.15    0.16
 -13   3  19   -0.33    0.12
 -11   3  19    0.27    0.18
 -11   3  19    0.24    0.18
  -9   3  19    0.20    0.16
  -9   3  19    0.41    0.20
  -7   3  19    0.55    0.19
  -7   3  19    0.58    0.21
  -5   3  19    0.30    0.16
  -3   3  19    0.03    0.11
  -1   3  19    1.68    0.28
   1   3  19    1.21    0.25
  -3  -3 -19    0.08    0.14
   3   3  19    0.08    0.13
  -5  -3 -19    0.45    0.19
   5   3  19    0.25    0.17
  -7  -3 -19    0.32    0.19
   7   3  19    0.88    0.24
   9   3  19    0.10    0.16
  11   3  19    0.07    0.15
 -13  -3 -19   -0.06    0.18
  13   3  19   -0.11    0.13
 -15  -3 -19    0.01    0.18
  15   3  19   -0.26    0.15
 -17  -3 -19   -0.09    0.20
  17   3  19   -0.21    0.15
 -19  -3 -19   -0.04    0.20
  19   3  19   -0.19    0.18
 -21  -3 -19    0.08    0.26
  21   3  19    0.55    0.24
 -23  -3 -19   -0.22    0.21
 -25  -3 -19   -0.45    0.21
 -27  -3 -19   -0.03    0.31
 -21   5  19    0.35    0.29
 -19   5  19   -0.13    0.22
 -19   5  19    0.08    0.20
 -17   5  19    0.16    0.18
 -17   5  19    0.53    0.26
 -15   5  19    0.44    0.25
 -15   5  19    0.57    0.23
 -13   5  19    0.05    0.17
 -13   5  19   -0.06    0.16
 -11   5  19    0.13    0.19
 -11   5  19   -0.17    0.14
  -9   5  19    0.17    0.16
  -9   5  19    0.42    0.22
  -7   5  19    0.07    0.15
  -7   5  19   -0.05    0.15
  -5   5  19    0.10    0.14
  -3   5  19    0.57    0.19
  -1   5  19   -0.09    0.11
  -1  -5 -19    0.15    0.17
   1   5  19    0.01    0.12
  -3  -5 -19    0.45    0.20
   3   5  19    0.38    0.17
  -5  -5 -19    0.07    0.16
   5   5  19   -0.01    0.13
   7   5  19    0.07    0.14
   9   5  19    0.24    0.17
  11   5  19    0.20    0.17
  13   5  19    0.00    0.16
  15   5  19    0.68    0.26
 -17  -5 -19    0.01    0.22
  17   5  19   -0.11    0.18
 -19  -5 -19   -0.14    0.17
  19   5  19   -0.13    0.18
 -21  -5 -19    0.43    0.30
  21   5  19   -0.24    0.21
 -23  -5 -19   -0.14    0.23
  23   5  19   -0.36    0.18
 -25  -5 -19    0.19    0.30
 -27  -5 -19    0.34    0.37
 -25   7  19   -0.28    0.30
 -23   7  19   -0.13    0.27
 -21   7  19    0.24    0.30
 -19   7  19    0.17    0.25
 -17   7  19    0.45    0.28
 -17   7  19    1.12    0.29
 -15   7  19    0.20    0.18
 -15   7  19    0.13    0.22
 -13   7  19    0.10    0.20
 -13   7  19    0.36    0.20
 -11   7  19    0.18    0.18
 -11   7  19    0.00    0.13
  -9   7  19    0.95    0.26
  -9   7  19    0.21    0.18
  -7   7  19   -0.17    0.16
  -7   7  19   -0.15    0.12
  -5   7  19    0.10    0.15
  -5   7  19    0.27    0.18
  -3   7  19    0.61    0.22
   1  -7 -19    0.90    0.25
  -1   7  19    0.68    0.21
  -1  -7 -19    0.64    0.23
   1   7  19    0.86    0.23
  -3  -7 -19    0.25    0.21
   3   7  19    0.66    0.21
   5   7  19    0.05    0.15
   7   7  19    0.07    0.14
   9   7  19    0.59    0.23
  11   7  19    0.13    0.15
  13   7  19    0.19    0.18
  15   7  19   -0.19    0.19
  17   7  19    0.86    0.28
 -19  -7 -19    0.14    0.22
  19   7  19   -0.05    0.18
 -21  -7 -19    0.13    0.28
  21   7  19    0.13    0.24
 -23  -7 -19    0.06    0.31
  23   7  19   -0.18    0.24
 -25  -7 -19   -0.35    0.29
  25   7  19   -0.17    0.25
 -27  -7 -19    0.44    0.39
 -25   9  19   -0.13    0.32
 -23   9  19   -0.25    0.28
 -21   9  19    0.37    0.32
 -19   9  19    0.10    0.27
 -17   9  19    0.43    0.27
 -15   9  19    0.00    0.18
 -15   9  19   -0.06    0.21
 -13   9  19    0.01    0.20
 -13   9  19    0.23    0.17
 -11   9  19    0.38    0.26
 -11   9  19    0.33    0.18
  -9   9  19    0.10    0.16
  -9   9  19    0.05    0.19
  -7   9  19    0.03    0.20
  -7   9  19    0.49    0.19
  -5   9  19    0.53    0.23
  -5   9  19    0.61    0.21
   3  -9 -19    0.13    0.18
  -3   9  19    0.21    0.15
   1  -9 -19    0.66    0.24
  -1   9  19    0.48    0.19
  -1  -9 -19    0.68    0.22
   1   9  19    0.24    0.16
   3   9  19    0.21    0.17
   5   9  19    0.15    0.17
   7   9  19    0.43    0.20
   9   9  19   -0.19    0.12
  11   9  19    0.45    0.21
  13   9  19   -0.18    0.15
  15   9  19    0.06    0.20
  17   9  19    0.34    0.23
  19   9  19    0.05    0.21
  21   9  19    0.14    0.22
  23   9  19    0.17    0.25
 -25  -9 -19    0.21    0.39
  25   9  19    0.14    0.32
 -25  11  19   -0.13    0.35
 -23  11  19    0.23    0.29
 -21  11  19    0.11    0.32
 -19  11  19    0.01    0.25
 -17  11  19   -0.08    0.21
 -15  11  19    0.40    0.29
 -13  11  19   -0.13    0.20
 -13  11  19    0.20    0.18
 -11  11  19    0.15    0.22
 -11  11  19    0.03    0.16
  -9  11  19    0.18    0.20
  -9  11  19    0.21    0.18
   7 -11 -19    0.05    0.16
  -7  11  19    0.31    0.21
  -7  11  19   -0.11    0.14
   5 -11 -19    0.06    0.14
  -5  11  19   -0.16    0.15
  -5  11  19   -0.16    0.14
   3 -11 -19    0.31    0.19
  -3  11  19    0.46    0.19
   1 -11 -19    2.01    0.33
  -1  11  19    2.03    0.33
   1  11  19    1.09    0.26
   3  11  19    0.55    0.20
   5  11  19    0.03    0.14
   7  11  19    0.31    0.19
   9  11  19    0.48    0.21
  11  11  19   -0.19    0.14
  13  11  19    0.26    0.18
  15  11  19    0.38    0.25
  17  11  19   -0.23    0.18
  19  11  19    0.11    0.21
  21  11  19    0.29    0.25
  23  11  19   -0.02    0.26
 -25  13  19   -0.19    0.34
 -23  13  19   -0.04    0.30
 -21  13  19   -0.05    0.28
 -19  13  19   -0.03    0.27
 -17  13  19   -0.09    0.21
 -15  13  19    0.04    0.23
 -13  13  19   -0.04    0.23
  11 -13 -19    0.01    0.19
 -11  13  19   -0.22    0.16
 -11  13  19    0.14    0.17
   9 -13 -19    0.10    0.18
  -9  13  19    0.12    0.16
  -9  13  19    0.25    0.21
   7 -13 -19    0.33    0.21
  -7  13  19    0.29    0.20
  -7  13  19    0.13    0.22
   5 -13 -19    0.09    0.19
  -5  13  19    0.08    0.17
  -5  13  19    0.09    0.21
  -3  13  19   -0.01    0.16
  -1  13  19   -0.14    0.14
   1  13  19   -0.21    0.14
   3  13  19   -0.14    0.13
   5  13  19   -0.13    0.14
   7  13  19    0.18    0.16
   9  13  19   -0.06    0.13
  11  13  19   -0.12    0.13
  13  13  19   -0.16    0.19
  15  13  19   -0.06    0.19
  17  13  19    0.08    0.22
  19  13  19    0.11    0.22
  21  13  19   -0.16    0.25
 -23  15  19    0.34    0.33
 -21  15  19    0.04    0.31
 -19  15  19    0.38    0.32
 -17  15  19   -0.08    0.27
 -15  15  19   -0.09    0.21
 -13  15  19    0.14    0.25
 -11  15  19    0.17    0.23
   9 -15 -19   -0.17    0.21
  -9  15  19    0.05    0.24
  -9  15  19   -0.02    0.16
   7 -15 -19    0.31    0.21
  -7  15  19    0.07    0.18
  -7  15  19    0.04    0.20
  -5  15  19    0.21    0.26
  -5  15  19    0.23    0.18
  -3  15  19    0.00    0.19
  -3  15  19   -0.07    0.15
  -1  15  19   -0.06    0.17
   1  15  19    0.14    0.17
   3  15  19   -0.01    0.16
   5  15  19    0.42    0.20
   7  15  19    0.08    0.16
   9  15  19   -0.12    0.16
  11  15  19    0.52    0.23
  13  15  19    0.09    0.19
  15  15  19   -0.16    0.18
  17  15  19   -0.03    0.20
  19  15  19    0.19    0.27
 -21  17  19   -0.14    0.31
 -19  17  19   -0.16    0.31
 -17  17  19    0.08    0.30
 -15  17  19    0.33    0.31
 -13  17  19   -0.21    0.19
 -11  17  19    0.03    0.23
  -9  17  19    0.29    0.27
  -7  17  19    0.94    0.29
  -7  17  19    0.28    0.25
  -5  17  19    0.24    0.22
  -5  17  19    0.18    0.26
  -3  17  19   -0.10    0.18
  -3  17  19   -0.07    0.20
  -1  17  19   -0.17    0.15
   1  17  19   -0.07    0.15
   3  17  19   -0.03    0.16
   5  17  19    0.29    0.20
   7  17  19    0.63    0.25
   9  17  19    0.25    0.22
  11  17  19    0.28    0.21
  13  17  19    0.15    0.19
  15  17  19    0.13    0.22
  17  17  19   -0.25    0.24
  19  17  19    0.27    0.26
 -21  19  19   -0.24    0.32
 -19  19  19    0.01    0.31
 -17  19  19   -0.17    0.29
 -15  19  19    0.07    0.30
 -13  19  19    0.00    0.24
 -11  19  19    0.04    0.24
  -9  19  19   -0.02    0.23
  -7  19  19    0.03    0.22
  -5  19  19   -0.28    0.14
  -5  19  19    0.05    0.19
  -3  19  19    0.10    0.21
  -3  19  19   -0.23    0.15
  -1  19  19   -0.08    0.16
   1  19  19    0.03    0.16
   3  19  19   -0.19    0.17
   5  19  19   -0.04    0.19
   7  19  19   -0.13    0.18
   9  19  19   -0.01    0.17
  11  19  19    0.04    0.20
  13  19  19    0.16    0.20
  15  19  19    0.14    0.22
  17  19  19   -0.13    0.16
 -19  21  19    0.17    0.36
 -17  21  19    0.11    0.34
 -15  21  19   -0.20    0.29
 -13  21  19   -0.13    0.26
 -11  21  19    0.03    0.25
  -9  21  19    0.53    0.29
  -7  21  19    0.45    0.28
  -5  21  19   -0.09    0.20
  -3  21  19    0.15    0.26
  -1  21  19    0.01    0.23
  -1  21  19    0.06    0.20
   1  21  19    0.18    0.21
   3  21  19    0.52    0.27
   5  21  19    0.28    0.25
   7  21  19    0.34    0.25
   9  21  19    0.41    0.26
  11  21  19    0.47    0.24
  13  21  19   -0.14    0.17
 -15  23  19   -0.14    0.31
 -13  23  19    0.38    0.30
 -11  23  19   -0.16    0.22
  -9  23  19    0.00    0.21
  -7  23  19    0.18    0.25
  -5  23  19   -0.02    0.24
  -3  23  19   -0.04    0.22
  -1  23  19   -0.04    0.21
   1  23  19    0.06    0.25
   1  23  19    0.09    0.22
   3  23  19   -0.09    0.21
   5  23  19   -0.22    0.19
   7  23  19   -0.02    0.21
   9  23  19    0.08    0.22
  11  23  19   -0.20    0.19
 -13  25  19    0.29    0.32
 -11  25  19    0.03    0.23
  -9  25  19    0.03    0.24
  -7  25  19   -0.13    0.22
  -5  25  19    0.00    0.25
  -3  25  19    0.08    0.25
  -1  25  19    0.16    0.27
   1  25  19   -0.10    0.25
   3  25  19    0.21    0.26
   5  25  19    0.27    0.28
   7  25  19   -0.26    0.19
   9  25  19   -0.29    0.20
  -7  27  19   -0.17    0.25
  -5  27  19    0.12    0.28
  -3  27  19    0.07    0.26
  -1  27  19   -0.06    0.24
   1  27  19    0.01    0.26
   3  27  19    0.00    0.28
   5  27  19    0.36    0.32
   8  26 -20    0.34    0.34
   6  26 -20    0.79    0.38
   4  26 -20    0.21    0.34
   2  26 -20   -0.24    0.27
   0  26 -20    0.13    0.32
  -2  26 -20   -0.21    0.27
  -4  26 -20   -0.07    0.36
  -6  26 -20    0.33    0.38
  -8  26 -20   -0.14    0.34
  12  24 -20   22.92    1.26
  10  24 -20    0.73    0.41
 -10 -24  20    1.04    0.43
   8  24 -20   19.07    1.14
  -8 -24  20   24.48    1.17
   6  24 -20    0.92    0.35
   4  24 -20   29.09    1.37
   2  24 -20    1.32    0.40
   0  24 -20   22.70    1.22
  -2  24 -20    0.62    0.36
  -4  24 -20   29.85    1.43
  -6  24 -20    0.54    0.38
  -8  24 -20   21.44    1.22
 -10  24 -20    1.11    0.48
 -12  24 -20   21.21    1.24
  14  22 -20    0.03    0.36
  12  22 -20   -0.01    0.29
 -12 -22  20   -0.14    0.27
  10  22 -20   -0.28    0.29
 -10 -22  20    0.35    0.25
   8  22 -20    0.33    0.32
  -8 -22  20   -0.18    0.21
   6  22 -20   -0.21    0.25
  -6 -22  20    0.42    0.25
   4  22 -20    0.10    0.28
   2  22 -20    0.30    0.32
   0  22 -20   -0.23    0.22
  -2  22 -20    0.30    0.28
  -4  22 -20    0.52    0.33
  -6  22 -20   -0.09    0.33
  -8  22 -20    0.33    0.33
 -10  22 -20    0.70    0.41
 -12  22 -20    0.14    0.36
 -14  22 -20    0.40    0.40
 -16  22 -20   -0.40    0.35
 -14 -20  20    0.10    0.29
  12  20 -20   15.53    1.00
 -12 -20  20   17.00    0.97
  10  20 -20    0.48    0.31
 -10 -20  20    0.91    0.31
   8  20 -20   34.53    1.43
  -8 -20  20   36.86    1.36
   6  20 -20    0.71    0.33
  -6 -20  20    0.28    0.22
   4  20 -20   23.89    1.14
  -4 -20  20   24.18    1.05
   2  20 -20    0.82    0.31
  -2 -20  20    1.10    0.29
   0  20 -20   35.79    1.42
  -2  20 -20    1.36    0.40
  -4  20 -20   25.56    1.22
  -6  20 -20    1.07    0.37
  -8  20 -20   37.95    1.49
 -10  20 -20    1.41    0.42
 -12  20 -20   17.18    1.00
 -14  20 -20    0.58    0.36
 -16  20 -20   20.04    1.14
 -16 -18  20   -0.16    0.24
 -14 -18  20    1.63    0.39
  12  18 -20    0.24    0.27
 -12 -18  20    0.13    0.24
  10  18 -20    0.11    0.27
 -10 -18  20    0.39    0.24
   8  18 -20    0.10    0.27
  -8 -18  20   -0.06    0.19
   6  18 -20    0.19    0.25
  -6 -18  20    0.01    0.19
   4  18 -20    0.13    0.23
  -4 -18  20    0.04    0.17
   2  18 -20    0.18    0.26
  -2 -18  20    0.29    0.22
   0  18 -20    0.13    0.25
   0 -18  20    0.09    0.18
  -2  18 -20    0.34    0.30
  -4  18 -20   -0.11    0.23
  -6  18 -20    0.27    0.31
  -8  18 -20   -0.04    0.28
 -10  18 -20    0.22    0.29
 -12  18 -20    0.18    0.29
 -14  18 -20    1.83    0.46
 -16  18 -20    0.04    0.34
 -18 -16  20   -0.10    0.25
 -16 -16  20   29.00    1.26
 -14 -16  20   -0.02    0.19
 -12 -16  20   35.10    1.33
  10  16 -20    0.41    0.30
 -10 -16  20    0.68    0.28
   8  16 -20   42.19    1.51
  -8 -16  20   43.32    1.42
   6  16 -20    0.32    0.24
  -6 -16  20    0.15    0.19
   4  16 -20   48.58    1.60
  -4 -16  20   46.34    1.43
   2  16 -20    1.37    0.34
  -2 -16  20    1.71    0.32
   0  16 -20   42.60    1.48
   0 -16  20   42.12    1.31
  -2  16 -20    1.23    0.34
   2 -16  20    1.24    0.28
  -4  16 -20   48.77    1.59
  -6  16 -20    0.19    0.27
  -8  16 -20   44.87    1.53
 -10  16 -20    0.44    0.32
 -12  16 -20   32.66    1.30
 -14  16 -20    0.47    0.33
 -16  16 -20   32.20    1.31
 -20 -14  20    0.53    0.26
 -18 -14  20    1.04    0.33
 -16 -14  20    0.37    0.26
 -14 -14  20    0.10    0.21
 -12 -14  20    0.32    0.20
 -10 -14  20    1.62    0.33
   8  14 -20    0.08    0.22
  -8 -14  20    0.30    0.21
   6  14 -20    0.47    0.26
  -6 -14  20    0.16    0.19
   4  14 -20    0.15    0.21
  -4 -14  20    0.02    0.18
   2  14 -20    2.31    0.41
  -2 -14  20    2.34    0.35
   0  14 -20   -0.05    0.21
   0 -14  20    0.09    0.17
  -2  14 -20    2.21    0.39
   2 -14  20    2.23    0.33
  -4  14 -20    0.10    0.22
   4 -14  20    0.15    0.17
  -6  14 -20    0.33    0.28
  -8  14 -20    0.18    0.28
 -10  14 -20    1.97    0.40
 -12  14 -20    0.05    0.26
 -14  14 -20   -0.05    0.28
 -20 -12  20   15.96    0.93
 -18 -12  20    0.10    0.18
 -16 -12  20   32.28    1.28
 -14 -12  20    0.31    0.23
 -12 -12  20   18.71    0.92
 -10 -12  20    0.84    0.27
  -8 -12  20   56.39    1.61
   6  12 -20    0.50    0.24
  -6 -12  20    0.23    0.18
   4  12 -20   32.26    1.22
  -4 -12  20   29.94    1.09
   2  12 -20    0.89    0.32
  -2 -12  20    0.78    0.25
   0  12 -20   46.90    1.48
   0 -12  20   45.27    1.33
  -2  12 -20    0.95    0.30
   2 -12  20    0.33    0.21
  -4  12 -20   28.85    1.13
   4 -12  20   30.21    1.02
  -6  12 -20   -0.01    0.20
   6 -12  20    0.02    0.16
  -8  12 -20   56.60    1.63
 -10  12 -20    0.55    0.29
 -12  12 -20   20.37    0.96
 -14  12 -20    0.25    0.27
 -18  12 -20   -0.10    0.29
 -20  12 -20   17.84    1.01
 -22  12 -20   -0.47    0.27
 -24  12 -20   22.36    1.23
 -22 -10  20    0.28    0.22
 -20 -10  20    0.65    0.28
 -18 -10  20   -0.06    0.17
 -16 -10  20    0.57    0.25
 -14 -10  20    1.34    0.31
 -12 -10  20    0.63    0.26
 -10 -10  20    0.87    0.29
  -8 -10  20    0.19    0.17
  -6 -10  20    0.52    0.24
   4  10 -20   -0.06    0.23
  -4 -10  20    0.58    0.22
   2  10 -20    0.40    0.23
  -2 -10  20    0.20    0.17
   0  10 -20   -0.01    0.20
   0 -10  20    0.02    0.15
  -2  10 -20    0.15    0.23
   2 -10  20   -0.08    0.14
  -4  10 -20    0.48    0.25
   4 -10  20    0.09    0.17
  -6  10 -20    1.02    0.30
   6 -10  20    0.39    0.22
  -8  10 -20    0.08    0.21
   8 -10  20    0.02    0.18
 -10  10 -20    0.90    0.30
 -12  10 -20    0.56    0.28
 -14  10 -20    1.60    0.35
 -16  10 -20    0.48    0.26
 -18  10 -20   -0.36    0.22
 -20  10 -20    1.14    0.38
 -22  10 -20    0.36    0.29
 -24  10 -20    0.48    0.35
 -24  -8  20   21.38    1.12
 -22  -8  20    0.14    0.22
 -20  -8  20   36.31    1.39
 -18  -8  20    0.09    0.18
 -16  -8  20   40.66    1.40
 -14  -8  20   -0.11    0.13
 -12  -8  20   54.83    1.61
 -10  -8  20    0.24    0.18
  -8  -8  20   85.15    2.02
  -6  -8  20    0.39    0.19
  -4  -8  20   86.53    1.99
   2   8 -20    0.73    0.29
  -2  -8  20    0.47    0.21
   0   8 -20   56.55    1.61
   0  -8  20   56.52    1.50
  -2   8 -20    0.62    0.28
   2  -8  20    0.64    0.21
  -4   8 -20   88.38    2.08
   4  -8  20   88.65    1.96
  -6   8 -20    0.14    0.24
   6  -8  20    0.07    0.17
  -8   8 -20   89.72    1.95
  -8   8 -20   90.27    2.06
   8  -8  20   90.42    1.98
 -10   8 -20   -0.01    0.22
 -10   8 -20    0.08    0.21
 -10   8 -20    0.13    0.20
  10  -8  20    0.04    0.18
 -12   8 -20   58.87    1.61
 -12   8 -20   61.74    1.63
 -14   8 -20    0.02    0.21
 -16   8 -20   44.65    1.45
 -18   8 -20    0.62    0.29
 -20   8 -20   41.06    1.51
 -22   8 -20   -0.02    0.30
 -24   8 -20   23.23    1.21
 -26   8 -20   -0.12    0.31
 -24  -6  20    0.11    0.25
 -22  -6  20    0.15    0.22
 -20  -6  20    0.17    0.22
 -18  -6  20    0.27    0.21
 -16  -6  20    0.32    0.20
 -14  -6  20   -0.07    0.14
 -12  -6  20    0.26    0.19
 -10  -6  20    0.51    0.20
  -8  -6  20    0.09    0.19
  -6  -6  20    0.42    0.20
  -4  -6  20    0.92    0.25
  -2  -6  20    0.84    0.24
   0   6 -20    0.19    0.24
   0  -6  20   -0.12    0.13
  -2   6 -20    0.24    0.21
   2  -6  20    0.42    0.21
  -4   6 -20    0.31    0.24
   4  -6  20    0.23    0.18
  -6   6 -20    0.11    0.19
   6  -6  20    0.30    0.19
  -8   6 -20    0.15    0.19
  -8   6 -20    0.34    0.23
  -8   6 -20    0.40    0.22
   8  -6  20    0.04    0.16
 -10   6 -20    0.87    0.28
 -10   6 -20    0.45    0.24
 -10   6 -20    0.58    0.23
  10  -6  20    0.61    0.22
 -12   6 -20    0.54    0.23
 -12   6 -20    0.23    0.25
 -12   6 -20    0.12    0.20
  12  -6  20    0.39    0.21
 -14   6 -20    0.23    0.23
 -16   6 -20    0.12    0.22
 -18   6 -20    0.17    0.27
 -20   6 -20    0.46    0.28
 -22   6 -20   -0.15    0.24
 -24   6 -20    0.39    0.35
 -26   6 -20    0.12    0.33
 -26  -4  20    0.02    0.24
 -24  -4  20   28.71    1.25
 -22  -4  20    0.29    0.24
 -20  -4  20   24.65    1.08
 -18  -4  20    0.17    0.20
 -16  -4  20   50.22    1.55
 -14  -4  20    0.30    0.18
 -12  -4  20   30.51    1.12
 -10  -4  20    0.66    0.21
  -8  -4  20   79.96    1.91
  -6  -4  20    0.21    0.17
  -4  -4  20   39.64    1.23
  -2  -4  20    0.37    0.17
   0  -4  20   63.96    1.62
   2  -4  20    0.60    0.22
   4  -4  20   39.91    1.21
  -6   4 -20    0.08    0.20
   6  -4  20    0.74    0.23
  -8   4 -20   86.88    1.95
  -8   4 -20   81.22    1.88
   8  -4  20   84.27    1.89
 -10   4 -20    0.56    0.24
 -10   4 -20    0.36    0.23
 -10   4 -20    0.65    0.24
  10  -4  20    0.33    0.19
 -12   4 -20   31.17    1.12
  12  -4  20   30.21    1.05
 -14   4 -20    0.34    0.22
  14  -4  20    0.20    0.20
 -16   4 -20   49.59    1.56
 -18   4 -20   -0.05    0.24
 -20   4 -20   26.70    1.20
 -22   4 -20    0.75    0.36
 -24   4 -20   29.60    1.37
 -26   4 -20    0.41    0.31
 -24  -2  20    0.90    0.30
 -22  -2  20    0.41    0.22
 -20  -2  20    0.98    0.29
 -18  -2  20    0.07    0.19
 -16  -2  20    1.07    0.29
 -14  -2  20    2.51    0.37
 -12  -2  20    0.42    0.20
 -10  -2  20    0.00    0.12
  -8  -2  20    0.49    0.20
  -6  -2  20    0.64    0.21
  -4  -2  20    0.49    0.21
  -2  -2  20    1.38    0.29
   0  -2  20    0.19    0.18
   2  -2  20    1.55    0.28
   4  -2  20    0.43    0.20
  -6   2 -20    0.67    0.22
   6  -2  20    0.31    0.20
  -8   2 -20    0.93    0.24
   8  -2  20    0.25    0.17
 -10   2 -20    0.00    0.18
 -10   2 -20    0.00    0.17
  10  -2  20    0.25    0.19
 -12   2 -20    0.69    0.25
  12  -2  20    0.59    0.23
 -14   2 -20    2.09    0.37
  14  -2  20    2.15    0.34
 -16   2 -20    0.73    0.28
  16  -2  20    0.96    0.27
 -18   2 -20    0.20    0.24
 -20   2 -20    0.81    0.33
 -22   2 -20   -0.06    0.27
 -24   2 -20    0.96    0.37
 -26   2 -20    0.19    0.31
 -24   0  20   21.10    1.05
 -22   0  20    0.04    0.17
 -20   0  20   35.51    1.30
 -18   0  20   -0.10    0.16
 -16   0  20   43.01    1.38
 -14   0  20   -0.08    0.16
 -12   0  20   48.30    1.43
 -10   0  20    0.08    0.13
  -8   0  20   55.44    1.39
  -8   0  20   53.52    1.49
  -6   0  20   -0.18    0.14
  -6   0  20    0.06    0.13
  -4   0  20   60.31    1.57
  -2   0  20    0.01    0.15
   0   0  20   35.37    1.13
   2   0  20   -0.13    0.13
   4   0  20   62.02    1.58
  -6   0 -20    0.01    0.16
   6   0  20   -0.23    0.12
  -8   0 -20   55.60    1.48
   8   0  20   53.67    1.46
  10   0  20   -0.09    0.14
 -12   0 -20   47.98    1.46
  12   0  20   47.42    1.38
 -14   0 -20    0.13    0.21
  14   0  20   -0.02    0.16
 -16   0 -20   41.75    1.44
  16   0  20   43.31    1.33
 -18   0 -20    0.08    0.22
  18   0  20   -0.05    0.19
 -20   0 -20   36.66    1.43
 -22   0 -20   -0.04    0.24
 -24   0 -20   23.97    1.24
 -26   0 -20    0.28    0.31
 -22   2  20    0.09    0.22
 -20   2  20    0.98    0.32
 -18   2  20    0.15    0.19
 -16   2  20    1.35    0.30
 -14   2  20    1.73    0.33
 -14   2  20    1.55    0.29
 -12   2  20    0.89    0.26
 -12   2  20    0.99    0.25
 -10   2  20    0.11    0.18
 -10   2  20    0.18    0.19
  -8   2  20    0.79    0.24
  -8   2  20    0.66    0.22
  -6   2  20    0.88    0.24
  -6   2  20    0.53    0.21
  -4   2  20    0.56    0.22
  -2   2  20    1.27    0.27
   0   2  20   -0.02    0.13
   2   2  20    0.58    0.22
  -4  -2 -20    0.62    0.20
   4   2  20    0.64    0.21
  -6  -2 -20    0.85    0.26
   6   2  20    0.63    0.22
  -8  -2 -20    0.86    0.25
   8   2  20    0.30    0.20
  10   2  20   -0.07    0.13
  12   2  20    0.48    0.22
 -14  -2 -20    2.84    0.42
  14   2  20    2.42    0.36
 -16  -2 -20    0.76    0.31
  16   2  20    0.62    0.24
 -18  -2 -20   -0.19    0.21
  18   2  20   -0.05    0.19
 -20  -2 -20    1.02    0.37
  20   2  20    0.60    0.26
 -22  -2 -20    0.54    0.31
 -24  -2 -20    0.40    0.30
 -26  -2 -20   -0.20    0.28
 -20   4  20   25.47    1.08
 -18   4  20    0.09    0.26
 -18   4  20    0.23    0.22
 -16   4  20   50.03    1.51
 -16   4  20   46.16    1.44
 -14   4  20    0.45    0.26
 -14   4  20    0.23    0.18
 -12   4  20   31.78    1.10
 -12   4  20   27.34    1.04
 -10   4  20    0.32    0.20
 -10   4  20    0.45    0.21
  -8   4  20   86.06    1.98
  -8   4  20   85.30    1.98
  -6   4  20    0.60    0.22
  -6   4  20    0.51    0.23
  -4   4  20   39.60    1.23
  -2   4  20    0.29    0.19
   0   4  20   62.47    1.60
  -2  -4 -20    0.24    0.17
   2   4  20    0.25    0.17
  -4  -4 -20   41.02    1.25
   4   4  20   40.10    1.24
  -6  -4 -20    0.78    0.27
   6   4  20    0.53    0.21
   8   4  20   79.56    1.88
  10   4  20    0.57    0.22
  12   4  20   28.28    1.04
  14   4  20    0.27    0.19
 -16  -4 -20   50.64    1.64
  16   4  20   45.86    1.44
 -18  -4 -20    0.31    0.25
  18   4  20    0.10    0.21
 -20  -4 -20   24.80    1.19
  20   4  20   26.91    1.11
 -22  -4 -20    0.06    0.27
  22   4  20    0.25    0.25
 -24  -4 -20   26.53    1.32
 -26  -4 -20    0.15    0.31
 -22   6  20    0.06    0.31
 -20   6  20    0.51    0.31
 -18   6  20    0.25    0.27
 -18   6  20    0.37    0.23
 -16   6  20    0.54    0.22
 -16   6  20    0.24    0.24
 -14   6  20    0.27    0.23
 -14   6  20    0.24    0.20
 -12   6  20    0.24    0.19
 -12   6  20    0.47    0.21
 -10   6  20    0.29    0.22
 -10   6  20    1.21    0.29
  -8   6  20   -0.09    0.15
  -8   6  20    0.37    0.21
  -6   6  20    0.12    0.16
  -6   6  20    0.13    0.19
  -4   6  20    0.34    0.18
  -2   6  20    0.76    0.23
   0  -6 -20    0.05    0.17
   0   6  20   -0.07    0.12
  -2  -6 -20    0.36    0.19
   2   6  20    0.71    0.23
  -4  -6 -20    0.35    0.21
   4   6  20    0.59    0.22
   6   6  20    0.25    0.18
   8   6  20   -0.10    0.12
  10   6  20    0.39    0.18
  12   6  20    0.05    0.18
  14   6  20    0.66    0.27
  16   6  20    0.38    0.22
  18   6  20    0.00    0.18
 -20  -6 -20    0.03    0.27
  20   6  20    0.28    0.25
 -22  -6 -20    0.32    0.31
  22   6  20    0.27    0.26
 -24  -6 -20    0.94    0.37
  24   6  20    0.20    0.30
 -26  -6 -20   -0.04    0.33
 -22   8  20    0.10    0.29
 -20   8  20   39.50    1.48
 -18   8  20    0.30    0.28
 -16   8  20   42.15    1.47
 -16   8  20   44.10    1.36
 -14   8  20    0.25    0.20
 -14   8  20    0.01    0.22
 -12   8  20   51.38    1.56
 -12   8  20   50.28    1.45
 -10   8  20    0.00    0.18
 -10   8  20    0.28    0.21
  -8   8  20   83.40    1.95
  -8   8  20   83.03    2.07
  -6   8  20    0.28    0.22
  -6   8  20    0.04    0.16
  -4   8  20   88.03    2.00
   2  -8 -20    0.67    0.25
  -2   8  20    0.82    0.24
   0  -8 -20   53.16    1.46
   0   8  20   52.12    1.46
  -2  -8 -20    0.71    0.25
   2   8  20    0.86    0.24
   4   8  20   81.44    1.93
   6   8  20    0.50    0.22
   8   8  20   80.80    1.93
  10   8  20    0.13    0.16
  12   8  20   54.97    1.58
  14   8  20    0.16    0.19
  16   8  20   41.44    1.40
  18   8  20    0.11    0.18
  20   8  20   37.05    1.38
  22   8  20    0.26    0.28
  24   8  20   21.66    1.11
 -26  -8 -20    0.43    0.42
 -24  10  20    1.51    0.48
 -22  10  20    0.24    0.33
 -20  10  20    0.76    0.35
 -18  10  20    0.14    0.28
 -16  10  20    0.27    0.27
 -14  10  20    0.64    0.27
 -14  10  20    1.46    0.31
 -12  10  20    0.41    0.21
 -12  10  20    0.52    0.25
 -10  10  20    0.91    0.27
 -10  10  20    0.74    0.29
  -8  10  20    0.20    0.19
  -8  10  20   -0.12    0.19
   6 -10 -20    0.71    0.24
  -6  10  20    0.38    0.21
  -6  10  20    1.20    0.31
   4 -10 -20    0.10    0.20
  -4  10  20    0.37    0.19
   2 -10 -20   -0.20    0.17
  -2  10  20    0.15    0.18
   0 -10 -20    0.20    0.22
   0  10  20   -0.11    0.12
   2  10  20    0.16    0.15
   4  10  20    0.36    0.19
   6  10  20    0.76    0.23
   8  10  20    0.25    0.18
  10  10  20    1.00    0.28
  12  10  20    0.32    0.19
  14  10  20    1.48    0.35
  16  10  20    0.74    0.28
  18  10  20   -0.07    0.22
  20  10  20    0.53    0.29
  22  10  20    0.05    0.26
  24  10  20    0.44    0.32
 -24  12  20   22.72    1.27
 -22  12  20   -0.08    0.28
 -20  12  20   17.41    1.05
 -18  12  20   -0.12    0.24
 -16  12  20   32.12    1.35
 -14  12  20    0.11    0.25
 -12  12  20   18.94    0.86
 -12  12  20   22.35    1.06
  10 -12 -20    0.17    0.23
 -10  12  20    0.61    0.26
 -10  12  20    0.30    0.19
   8 -12 -20   57.00    1.54
  -8  12  20   55.56    1.53
  -8  12  20   51.91    1.68
   6 -12 -20    0.11    0.20
  -6  12  20    0.08    0.17
  -6  12  20    0.28    0.24
   4 -12 -20   30.11    1.09
  -4  12  20   31.50    1.24
  -4  12  20   30.87    1.10
   2 -12 -20    0.50    0.23
  -2  12  20    0.54    0.21
   0  12  20   47.99    1.44
   2  12  20    0.47    0.20
   4  12  20   29.83    1.11
   6  12  20    0.33    0.20
   8  12  20   56.69    1.63
  10  12  20    0.41    0.24
  12  12  20   21.31    1.00
  14  12  20    0.32    0.25
  16  12  20   35.00    1.34
  18  12  20    0.16    0.24
  20  12  20   17.27    0.99
  22  12  20    0.16    0.31
 -22  14  20    0.54    0.36
 -20  14  20   -0.14    0.35
 -18  14  20    1.00    0.40
 -16  14  20    0.53    0.32
 -14  14  20    0.05    0.25
 -12  14  20    0.50    0.28
  10 -14 -20    1.29    0.31
 -10  14  20    2.10    0.41
 -10  14  20    1.35    0.32
   8 -14 -20   -0.08    0.20
  -8  14  20   -0.15    0.15
  -8  14  20    0.04    0.21
   6 -14 -20    0.28    0.26
  -6  14  20    0.26    0.24
  -6  14  20    0.30    0.20
  -4  14  20    0.05    0.16
  -4  14  20    0.30    0.25
  -2  14  20    2.32    0.36
   0  14  20   -0.04    0.16
   2  14  20    2.41    0.37
   4  14  20    0.07    0.15
   6  14  20    0.52    0.21
   8  14  20    0.22    0.20
  10  14  20    1.77    0.36
  12  14  20    0.53    0.23
  14  14  20    0.21    0.23
  16  14  20    0.14    0.24
  18  14  20    1.12    0.33
  20  14  20    0.34    0.31
 -22  16  20   -0.05    0.34
 -20  16  20   18.85    1.15
 -18  16  20    0.19    0.33
 -16  16  20   28.49    1.35
 -14  16  20    0.13    0.27
 -12  16  20   32.01    1.37
 -10  16  20    0.53    0.32
  -8  16  20   44.23    1.58
  -8  16  20   41.05    1.33
  -6  16  20    0.28    0.19
  -6  16  20    0.19    0.28
  -4  16  20   45.98    1.63
  -4  16  20   47.74    1.45
  -2  16  20    1.11    0.30
   0  16  20   41.76    1.38
   2  16  20    1.08    0.29
   4  16  20   46.23    1.49
   6  16  20    0.30    0.20
   8  16  20   42.97    1.45
  10  16  20    0.54    0.24
  12  16  20   34.53    1.34
  14  16  20    0.34    0.23
  16  16  20   29.82    1.29
  18  16  20   -0.20    0.25
 -20  18  20    0.74    0.39
 -18  18  20   -0.11    0.27
 -16  18  20    0.19    0.31
 -14  18  20    1.37    0.41
 -12  18  20    0.34    0.29
 -10  18  20   -0.15    0.21
  -8  18  20    0.17    0.26
  -6  18  20    0.31    0.22
  -6  18  20    0.02    0.26
  -4  18  20   -0.05    0.22
  -4  18  20    0.16    0.20
  -2  18  20    0.33    0.19
  -2  18  20    0.36    0.29
   0  18  20    0.10    0.18
   2  18  20    0.27    0.21
   4  18  20    0.08    0.18
   6  18  20   -0.15    0.17
   8  18  20    0.23    0.22
  10  18  20    0.09    0.21
  12  18  20    0.15    0.20
  14  18  20    1.55    0.37
  16  18  20    0.11    0.21
 -18  20  20    0.13    0.33
 -16  20  20   17.91    1.13
 -14  20  20   -0.17    0.26
 -12  20  20   16.83    1.05
 -10  20  20    0.22    0.32
  -8  20  20   34.52    1.48
  -6  20  20    0.33    0.31
  -4  20  20   22.29    1.16
  -2  20  20    1.01    0.30
  -2  20  20    1.06    0.36
   0  20  20   35.14    1.31
   2  20  20    1.58    0.35
   4  20  20   27.06    1.17
   6  20  20    0.84    0.29
   8  20  20   41.41    1.51
  10  20  20    0.43    0.27
  12  20  20   17.17    0.99
  14  20  20    0.30    0.23
 -16  22  20   -0.35    0.31
 -14  22  20    0.07    0.30
 -12  22  20    0.00    0.29
 -10  22  20    0.29    0.28
  -8  22  20    0.24    0.23
  -6  22  20    0.41    0.26
  -4  22  20    0.41    0.26
  -2  22  20    0.55    0.29
   0  22  20   -0.04    0.20
   0  22  20   -0.13    0.20
   2  22  20    0.31    0.26
   4  22  20   -0.01    0.20
   6  22  20    0.27    0.23
   8  22  20   -0.08    0.23
  10  22  20    0.29    0.26
  12  22  20    0.21    0.27
 -12  24  20   19.49    1.18
 -10  24  20    1.19    0.39
  -8  24  20   20.92    1.18
  -6  24  20    0.48    0.32
  -4  24  20   29.44    1.41
  -2  24  20    1.04    0.38
   0  24  20   20.15    1.16
   2  24  20    0.89    0.32
   2  24  20    1.80    0.44
   4  24  20   29.86    1.30
   6  24  20    0.98    0.33
   8  24  20   22.72    1.16
  -8  26  20    0.41    0.30
  -6  26  20    0.30    0.31
  -4  26  20    0.05    0.24
  -2  26  20   -0.12    0.20
   0  26  20    0.18    0.27
   2  26  20    0.26    0.29
   4  26  20   -0.05    0.25
   6  26  20    0.39    0.31
   9  25 -21    0.10    0.33
   7  25 -21   -0.07    0.31
   5  25 -21    0.45    0.34
   3  25 -21    0.21    0.27
   1  25 -21    0.35    0.33
  -1  25 -21   -0.11    0.30
  -3  25 -21    0.01    0.33
  -5  25 -21    0.13    0.35
  -7  25 -21    0.21    0.40
  -9  25 -21    0.18    0.37
  13  23 -21    0.10    0.37
  11  23 -21    0.36    0.33
   9  23 -21   -0.05    0.31
  -9 -23  21   -0.31    0.25
   7  23 -21   -0.06    0.29
  -7 -23  21    0.08    0.27
   5  23 -21    0.19    0.31
   3  23 -21    0.13    0.29
   1  23 -21    0.04    0.27
  -1  23 -21   -0.28    0.26
  -3  23 -21   -0.17    0.35
  -5  23 -21    0.44    0.38
  -7  23 -21   -0.22    0.34
  -9  23 -21    0.24    0.37
 -11  23 -21   -0.08    0.38
 -13  23 -21   -0.25    0.35
  13  21 -21    0.17    0.34
  11  21 -21   -0.16    0.29
 -11 -21  21   -0.11    0.23
   9  21 -21    0.12    0.31
  -9 -21  21    0.15    0.22
   7  21 -21   -0.30    0.27
  -7 -21  21   -0.04    0.22
   5  21 -21    0.21    0.29
  -5 -21  21   -0.26    0.19
   3  21 -21   -0.20    0.27
   1  21 -21   -0.14    0.20
  -1  21 -21   -0.29    0.26
  -3  21 -21    0.49    0.32
  -5  21 -21   -0.39    0.29
  -7  21 -21    0.22    0.34
  -9  21 -21    0.51    0.36
 -11  21 -21    0.34    0.37
 -13  21 -21   -0.41    0.34
 -15  21 -21    0.28    0.39
 -15 -19  21   -0.17    0.25
 -13 -19  21    0.08    0.29
  11  19 -21    0.19    0.31
 -11 -19  21   -0.22    0.22
   9  19 -21    0.20    0.34
  -9 -19  21    0.25    0.23
   7  19 -21   -0.15    0.26
  -7 -19  21    0.03    0.23
   5  19 -21   -0.15    0.24
  -5 -19  21    0.12    0.20
   3  19 -21    0.03    0.22
  -3 -19  21    0.11    0.21
   1  19 -21   -0.07    0.26
  -1 -19  21   -0.01    0.20
  -1  19 -21   -0.04    0.24
  -3  19 -21   -0.04    0.26
  -5  19 -21    0.33    0.33
  -7  19 -21   -0.27    0.30
  -9  19 -21    0.35    0.31
 -11  19 -21    0.08    0.28
 -13  19 -21    0.07    0.30
 -15  19 -21   -0.11    0.34
 -15 -17  21    0.04    0.23
 -13 -17  21    0.09    0.24
 -11 -17  21    0.19    0.25
   9  17 -21    0.15    0.27
  -9 -17  21    0.10    0.20
   7  17 -21    0.41    0.27
  -7 -17  21    0.05    0.19
   5  17 -21   -0.04    0.26
  -5 -17  21    0.08    0.20
   3  17 -21    0.12    0.23
  -3 -17  21    0.24    0.20
   1  17 -21    0.19    0.28
  -1 -17  21   -0.08    0.18
  -1  17 -21    0.10    0.25
   1 -17  21   -0.01    0.18
  -3  17 -21    0.13    0.24
  -5  17 -21    0.09    0.28
  -7  17 -21    0.05    0.30
  -9  17 -21   -0.14    0.28
 -11  17 -21   -0.02    0.31
 -13  17 -21    0.00    0.30
 -15  17 -21   -0.14    0.31
 -17 -15  21   -0.14    0.24
 -15 -15  21   -0.37    0.21
 -13 -15  21   -0.14    0.21
 -11 -15  21    0.46    0.27
   9  15 -21    0.54    0.33
  -9 -15  21    0.76    0.30
   7  15 -21    0.40    0.27
  -7 -15  21    0.04    0.23
   5  15 -21   -0.40    0.20
  -5 -15  21    0.03    0.19
   3  15 -21   -0.11    0.21
  -3 -15  21    0.15    0.20
   1  15 -21    0.25    0.28
  -1 -15  21    0.07    0.18
  -1  15 -21   -0.06    0.22
   1 -15  21    0.02    0.18
  -3  15 -21    0.13    0.24
   3 -15  21    0.30    0.19
  -5  15 -21   -0.14    0.20
  -7  15 -21    0.07    0.23
  -9  15 -21    0.53    0.31
 -11  15 -21    0.61    0.33
 -13  15 -21    0.14    0.29
 -15  15 -21   -0.35    0.31
 -19 -13  21    0.08    0.22
 -17 -13  21    0.03    0.16
 -15 -13  21    0.19    0.24
 -13 -13  21   -0.16    0.17
 -11 -13  21    0.12    0.21
  -9 -13  21   -0.26    0.13
   7  13 -21    0.95    0.32
  -7 -13  21    1.29    0.32
   5  13 -21   -0.16    0.20
  -5 -13  21    0.08    0.17
   3  13 -21   -0.08    0.21
  -3 -13  21    0.00    0.16
   1  13 -21    0.01    0.23
  -1 -13  21   -0.12    0.15
  -1  13 -21   -0.28    0.21
   1 -13  21    0.24    0.18
  -3  13 -21   -0.30    0.22
   3 -13  21   -0.13    0.15
  -5  13 -21    0.10    0.26
   5 -13  21    0.14    0.19
  -7  13 -21    0.72    0.33
  -9  13 -21   -0.31    0.22
 -11  13 -21    0.10    0.24
 -13  13 -21   -0.27    0.26
 -21 -11  21   -0.32    0.19
 -19 -11  21    0.03    0.19
 -17 -11  21    0.00    0.17
 -15 -11  21    0.24    0.22
 -13 -11  21   -0.14    0.15
 -11 -11  21   -0.08    0.19
  -9 -11  21    0.78    0.27
  -7 -11  21    1.48    0.33
   5  11 -21    0.24    0.23
  -5 -11  21    0.07    0.17
   3  11 -21    1.13    0.33
  -3 -11  21    1.08    0.27
   1  11 -21   -0.11    0.22
  -1 -11  21   -0.06    0.14
  -1  11 -21    0.33    0.24
   1 -11  21    0.46    0.22
  -3  11 -21    1.53    0.34
   3 -11  21    1.36    0.28
  -5  11 -21    0.08    0.21
   5 -11  21    0.25    0.20
  -7  11 -21    0.96    0.32
   7 -11  21    1.62    0.30
  -9  11 -21    1.51    0.35
 -11  11 -21   -0.09    0.24
 -13  11 -21   -0.04    0.24
 -17  11 -21    0.15    0.28
 -19  11 -21   -0.09    0.30
 -21  11 -21   -0.19    0.30
 -23  11 -21    0.13    0.34
 -21  -9  21    0.48    0.25
 -19  -9  21    0.57    0.28
 -17  -9  21    0.06    0.18
 -15  -9  21    0.26    0.18
 -13  -9  21    0.28    0.19
 -11  -9  21    0.46    0.23
  -9  -9  21    0.03    0.19
  -7  -9  21   -0.15    0.13
  -5  -9  21    0.20    0.19
   3   9 -21    0.33    0.27
  -3  -9  21   -0.05    0.14
   1   9 -21   -0.08    0.22
  -1  -9  21   -0.23    0.14
  -1   9 -21   -0.05    0.20
   1  -9  21   -0.04    0.16
  -3   9 -21    0.59    0.28
   3  -9  21    0.49    0.21
  -5   9 -21   -0.23    0.20
   5  -9  21   -0.08    0.15
  -7   9 -21    0.22    0.25
   7  -9  21   -0.15    0.15
  -9   9 -21   -0.20    0.22
   9  -9  21    0.13    0.18
 -11   9 -21    1.43    0.34
 -13   9 -21   -0.09    0.24
 -13   9 -21    0.19    0.22
 -15   9 -21    0.75    0.30
 -17   9 -21    0.11    0.25
 -19   9 -21   -0.02    0.26
 -21   9 -21    0.25    0.31
 -23   9 -21   -0.15    0.30
 -25   9 -21   -0.16    0.30
 -23  -7  21   -0.13    0.25
 -21  -7  21   -0.14    0.20
 -19  -7  21    0.54    0.26
 -17  -7  21    0.04    0.17
 -15  -7  21    0.19    0.19
 -13  -7  21    0.38    0.21
 -11  -7  21    1.09    0.29
  -9  -7  21   -0.08    0.14
  -7  -7  21   -0.06    0.14
  -5  -7  21    0.03    0.15
  -3  -7  21   -0.04    0.14
  -1  -7  21   -0.07    0.15
  -1   7 -21    0.04    0.22
   1  -7  21    0.12    0.16
  -3   7 -21   -0.07    0.19
   3  -7  21    0.16    0.17
  -5   7 -21    0.13    0.24
   5  -7  21   -0.04    0.13
  -7   7 -21   -0.32    0.18
   7  -7  21   -0.03    0.16
  -9   7 -21    0.08    0.20
  -9   7 -21   -0.12    0.21
  -9   7 -21    0.06    0.20
   9  -7  21   -0.12    0.16
 -11   7 -21    0.96    0.27
 -11   7 -21    1.64    0.37
 -11   7 -21    1.67    0.34
  11  -7  21    1.93    0.32
 -13   7 -21    1.04    0.32
 -15   7 -21    0.32    0.27
 -17   7 -21   -0.12    0.20
 -19   7 -21    0.24    0.28
 -21   7 -21    0.26    0.30
 -23   7 -21   -0.02    0.30
 -25   7 -21    0.47    0.33
 -25  -5  21    0.15    0.27
 -23  -5  21    0.21    0.26
 -21  -5  21    0.12    0.20
 -19  -5  21    0.08    0.19
 -17  -5  21   -0.08    0.17
 -15  -5  21   -0.05    0.18
 -13  -5  21   -0.11    0.13
 -11  -5  21   -0.09    0.16
  -9  -5  21   -0.13    0.11
  -7  -5  21    0.12    0.19
  -5  -5  21   -0.09    0.13
  -3  -5  21    0.01    0.15
  -1  -5  21   -0.07    0.15
   1  -5  21    0.07    0.16
   3  -5  21    0.03    0.17
  -5   5 -21   -0.17    0.19
   5  -5  21   -0.06    0.12
  -7   5 -21    0.12    0.23
   7  -5  21   -0.19    0.13
  -9   5 -21   -0.14    0.22
  -9   5 -21   -0.12    0.16
  -9   5 -21    0.19    0.21
   9  -5  21    0.06    0.17
 -11   5 -21   -0.01    0.19
 -11   5 -21    0.17    0.23
 -11   5 -21    0.12    0.21
  11  -5  21    0.12    0.19
 -13   5 -21   -0.34    0.19
  13  -5  21   -0.25    0.16
 -15   5 -21    0.08    0.22
 -17   5 -21    0.30    0.25
 -19   5 -21    0.18    0.26
 -21   5 -21    0.14    0.27
 -23   5 -21    0.21    0.31
 -25   5 -21    0.46    0.34
 -25  -3  21   -0.08    0.23
 -23  -3  21   -0.03    0.23
 -21  -3  21   -0.05    0.17
 -19  -3  21    0.20    0.23
 -17  -3  21   -0.08    0.17
 -15  -3  21    0.40    0.21
 -13  -3  21    0.07    0.17
 -11  -3  21    1.01    0.26
  -9  -3  21    0.55    0.20
  -7  -3  21    0.06    0.13
  -5  -3  21   -0.09    0.13
  -3  -3  21    0.03    0.14
  -1  -3  21    0.12    0.17
   1  -3  21    0.18    0.20
   3  -3  21   -0.07    0.12
   5  -3  21    0.00    0.17
  -7   3 -21   -0.23    0.16
   7  -3  21    0.25    0.18
  -9   3 -21   -0.08    0.17
   9  -3  21    0.29    0.21
 -11   3 -21    1.01    0.25
 -11   3 -21    0.79    0.28
  11  -3  21    1.10    0.28
 -13   3 -21    0.10    0.19
  13  -3  21    0.21    0.20
 -15   3 -21    0.82    0.30
  15  -3  21    0.53    0.24
 -17   3 -21    0.22    0.27
 -19   3 -21    0.44    0.27
 -21   3 -21   -0.03    0.24
 -23   3 -21    0.40    0.34
 -25   3 -21    0.08    0.31
 -25  -1  21    0.19    0.26
 -23  -1  21    0.08    0.23
 -21  -1  21    0.14    0.19
 -19  -1  21   -0.05    0.17
 -17  -1  21   -0.16    0.17
 -15  -1  21    0.05    0.17
 -13  -1  21    0.07    0.15
 -11  -1  21    0.32    0.19
  -9  -1  21   -0.04    0.13
  -7  -1  21    0.10    0.13
  -5  -1  21    0.07    0.15
  -3  -1  21    0.31    0.19
  -1  -1  21   -0.04    0.15
   1  -1  21   -0.10    0.12
   3  -1  21    0.25    0.19
  -5   1 -21    0.05    0.16
   5  -1  21   -0.13    0.14
  -7   1 -21    0.00    0.17
   7  -1  21    0.14    0.18
  -9   1 -21   -0.07    0.19
   9  -1  21    0.11    0.17
  11  -1  21    0.04    0.19
 -13   1 -21   -0.26    0.15
  13  -1  21   -0.25    0.15
 -15   1 -21   -0.04    0.21
  15  -1  21   -0.06    0.18
 -17   1 -21    0.00    0.22
  17  -1  21   -0.01    0.20
 -19   1 -21    0.08    0.25
 -21   1 -21    0.23    0.28
 -23   1 -21   -0.20    0.23
 -25   1 -21    0.09    0.29
 -23   1  21   -0.04    0.22
 -21   1  21    0.06    0.20
 -19   1  21   -0.12    0.18
 -17   1  21   -0.05    0.17
 -15   1  21   -0.19    0.17
 -13   1  21   -0.07    0.15
 -11   1  21    0.21    0.18
  -9   1  21    0.08    0.17
  -9   1  21   -0.05    0.12
  -7   1  21    0.13    0.13
  -7   1  21    0.05    0.17
  -5   1  21    0.05    0.14
  -3   1  21    0.22    0.18
  -1   1  21    0.17    0.16
   1   1  21   -0.05    0.14
   3   1  21    0.10    0.15
  -5  -1 -21    0.02    0.18
   5   1  21   -0.18    0.12
  -7  -1 -21    0.16    0.18
   7   1  21    0.29    0.19
  -9  -1 -21   -0.15    0.18
   9   1  21    0.04    0.14
  11   1  21    0.23    0.20
  13   1  21    0.06    0.18
 -15  -1 -21   -0.40    0.20
  15   1  21    0.23    0.20
 -17  -1 -21   -0.09    0.21
  17   1  21    0.00    0.19
 -19  -1 -21    0.18    0.27
  19   1  21    0.17    0.22
 -21  -1 -21   -0.19    0.24
 -23  -1 -21   -0.07    0.28
 -25  -1 -21    0.05    0.29
 -21   3  21    0.03    0.22
 -19   3  21    0.15    0.22
 -17   3  21    0.27    0.20
 -15   3  21    0.90    0.26
 -13   3  21   -0.01    0.19
 -13   3  21    0.15    0.18
 -11   3  21    0.49    0.21
 -11   3  21    1.74    0.31
  -9   3  21    0.14    0.18
  -9   3  21    0.23    0.18
  -7   3  21    0.12    0.16
  -7   3  21    0.11    0.16
  -5   3  21    0.11    0.15
  -3   3  21   -0.06    0.11
  -1   3  21    0.31    0.19
   1   3  21    0.59    0.20
  -3  -3 -21   -0.10    0.15
   3   3  21    0.30    0.19
  -5  -3 -21    0.02    0.18
   5   3  21   -0.06    0.15
  -7  -3 -21   -0.09    0.17
   7   3  21   -0.15    0.15
   9   3  21    0.14    0.15
  11   3  21    0.76    0.25
  13   3  21    0.15    0.18
  15   3  21    0.19    0.22
 -17  -3 -21    0.03    0.21
  17   3  21   -0.17    0.17
 -19  -3 -21    0.57    0.31
  19   3  21   -0.10    0.20
 -21  -3 -21   -0.17    0.23
  21   3  21   -0.05    0.23
 -23  -3 -21    0.02    0.28
 -25  -3 -21    0.40    0.33
 -19   5  21    0.10    0.20
 -17   5  21    0.16    0.25
 -17   5  21    0.26    0.21
 -15   5  21   -0.03    0.24
 -15   5  21   -0.11    0.17
 -13   5  21   -0.10    0.18
 -13   5  21   -0.06    0.15
 -11   5  21   -0.02    0.20
 -11   5  21   -0.03    0.15
  -9   5  21   -0.02    0.17
  -9   5  21    0.26    0.18
  -7   5  21    0.10    0.17
  -7   5  21   -0.14    0.17
  -5   5  21   -0.02    0.16
  -3   5  21    0.03    0.15
  -1   5  21    0.09    0.15
  -1  -5 -21    0.00    0.19
   1   5  21   -0.09    0.14
  -3  -5 -21   -0.14    0.15
   3   5  21    0.04    0.14
  -5  -5 -21   -0.24    0.15
   5   5  21   -0.06    0.12
   7   5  21    0.17    0.17
   9   5  21    0.14    0.16
  11   5  21    0.24    0.19
  13   5  21    0.19    0.20
  15   5  21    0.04    0.19
  17   5  21    0.23    0.21
  19   5  21    0.17    0.21
 -21  -5 -21   -0.14    0.27
  21   5  21    0.14    0.24
 -23  -5 -21   -0.25    0.27
  23   5  21   -0.08    0.26
 -25  -5 -21    0.27    0.31
 -21   7  21    0.27    0.31
 -19   7  21    0.39    0.31
 -17   7  21   -0.09    0.20
 -17   7  21    0.17    0.26
 -15   7  21    0.26    0.21
 -15   7  21    0.66    0.29
 -13   7  21    0.45    0.26
 -13   7  21    0.64    0.24
 -11   7  21    1.24    0.31
 -11   7  21    1.49    0.31
  -9   7  21   -0.01    0.18
  -9   7  21   -0.07    0.15
  -7   7  21    0.13    0.16
  -7   7  21    0.17    0.20
  -5   7  21   -0.03    0.19
  -5   7  21    0.11    0.17
  -3   7  21    0.08    0.15
   1  -7 -21    0.62    0.25
  -1   7  21   -0.13    0.14
  -1  -7 -21    0.06    0.18
   1   7  21    0.06    0.15
  -3  -7 -21    0.02    0.18
   3   7  21   -0.16    0.11
   5   7  21    0.16    0.18
   7   7  21   -0.19    0.15
   9   7  21   -0.01    0.17
  11   7  21    1.40    0.31
  13   7  21    0.37    0.21
  15   7  21    0.40    0.26
  17   7  21   -0.13    0.18
  19   7  21    0.21    0.24
  21   7  21    0.12    0.24
  23   7  21    0.00    0.24
 -25  -7 -21   -0.12    0.31
  25   7  21   -0.09    0.28
 -25   9  21   -0.16    0.35
 -23   9  21   -0.16    0.30
 -21   9  21   -0.21    0.27
 -19   9  21   -0.03    0.31
 -17   9  21    0.15    0.26
 -15   9  21    0.68    0.27
 -15   9  21    0.24    0.26
 -13   9  21    0.18    0.23
 -13   9  21    0.01    0.16
 -11   9  21    0.84    0.28
 -11   9  21    0.59    0.23
  -9   9  21   -0.03    0.17
  -9   9  21    0.03    0.19
  -7   9  21   -0.07    0.13
  -7   9  21   -0.12    0.18
   5  -9 -21    0.10    0.18
  -5   9  21    0.05    0.20
  -5   9  21   -0.09    0.13
   3  -9 -21    0.23    0.22
  -3   9  21    0.25    0.20
   1  -9 -21   -0.11    0.19
  -1   9  21   -0.15    0.09
  -1  -9 -21   -0.20    0.17
   1   9  21    0.18    0.16
   3   9  21    0.17    0.18
   5   9  21    0.05    0.15
   7   9  21   -0.05    0.13
   9   9  21    0.00    0.15
  11   9  21    1.49    0.34
  13   9  21   -0.02    0.17
  15   9  21    0.49    0.24
  17   9  21    0.03    0.21
  19   9  21    0.51    0.29
  21   9  21   -0.17    0.21
  23   9  21   -0.16    0.28
 -23  11  21   -0.14    0.31
 -21  11  21   -0.06    0.31
 -19  11  21    0.42    0.32
 -17  11  21    0.10    0.25
 -15  11  21    0.96    0.34
 -13  11  21    0.19    0.19
 -13  11  21    0.12    0.23
 -11  11  21    0.44    0.20
 -11  11  21   -0.10    0.20
  -9  11  21    0.54    0.26
  -9  11  21    1.06    0.28
   7 -11 -21    1.84    0.33
  -7  11  21    1.79    0.33
  -7  11  21    0.86    0.30
   5 -11 -21    0.05    0.20
  -5  11  21    0.32    0.19
  -5  11  21   -0.22    0.20
   3 -11 -21    0.56    0.24
  -3  11  21    1.11    0.27
   1 -11 -21    0.10    0.23
  -1  11  21    0.10    0.16
   1  11  21    0.15    0.17
   3  11  21    0.73    0.25
   5  11  21    0.05    0.14
   7  11  21    1.38    0.31
   9  11  21    0.95    0.28
  11  11  21   -0.11    0.18
  13  11  21    0.21    0.19
  15  11  21    0.01    0.25
  17  11  21    0.05    0.24
  19  11  21    0.12    0.27
  21  11  21   -0.02    0.30
 -23  13  21   -0.20    0.36
 -21  13  21   -0.06    0.31
 -19  13  21   -0.40    0.27
 -17  13  21    0.13    0.28
 -15  13  21   -0.08    0.25
 -13  13  21   -0.01    0.24
  11 -13 -21   -0.14    0.22
 -11  13  21   -0.21    0.15
 -11  13  21   -0.24    0.21
   9 -13 -21    0.33    0.24
  -9  13  21    0.01    0.23
  -9  13  21    0.08    0.17
   7 -13 -21    0.67    0.28
  -7  13  21    0.90    0.33
  -7  13  21    0.67    0.24
   5 -13 -21   -0.02    0.19
  -5  13  21    0.09    0.18
  -5  13  21   -0.17    0.19
   3 -13 -21   -0.12    0.22
  -3  13  21    0.07    0.18
  -1  13  21    0.06    0.16
   1  13  21    0.06    0.17
   3  13  21    0.19    0.19
   5  13  21   -0.03    0.15
   7  13  21    0.57    0.24
   9  13  21   -0.01    0.17
  11  13  21   -0.05    0.17
  13  13  21   -0.15    0.18
  15  13  21   -0.06    0.20
  17  13  21    0.13    0.24
  19  13  21    0.18    0.24
 -21  15  21   -0.10    0.33
 -19  15  21   -0.34    0.29
 -17  15  21   -0.19    0.24
 -15  15  21    0.16    0.29
 -13  15  21    0.00    0.24
 -11  15  21    0.96    0.36
   9 -15 -21    0.11    0.25
  -9  15  21    0.99    0.29
  -9  15  21    0.39    0.29
   7 -15 -21    0.25    0.23
  -7  15  21    0.42    0.30
  -7  15  21    0.67    0.26
  -5  15  21    0.10    0.22
  -5  15  21    0.47    0.29
  -3  15  21    0.26    0.27
  -3  15  21    0.40    0.22
  -1  15  21   -0.11    0.18
   1  15  21    0.17    0.19
   3  15  21    0.52    0.26
   5  15  21    0.00    0.19
   7  15  21    0.35    0.22
   9  15  21    0.45    0.21
  11  15  21    0.37    0.22
  13  15  21    0.04    0.20
  15  15  21    0.15    0.23
  17  15  21    0.02    0.23
 -19  17  21    0.10    0.36
 -17  17  21   -0.11    0.28
 -15  17  21   -0.21    0.25
 -13  17  21   -0.06    0.26
 -11  17  21   -0.12    0.25
  -9  17  21   -0.08    0.25
  -7  17  21    0.07    0.25
  -7  17  21    0.11    0.20
  -5  17  21    0.78    0.32
  -5  17  21    0.41    0.21
  -3  17  21    0.32    0.22
  -3  17  21   -0.02    0.22
  -1  17  21   -0.03    0.18
   1  17  21   -0.21    0.14
   3  17  21   -0.04    0.16
   5  17  21    0.10    0.23
   7  17  21    0.09    0.22
   9  17  21    0.28    0.21
  11  17  21   -0.23    0.16
  13  17  21    0.03    0.20
  15  17  21    0.05    0.22
 -19  19  21    0.02    0.39
 -17  19  21   -0.04    0.30
 -15  19  21   -0.16    0.26
 -13  19  21   -0.16    0.25
 -11  19  21   -0.10    0.26
  -9  19  21    0.24    0.28
  -7  19  21   -0.11    0.25
  -5  19  21   -0.15    0.24
  -5  19  21    0.04    0.22
  -3  19  21    0.25    0.28
  -3  19  21    0.33    0.23
  -1  19  21    0.03    0.19
   1  19  21    0.27    0.23
   3  19  21    0.34    0.21
   5  19  21    0.09    0.21
   7  19  21   -0.10    0.23
   9  19  21    0.48    0.24
  11  19  21    0.24    0.24
  13  19  21   -0.05    0.17
 -15  21  21    0.33    0.37
 -13  21  21   -0.18    0.27
 -11  21  21    0.34    0.32
  -9  21  21   -0.18    0.28
  -7  21  21    0.01    0.28
  -5  21  21    0.12    0.24
  -3  21  21    0.12    0.19
  -1  21  21   -0.07    0.24
  -1  21  21   -0.05    0.21
   1  21  21   -0.14    0.21
   3  21  21   -0.13    0.20
   5  21  21   -0.22    0.20
   7  21  21   -0.07    0.22
   9  21  21    0.22    0.23
  11  21  21   -0.20    0.22
 -13  23  21    0.23    0.36
 -11  23  21    0.10    0.32
  -9  23  21   -0.20    0.23
  -7  23  21    0.05    0.22
  -5  23  21    0.18    0.26
  -3  23  21   -0.06    0.23
  -1  23  21    0.18    0.26
   1  23  21   -0.24    0.21
   1  23  21   -0.43    0.20
   3  23  21   -0.14    0.22
   5  23  21    0.18    0.25
   7  23  21   -0.05    0.22
   9  23  21    0.04    0.23
  -9  25  21    0.14    0.29
  -7  25  21    0.20    0.27
  -5  25  21    0.16    0.29
  -3  25  21   -0.06    0.22
  -1  25  21   -0.03    0.26
   1  25  21    0.08    0.29
   3  25  21   -0.09    0.24
   5  25  21    0.04    0.25
   2  26 -22    3.69    0.64
   0  26 -22    0.13    0.35
  -2  26 -22    4.71    0.70
  10  24 -22    1.39    0.47
   8  24 -22   -0.08    0.29
  -8 -24  22    0.42    0.33
   6  24 -22    0.00    0.31
   4  24 -22    0.26    0.32
   2  24 -22    0.52    0.35
   0  24 -22   -0.22    0.28
  -2  24 -22   -0.21    0.30
  -4  24 -22   -0.16    0.38
  -6  24 -22   -0.52    0.32
  -8  24 -22    0.03    0.38
 -10  24 -22    0.12    0.40
  12  22 -22    0.35    0.37
  10  22 -22    7.00    0.76
 -10 -22  22    6.13    0.66
   8  22 -22    3.05    0.55
  -8 -22  22    3.11    0.51
   6  22 -22    8.08    0.77
  -6 -22  22    8.89    0.72
   4  22 -22    2.54    0.51
   2  22 -22    6.68    0.72
   0  22 -22    5.50    0.66
  -2  22 -22    5.04    0.68
  -4  22 -22    3.38    0.57
  -6  22 -22    9.64    0.85
  -8  22 -22    2.77    0.58
 -10  22 -22    5.82    0.73
 -12  22 -22    0.46    0.44
 -14  22 -22    3.85    0.65
 -12 -20  22    0.29    0.32
  10  20 -22    0.32    0.33
 -10 -20  22   -0.04    0.24
   8  20 -22    0.00    0.29
  -8 -20  22    0.17    0.24
   6  20 -22   -0.28    0.27
  -6 -20  22    0.20    0.23
   4  20 -22    0.41    0.32
  -4 -20  22   -0.15    0.20
   2  20 -22    0.13    0.25
   0  20 -22    0.30    0.31
  -2  20 -22   -0.44    0.26
  -4  20 -22    0.03    0.31
  -6  20 -22   -0.37    0.27
  -8  20 -22    0.27    0.35
 -10  20 -22    0.11    0.31
 -12  20 -22    0.23    0.41
 -14  20 -22    0.36    0.38
 -16  20 -22    0.13    0.38
 -14 -18  22    4.65    0.59
 -12 -18  22    0.89    0.35
  10  18 -22    5.56    0.66
 -10 -18  22    4.98    0.57
   8  18 -22    0.27    0.28
  -8 -18  22    0.25    0.22
   6  18 -22    7.12    0.71
  -6 -18  22    7.68    0.63
   4  18 -22    1.62    0.42
  -4 -18  22    1.28    0.32
   2  18 -22    4.35    0.57
  -2 -18  22    5.23    0.52
   0  18 -22    0.08    0.26
   0 -18  22    0.31    0.21
  -2  18 -22    5.57    0.61
  -4  18 -22    1.04    0.38
  -6  18 -22    8.46    0.76
  -8  18 -22    0.51    0.34
 -10  18 -22    4.40    0.59
 -12  18 -22    1.11    0.44
 -14  18 -22    2.49    0.52
 -16  18 -22   -0.07    0.35
 -16 -16  22   -0.09    0.26
 -14 -16  22    0.44    0.27
 -12 -16  22    0.20    0.23
 -10 -16  22    0.08    0.22
   8  16 -22    0.30    0.29
  -8 -16  22    0.01    0.20
   6  16 -22    1.14    0.37
  -6 -16  22    0.65    0.25
   4  16 -22    0.17    0.22
  -4 -16  22   -0.07    0.19
   2  16 -22    0.00    0.24
  -2 -16  22    0.39    0.23
   0  16 -22    0.11    0.27
   0 -16  22   -0.18    0.19
  -2  16 -22    0.35    0.29
   2 -16  22    0.36    0.22
  -4  16 -22    0.32    0.28
  -6  16 -22    0.60    0.33
  -8  16 -22    0.10    0.30
 -10  16 -22    0.38    0.34
 -12  16 -22   -0.35    0.29
 -14  16 -22    1.00    0.38
 -18 -14  22    3.83    0.54
 -16 -14  22    0.46    0.31
 -14 -14  22    6.13    0.62
 -12 -14  22    0.18    0.22
 -10 -14  22    7.81    0.64
  -8 -14  22    1.55    0.35
   6  14 -22   10.17    0.75
  -6 -14  22    9.83    0.68
   4  14 -22    0.26    0.26
  -4 -14  22    0.24    0.20
   2  14 -22    9.73    0.75
  -2 -14  22    9.27    0.62
   0  14 -22    0.69    0.31
   0 -14  22    1.82    0.34
  -2  14 -22    8.71    0.69
   2 -14  22    8.80    0.60
  -4  14 -22   -0.09    0.23
   4 -14  22    0.22    0.21
  -6  14 -22    9.82    0.73
  -8  14 -22    1.55    0.39
 -10  14 -22    8.04    0.68
 -12  14 -22    0.18    0.30
 -14  14 -22    5.49    0.60
 -18 -12  22    0.82    0.30
 -16 -12  22    0.19    0.18
 -14 -12  22    0.19    0.23
 -12 -12  22    0.13    0.21
 -10 -12  22    0.40    0.23
  -8 -12  22   -0.13    0.18
   6  12 -22   -0.15    0.21
  -6 -12  22    0.03    0.17
   4  12 -22   -0.06    0.25
  -4 -12  22   -0.02    0.19
   2  12 -22    0.10    0.27
  -2 -12  22    0.17    0.18
   0  12 -22    0.33    0.25
   0 -12  22   -0.09    0.16
  -2  12 -22    0.25    0.25
   2 -12  22    0.08    0.19
  -4  12 -22    0.27    0.25
   4 -12  22    0.12    0.18
  -6  12 -22   -0.15    0.24
   6 -12  22    0.14    0.18
  -8  12 -22    0.03    0.25
 -10  12 -22    0.62    0.30
 -12  12 -22   -0.23    0.25
 -20 -10  22    0.65    0.31
 -18 -10  22    6.07    0.61
 -16 -10  22    0.30    0.23
 -14 -10  22    7.82    0.64
 -12 -10  22    0.64    0.26
 -10 -10  22   11.62    0.74
  -8 -10  22    0.22    0.18
  -6 -10  22   17.30    0.87
  -4 -10  22    3.78    0.44
   2  10 -22   15.17    0.87
  -2 -10  22   14.10    0.75
   0  10 -22    0.41    0.26
   0 -10  22    0.39    0.21
  -2  10 -22   14.24    0.84
   2 -10  22   14.29    0.75
  -4  10 -22    3.11    0.44
   4 -10  22    3.18    0.39
  -6  10 -22   17.23    0.91
   6 -10  22   18.30    0.83
  -8  10 -22    0.22    0.28
   8 -10  22    0.05    0.19
 -10  10 -22   12.35    0.76
 -12  10 -22    0.31    0.28
 -18  10 -22    5.83    0.61
 -20  10 -22   -0.07    0.30
 -22  10 -22    6.17    0.68
 -24  10 -22    0.15    0.36
 -22  -8  22    2.27    0.45
 -20  -8  22    0.45    0.25
 -18  -8  22    0.24    0.23
 -16  -8  22   -0.10    0.15
 -14  -8  22    1.15    0.31
 -12  -8  22   -0.08    0.14
 -10  -8  22   -0.04    0.16
  -8  -8  22    0.47    0.27
  -6  -8  22    2.14    0.36
  -4  -8  22   -0.15    0.15
  -2  -8  22    0.53    0.23
   0   8 -22   -0.08    0.20
   0  -8  22    0.23    0.17
  -2   8 -22    0.28    0.25
   2  -8  22    0.93    0.26
  -4   8 -22    0.36    0.24
   4  -8  22    0.06    0.16
  -6   8 -22    2.17    0.39
   6  -8  22    1.33    0.31
  -8   8 -22    0.43    0.27
   8  -8  22    0.26    0.20
 -10   8 -22    0.10    0.22
 -10   8 -22    0.32    0.27
  10  -8  22    0.16    0.20
 -12   8 -22    0.26    0.28
 -12   8 -22    0.20    0.23
 -14   8 -22    0.99    0.33
 -16   8 -22    0.11    0.25
 -18   8 -22    0.41    0.31
 -20   8 -22    0.65    0.32
 -22   8 -22    2.60    0.50
 -24   8 -22    0.07    0.34
 -22  -6  22    8.38    0.73
 -20  -6  22    0.44    0.26
 -18  -6  22    7.28    0.63
 -16  -6  22    1.23    0.35
 -14  -6  22    9.68    0.68
 -12  -6  22    0.20    0.20
 -10  -6  22   16.71    0.86
  -8  -6  22    1.86    0.35
  -6  -6  22   22.10    0.96
  -4  -6  22    0.31    0.19
  -2  -6  22   17.92    0.85
   0  -6  22    1.98    0.32
   2  -6  22   17.09    0.82
  -4   6 -22    0.43    0.26
   4  -6  22    0.20    0.19
  -6   6 -22   20.69    0.95
   6  -6  22   21.66    0.91
  -8   6 -22    1.81    0.32
  -8   6 -22    1.69    0.37
   8  -6  22    1.53    0.31
 -10   6 -22   17.60    0.87
 -10   6 -22   17.23    0.81
 -10   6 -22   17.03    0.82
  10  -6  22   18.61    0.83
 -12   6 -22    0.15    0.23
 -12   6 -22   -0.20    0.18
  12  -6  22    0.12    0.18
 -14   6 -22   12.98    0.79
 -16   6 -22    1.06    0.33
 -18   6 -22    7.16    0.65
 -20   6 -22    0.68    0.32
 -22   6 -22    9.50    0.80
 -24   6 -22   -0.27    0.29
 -24  -4  22    0.17    0.25
 -22  -4  22    1.94    0.40
 -20  -4  22    0.05    0.18
 -18  -4  22    1.66    0.36
 -16  -4  22   -0.07    0.18
 -14  -4  22    0.34    0.20
 -12  -4  22   -0.10    0.16
 -10  -4  22    3.57    0.43
  -8  -4  22    0.01    0.14
  -6  -4  22    0.20    0.17
  -4  -4  22   -0.08    0.18
  -2  -4  22    0.17    0.18
   0  -4  22    0.08    0.18
   2  -4  22    0.08    0.19
   4  -4  22    0.19    0.18
   6  -4  22    0.49    0.20
  -8   4 -22    0.18    0.19
   8  -4  22    0.17    0.18
 -10   4 -22    2.74    0.41
 -10   4 -22    3.26    0.40
  10  -4  22    3.62    0.41
 -12   4 -22   -0.17    0.20
  12  -4  22   -0.01    0.18
 -14   4 -22    0.28    0.23
  14  -4  22    0.03    0.17
 -16   4 -22    0.26    0.24
 -18   4 -22    0.85    0.31
 -20   4 -22    0.30    0.28
 -22   4 -22    2.48    0.51
 -24   4 -22    0.48    0.34
 -24  -2  22    0.29    0.25
 -22  -2  22    5.98    0.60
 -20  -2  22    0.01    0.19
 -18  -2  22    5.93    0.57
 -16  -2  22    0.20    0.20
 -14  -2  22   10.14    0.68
 -12  -2  22   -0.03    0.18
 -10  -2  22   14.23    0.78
  -8  -2  22    0.89    0.26
  -6  -2  22   16.46    0.81
  -4  -2  22   -0.03    0.16
  -2  -2  22   19.52    0.88
   0  -2  22    4.96    0.46
   2  -2  22   19.13    0.85
   4  -2  22   -0.03    0.16
  -6   2 -22   15.40    0.77
   6  -2  22   16.93    0.80
  -8   2 -22    0.59    0.25
   8  -2  22    0.90    0.27
 -10   2 -22   13.77    0.75
  10  -2  22   15.07    0.76
  12  -2  22    0.06    0.18
 -14   2 -22    9.62    0.67
  14  -2  22    9.38    0.64
 -16   2 -22    0.19    0.24
  16  -2  22    0.41    0.24
 -18   2 -22    5.70    0.61
 -20   2 -22    0.13    0.27
 -22   2 -22    5.43    0.65
 -24   2 -22    0.25    0.34
 -26   2 -22    5.69    0.71
 -24   0  22    0.28    0.26
 -22   0  22    6.95    0.64
 -20   0  22    0.34    0.22
 -18   0  22    0.01    0.20
 -16   0  22    0.10    0.20
 -14   0  22    1.80    0.35
 -12   0  22   -0.17    0.15
 -10   0  22   -0.10    0.15
  -8   0  22    0.29    0.17
  -6   0  22    1.64    0.30
  -4   0  22    0.08    0.15
  -2   0  22    4.92    0.46
   0   0  22   -0.03    0.15
   2   0  22    4.80    0.45
   4   0  22   -0.01    0.16
  -6   0 -22    2.14    0.35
   6   0  22    2.42    0.35
  -8   0 -22    0.06    0.18
   8   0  22    0.12    0.18
  10   0  22    0.18    0.19
  12   0  22    0.00    0.17
 -14   0 -22    1.81    0.38
  14   0  22    1.12    0.31
 -16   0 -22    0.15    0.25
  16   0  22    0.07    0.21
 -18   0 -22    0.16    0.23
  18   0  22   -0.01    0.23
 -20   0 -22    0.04    0.26
 -22   0 -22    5.78    0.67
 -24   0 -22    0.17    0.29
 -26   0 -22    1.23    0.42
 -22   2  22    6.59    0.62
 -20   2  22    0.07    0.21
 -18   2  22    6.13    0.57
 -16   2  22    0.23    0.22
 -14   2  22    8.78    0.62
 -12   2  22    0.17    0.18
 -10   2  22   15.06    0.79
 -10   2  22   12.23    0.68
  -8   2  22    0.86    0.25
  -8   2  22    1.34    0.29
  -6   2  22   14.81    0.75
  -6   2  22   17.71    0.83
  -4   2  22   -0.17    0.10
  -2   2  22   21.59    0.91
   0   2  22    4.43    0.44
   2   2  22   17.74    0.82
  -4  -2 -22    0.19    0.18
   4   2  22    0.17    0.16
  -6  -2 -22   17.82    0.83
   6   2  22   15.03    0.76
  -8  -2 -22    0.93    0.27
   8   2  22    1.18    0.28
  10   2  22   13.89    0.75
  12   2  22    0.31    0.23
  14   2  22    8.64    0.62
  16   2  22    0.15    0.21
 -18  -2 -22    4.60    0.58
  18   2  22    5.90    0.56
 -20  -2 -22    0.40    0.31
  20   2  22    0.12    0.22
 -22  -2 -22    5.62    0.66
 -24  -2 -22    0.29    0.33
 -26  -2 -22    4.50    0.68
 -20   4  22    0.01    0.23
 -18   4  22    1.12    0.32
 -16   4  22   -0.24    0.15
 -14   4  22    0.03    0.17
 -14   4  22   -0.13    0.20
 -12   4  22    0.04    0.20
 -12   4  22    0.32    0.19
 -10   4  22    3.78    0.43
 -10   4  22    3.23    0.40
  -8   4  22   -0.10    0.12
  -8   4  22    0.09    0.18
  -6   4  22    0.70    0.27
  -6   4  22    0.30    0.18
  -4   4  22   -0.14    0.14
  -2   4  22   -0.06    0.14
   0   4  22    0.03    0.14
  -2  -4 -22    0.00    0.16
   2   4  22   -0.13    0.15
  -4  -4 -22   -0.07    0.16
   4   4  22    0.21    0.19
  -6  -4 -22    0.36    0.23
   6   4  22    0.35    0.20
   8   4  22    0.16    0.17
  10   4  22    2.58    0.38
  12   4  22   -0.25    0.17
  14   4  22   -0.05    0.18
  16   4  22    0.42    0.23
  18   4  22    1.24    0.32
 -20  -4 -22    0.29    0.27
  20   4  22    0.15    0.24
 -22  -4 -22    1.45    0.41
  22   4  22    1.80    0.41
 -24  -4 -22    0.47    0.32
 -18   6  22    6.17    0.57
 -18   6  22    6.66    0.64
 -16   6  22    1.05    0.28
 -16   6  22    0.69    0.31
 -14   6  22    9.91    0.69
 -14   6  22   10.08    0.66
 -12   6  22    0.07    0.18
 -12   6  22    0.11    0.23
 -10   6  22   17.20    0.86
 -10   6  22   17.32    0.84
  -8   6  22    2.66    0.38
  -8   6  22    1.83    0.36
  -6   6  22   19.49    0.93
  -6   6  22   21.95    0.94
  -4   6  22    0.57    0.20
  -2   6  22   16.30    0.80
   0  -6 -22    1.83    0.34
   0   6  22    1.68    0.32
  -2  -6 -22   15.54    0.80
   2   6  22   16.98    0.81
  -4  -6 -22    0.63    0.24
   4   6  22    0.53    0.23
   6   6  22   20.98    0.93
   8   6  22    1.46    0.31
  10   6  22   15.72    0.82
  12   6  22    0.00    0.16
  14   6  22    9.92    0.69
  16   6  22    1.06    0.33
  18   6  22    6.81    0.62
  20   6  22   -0.22    0.22
  22   6  22    9.45    0.75
  24   6  22    0.19    0.33
 -22   8  22    3.66    0.57
 -20   8  22   -0.21    0.26
 -18   8  22    0.06    0.27
 -16   8  22   -0.10    0.23
 -16   8  22    0.20    0.22
 -14   8  22    1.20    0.31
 -14   8  22    1.04    0.34
 -12   8  22    0.02    0.22
 -12   8  22    0.09    0.19
 -10   8  22   -0.04    0.13
 -10   8  22    0.06    0.23
  -8   8  22    0.13    0.22
  -8   8  22   -0.09    0.16
  -6   8  22    2.23    0.38
  -6   8  22    1.93    0.34
   4  -8 -22    0.33    0.23
  -4   8  22   -0.02    0.13
   2  -8 -22    0.98    0.29
  -2   8  22    0.83    0.26
   0  -8 -22   -0.13    0.18
   0   8  22    0.10    0.16
  -2  -8 -22    0.84    0.27
   2   8  22    0.49    0.21
   4   8  22   -0.12    0.13
   6   8  22    2.04    0.35
   8   8  22    0.21    0.20
  10   8  22    0.22    0.20
  12   8  22    0.20    0.21
  14   8  22    1.05    0.33
  16   8  22   -0.07    0.22
  18   8  22    0.02    0.22
  20   8  22    0.06    0.25
  22   8  22    1.97    0.44
 -24  10  22    0.10    0.36
 -22  10  22    6.36    0.71
 -20  10  22    0.00    0.32
 -18  10  22    6.48    0.68
 -16  10  22    0.34    0.29
 -14  10  22    8.25    0.68
 -14  10  22    6.39    0.56
 -12  10  22    0.47    0.22
 -12  10  22    0.40    0.26
 -10  10  22   10.94    0.68
 -10  10  22   10.67    0.74
  -8  10  22    0.13    0.23
  -8  10  22    0.25    0.18
   6 -10 -22   18.41    0.88
  -6  10  22   17.43    0.91
  -6  10  22   17.13    0.84
   4 -10 -22    3.08    0.41
  -4  10  22    2.63    0.37
   2 -10 -22   13.64    0.75
  -2  10  22   14.74    0.78
   0 -10 -22   -0.03    0.21
   0  10  22    0.36    0.19
   2  10  22   14.06    0.78
   4  10  22    3.21    0.41
   6  10  22   17.87    0.89
   8  10  22    0.15    0.17
  10  10  22   11.54    0.75
  12  10  22    0.35    0.22
  14  10  22    7.48    0.65
  16  10  22    0.54    0.26
  18  10  22    3.82    0.52
  20  10  22   -0.14    0.27
 -22  12  22    0.12    0.35
 -20  12  22    0.36    0.33
 -18  12  22    0.32    0.33
 -16  12  22   -0.08    0.25
 -14  12  22    0.10    0.27
 -12  12  22   -0.13    0.19
 -12  12  22   -0.06    0.22
  10 -12 -22    0.38    0.25
 -10  12  22    0.39    0.21
 -10  12  22    0.34    0.27
   8 -12 -22    0.03    0.21
  -8  12  22    0.29    0.27
  -8  12  22    0.03    0.18
   6 -12 -22    0.40    0.24
  -6  12  22    0.17    0.22
  -6  12  22   -0.01    0.16
   4 -12 -22    0.06    0.18
  -4  12  22    0.04    0.17
  -4  12  22    0.13    0.19
   2 -12 -22   -0.02    0.22
  -2  12  22    0.32    0.20
   0  12  22    0.09    0.18
   2  12  22   -0.15    0.13
   4  12  22    0.18    0.19
   6  12  22   -0.10    0.14
   8  12  22    0.02    0.14
  10  12  22    0.28    0.25
  12  12  22    0.01    0.22
  14  12  22    0.17    0.23
  16  12  22   -0.02    0.21
  18  12  22    0.44    0.29
  20  12  22    0.18    0.29
 -22  14  22    4.43    0.67
 -20  14  22   -0.05    0.30
 -18  14  22    4.12    0.61
 -16  14  22    0.37    0.29
 -14  14  22    4.96    0.61
 -12  14  22    0.24    0.27
  10 -14 -22    6.29    0.56
 -10  14  22    6.62    0.57
 -10  14  22    6.97    0.66
   8 -14 -22    1.89    0.37
  -8  14  22    1.45    0.32
  -8  14  22    1.22    0.35
   6 -14 -22    9.77    0.67
  -6  14  22    9.65    0.65
  -6  14  22    8.56    0.71
  -4  14  22    0.10    0.20
  -4  14  22    0.12    0.26
  -2  14  22   10.07    0.67
   0  14  22    1.78    0.36
   2  14  22    9.01    0.66
   4  14  22    0.38    0.24
   6  14  22   10.34    0.69
   8  14  22    0.65    0.24
  10  14  22    6.86    0.61
  12  14  22   -0.05    0.19
  14  14  22    5.53    0.60
  16  14  22    1.02    0.36
  18  14  22    4.24    0.57
 -20  16  22    0.13    0.35
 -18  16  22    0.19    0.34
 -16  16  22    0.36    0.35
 -14  16  22    0.36    0.28
 -12  16  22    0.07    0.30
 -10  16  22    0.36    0.28
  -8  16  22    0.12    0.25
  -8  16  22   -0.16    0.19
  -6  16  22    0.45    0.31
  -6  16  22    0.08    0.23
  -4  16  22    0.42    0.23
  -4  16  22    0.23    0.26
  -2  16  22    0.42    0.24
   0  16  22   -0.22    0.14
   2  16  22    0.20    0.19
   4  16  22   -0.10    0.16
   6  16  22    0.25    0.22
   8  16  22   -0.10    0.16
  10  16  22    0.19    0.22
  12  16  22    0.21    0.22
  14  16  22    0.80    0.33
  16  16  22    0.02    0.27
 -18  18  22    3.74    0.64
 -16  18  22    0.08    0.31
 -14  18  22    2.80    0.52
 -12  18  22    0.38    0.32
 -10  18  22    4.26    0.59
  -8  18  22    0.07    0.27
  -6  18  22    7.45    0.71
  -6  18  22    6.27    0.59
  -4  18  22    1.08    0.36
  -4  18  22    1.19    0.31
  -2  18  22    4.24    0.50
  -2  18  22    4.01    0.56
   0  18  22    0.44    0.23
   2  18  22    4.03    0.50
   4  18  22    1.34    0.35
   6  18  22    6.36    0.62
   8  18  22   -0.01    0.19
  10  18  22    5.48    0.59
  12  18  22    0.95    0.32
  14  18  22    4.06    0.55
 -16  20  22    0.07    0.33
 -14  20  22    0.20    0.33
 -12  20  22    0.04    0.34
 -10  20  22   -0.41    0.25
  -8  20  22    0.09    0.29
  -6  20  22   -0.16    0.24
  -4  20  22    0.68    0.35
  -2  20  22    0.01    0.22
  -2  20  22    0.19    0.28
   0  20  22    0.08    0.24
   2  20  22    0.39    0.27
   4  20  22    0.10    0.21
   6  20  22    0.09    0.22
   8  20  22   -0.08    0.23
  10  20  22    0.00    0.21
 -14  22  22    4.06    0.66
 -12  22  22    0.27    0.38
 -10  22  22    4.05    0.62
  -8  22  22    2.41    0.52
  -6  22  22    8.96    0.81
  -4  22  22    1.88    0.46
  -2  22  22    6.69    0.72
   0  22  22    5.87    0.69
   0  22  22    6.39    0.63
   2  22  22    4.96    0.57
   4  22  22    2.19    0.43
   6  22  22   10.49    0.81
   8  22  22    2.35    0.48
 -10  24  22    0.20    0.31
  -8  24  22   -0.30    0.25
  -6  24  22    0.04    0.30
  -4  24  22   -0.08    0.26
  -2  24  22    0.03    0.26
   0  24  22   -0.53    0.19
   2  24  22    0.10    0.27
   2  24  22    0.15    0.29
   4  24  22    0.02    0.23
  -2  26  22    3.56    0.61
   0  26  22    0.48    0.36
   2  26  22    4.48    0.67
   3  25 -23   -0.39    0.30
   1  25 -23    0.42    0.38
  -1  25 -23   -0.29    0.35
  -3  25 -23   -0.30    0.34
   9  23 -23    0.34    0.36
   7  23 -23    0.23    0.35
  -7 -23  23    0.23    0.32
   5  23 -23    0.26    0.36
   3  23 -23   -0.10    0.25
   1  23 -23    0.08    0.32
  -1  23 -23    0.01    0.31
  -3  23 -23    0.06    0.38
  -5  23 -23   -0.34    0.37
  -7  23 -23    0.14    0.40
  -9  23 -23   -0.04    0.38
  11  21 -23   -0.18    0.35
   9  21 -23   -0.01    0.28
  -9 -21  23   -0.48    0.23
   7  21 -23   -0.24    0.33
  -7 -21  23    0.02    0.26
   5  21 -23    0.17    0.31
  -5 -21  23   -0.21    0.23
   3  21 -23    0.02    0.28
   1  21 -23    0.26    0.30
  -1  21 -23    0.17    0.37
  -3  21 -23    0.31    0.36
  -5  21 -23   -0.18    0.31
  -7  21 -23   -0.21    0.35
  -9  21 -23   -0.25    0.32
 -11  21 -23    0.26    0.38
 -13  21 -23   -0.13    0.37
 -11 -19  23   -0.08    0.29
   9  19 -23    0.18    0.28
  -9 -19  23    0.08    0.24
   7  19 -23    0.24    0.31
  -7 -19  23    0.05    0.25
   5  19 -23    0.23    0.31
  -5 -19  23    0.07    0.21
   3  19 -23    0.14    0.27
  -3 -19  23    0.02    0.23
   1  19 -23    0.35    0.31
  -1  19 -23    0.37    0.32
  -3  19 -23   -0.14    0.30
  -5  19 -23   -0.19    0.31
  -7  19 -23    0.19    0.35
  -9  19 -23    0.31    0.36
 -11  19 -23    0.38    0.40
 -13  19 -23    0.33    0.39
 -15  19 -23   -0.01    0.37
 -13 -17  23    0.06    0.30
 -11 -17  23    0.51    0.28
   9  17 -23   -0.13    0.28
  -9 -17  23    0.09    0.23
   7  17 -23    0.10    0.27
  -7 -17  23    0.11    0.18
   5  17 -23   -0.13    0.25
  -5 -17  23   -0.10    0.20
   3  17 -23    0.29    0.28
  -3 -17  23    0.60    0.29
   1  17 -23   -0.01    0.28
  -1 -17  23    0.47    0.27
  -1  17 -23    0.10    0.31
  -3  17 -23    0.09    0.29
  -5  17 -23    0.03    0.29
  -7  17 -23   -0.19    0.27
  -9  17 -23    0.00    0.26
 -11  17 -23    0.11    0.34
 -13  17 -23    0.09    0.36
 -15  17 -23    0.06    0.37
 -15 -15  23   -0.03    0.25
 -13 -15  23    0.18    0.23
 -11 -15  23   -0.03    0.21
  -9 -15  23   -0.05    0.20
   7  15 -23    0.20    0.28
  -7 -15  23    0.01    0.21
   5  15 -23    0.48    0.27
  -5 -15  23    0.30    0.23
   3  15 -23   -0.17    0.24
  -3 -15  23   -0.09    0.17
   1  15 -23   -0.11    0.28
  -1 -15  23    0.10    0.19
  -1  15 -23   -0.08    0.23
   1 -15  23    0.02    0.21
  -3  15 -23   -0.03    0.28
   3 -15  23    0.09    0.20
  -5  15 -23    0.41    0.29
  -7  15 -23    0.06    0.29
  -9  15 -23    0.16    0.30
 -11  15 -23    0.17    0.32
 -13  15 -23    0.25    0.33
 -17 -13  23    0.19    0.27
 -15 -13  23   -0.11    0.23
 -13 -13  23    0.04    0.24
 -11 -13  23    0.43    0.25
  -9 -13  23    0.37    0.25
  -7 -13  23    0.06    0.21
   5  13 -23    0.18    0.25
  -5 -13  23    0.46    0.27
   3  13 -23    0.49    0.33
  -3 -13  23    0.55    0.24
   1  13 -23    0.12    0.26
  -1 -13  23    0.05    0.18
  -1  13 -23   -0.38    0.26
   1 -13  23   -0.08    0.17
  -3  13 -23    0.63    0.31
   3 -13  23    0.29    0.22
  -5  13 -23    0.15    0.30
   5 -13  23    0.16    0.18
  -7  13 -23    0.24    0.29
  -9  13 -23   -0.01    0.29
 -11  13 -23    0.08    0.29
 -13  13 -23    0.01    0.28
 -19 -11  23   -0.18    0.18
 -17 -11  23    0.39    0.23
 -15 -11  23   -0.07    0.18
 -13 -11  23    0.15    0.23
 -11 -11  23   -0.12    0.19
  -9 -11  23   -0.14    0.16
  -7 -11  23    0.08    0.18
  -5 -11  23    0.36    0.25
   3  11 -23    0.28    0.28
  -3 -11  23    0.05    0.19
   1  11 -23    0.39    0.29
  -1 -11  23   -0.09    0.18
  -1  11 -23   -0.26    0.22
   1 -11  23   -0.07    0.15
  -3  11 -23    0.14    0.26
   3 -11  23   -0.07    0.14
  -5  11 -23    0.97    0.33
   5 -11  23    0.37    0.21
  -7  11 -23   -0.40    0.18
   7 -11  23    0.41    0.22
  -9  11 -23    0.27    0.28
 -11  11 -23   -0.20    0.25
 -19  -9  23    0.30    0.23
 -17  -9  23    0.03    0.19
 -15  -9  23    0.16    0.21
 -13  -9  23    0.40    0.22
 -11  -9  23   -0.02    0.18
  -9  -9  23    0.10    0.19
  -7  -9  23    0.00    0.18
  -5  -9  23    0.10    0.21
  -3  -9  23    0.10    0.21
   1   9 -23    0.53    0.30
  -1  -9  23    0.06    0.21
  -1   9 -23    0.07    0.27
   1  -9  23    0.16    0.20
  -3   9 -23    0.13    0.25
   3  -9  23   -0.14    0.16
  -5   9 -23   -0.14    0.25
   5  -9  23    0.08    0.18
  -7   9 -23    0.46    0.31
   7  -9  23   -0.02    0.18
  -9   9 -23    0.18    0.23
  -9   9 -23   -0.08    0.27
   9  -9  23   -0.03    0.19
 -11   9 -23    0.08    0.29
 -17   9 -23   -0.09    0.26
 -19   9 -23    0.22    0.32
 -21   9 -23    0.02    0.29
 -23   9 -23    0.16    0.36
 -21  -7  23   -0.35    0.17
 -19  -7  23    0.12    0.21
 -17  -7  23    0.17    0.22
 -15  -7  23   -0.03    0.16
 -13  -7  23   -0.09    0.14
 -11  -7  23    0.02    0.17
  -9  -7  23    0.12    0.21
  -7  -7  23    0.08    0.20
  -5  -7  23    0.58    0.27
  -3  -7  23   -0.08    0.19
  -1  -7  23    0.42    0.21
   1  -7  23    0.30    0.21
  -3   7 -23   -0.17    0.21
   3  -7  23    0.22    0.17
  -5   7 -23    0.67    0.32
   5  -7  23    0.92    0.28
  -7   7 -23   -0.16    0.22
   7  -7  23   -0.05    0.18
  -9   7 -23   -0.09    0.20
  -9   7 -23    0.45    0.30
   9  -7  23    0.18    0.20
 -11   7 -23    0.15    0.22
 -11   7 -23   -0.23    0.22
  11  -7  23    0.44    0.22
 -13   7 -23   -0.16    0.21
 -15   7 -23    0.04    0.23
 -17   7 -23    0.11    0.25
 -19   7 -23   -0.03    0.29
 -21   7 -23   -0.17    0.28
 -23   7 -23    0.22    0.32
 -21  -5  23   -0.11    0.24
 -19  -5  23    0.03    0.21
 -17  -5  23    0.29    0.21
 -15  -5  23    0.44    0.26
 -13  -5  23    0.70    0.28
 -11  -5  23    0.67    0.26
  -9  -5  23    0.11    0.17
  -7  -5  23    0.39    0.22
  -5  -5  23   -0.33    0.12
  -3  -5  23    0.44    0.23
  -1  -5  23   -0.01    0.18
   1  -5  23   -0.10    0.15
   3  -5  23    1.52    0.31
   5  -5  23   -0.16    0.15
  -7   5 -23    0.73    0.26
   7  -5  23    0.91    0.27
  -9   5 -23    0.21    0.29
  -9   5 -23    0.39    0.23
   9  -5  23    0.07    0.18
 -11   5 -23    0.38    0.26
  11  -5  23    0.75    0.26
 -13   5 -23   -0.02    0.25
  13  -5  23    0.16    0.21
 -15   5 -23    0.64    0.29
 -17   5 -23    0.12    0.27
 -19   5 -23    0.23    0.31
 -21   5 -23    0.18    0.32
 -23   5 -23    0.32    0.34
 -23  -3  23   -0.09    0.20
 -21  -3  23    0.04    0.23
 -19  -3  23    0.18    0.22
 -17  -3  23    0.62    0.27
 -15  -3  23   -0.01    0.16
 -13  -3  23   -0.24    0.13
 -11  -3  23    0.10    0.17
  -9  -3  23    0.05    0.18
  -7  -3  23   -0.15    0.13
  -5  -3  23    0.29    0.21
  -3  -3  23   -0.12    0.16
  -1  -3  23    0.56    0.24
   1  -3  23    1.06    0.28
   3  -3  23   -0.26    0.14
   5  -3  23    0.92    0.27
  -7   3 -23    0.04    0.20
   7  -3  23    0.09    0.18
  -9   3 -23   -0.17    0.17
   9  -3  23   -0.15    0.15
 -11   3 -23   -0.24    0.20
  11  -3  23    0.31    0.21
 -13   3 -23    0.28    0.23
  13  -3  23    0.34    0.23
 -15   3 -23    0.12    0.22
  15  -3  23   -0.07    0.19
 -17   3 -23    0.85    0.34
 -19   3 -23    0.20    0.27
 -21   3 -23    0.81    0.36
 -23   3 -23    0.39    0.33
 -25   3 -23    0.46    0.39
 -23  -1  23    0.41    0.27
 -21  -1  23   -0.30    0.18
 -19  -1  23    0.01    0.20
 -17  -1  23    0.08    0.20
 -15  -1  23    0.18    0.20
 -13  -1  23    0.24    0.20
 -11  -1  23   -0.17    0.16
  -9  -1  23    0.28    0.21
  -7  -1  23    0.48    0.24
  -5  -1  23    0.06    0.13
  -3  -1  23    1.52    0.32
  -1  -1  23    0.10    0.15
   1  -1  23   -0.06    0.14
   3  -1  23    1.56    0.32
  -5   1 -23   -0.05    0.17
   5  -1  23    0.10    0.17
  -7   1 -23    0.61    0.26
   7  -1  23    0.53    0.23
  -9   1 -23    0.22    0.22
   9  -1  23    0.32    0.23
  11  -1  23   -0.11    0.16
  13  -1  23   -0.10    0.19
 -15   1 -23    0.10    0.22
  15  -1  23    0.32    0.23
 -17   1 -23    0.17    0.27
  17  -1  23    0.13    0.24
 -19   1 -23    0.34    0.27
 -21   1 -23    0.00    0.30
 -23   1 -23    0.27    0.33
 -25   1 -23    0.12    0.36
 -23   1  23    0.10    0.26
 -21   1  23    0.04    0.22
 -19   1  23    0.02    0.21
 -17   1  23    0.52    0.23
 -15   1  23   -0.21    0.17
 -13   1  23   -0.11    0.15
 -11   1  23   -0.17    0.16
  -9   1  23    0.09    0.17
  -7   1  23    0.34    0.20
  -5   1  23    0.25    0.19
  -5   1  23   -0.10    0.17
  -3   1  23    1.34    0.30
  -1   1  23    0.00    0.15
   1   1  23    0.06    0.15
   3   1  23    0.85    0.25
  -5  -1 -23   -0.15    0.18
   5   1  23   -0.04    0.15
  -7  -1 -23    0.47    0.26
   7   1  23    0.72    0.26
  -9  -1 -23    0.01    0.24
   9   1  23   -0.09    0.16
  11   1  23   -0.11    0.19
  13   1  23    0.04    0.19
  15   1  23   -0.12    0.17
 -17  -1 -23    0.08    0.27
  17   1  23    0.01    0.24
 -19  -1 -23    0.34    0.32
  19   1  23   -0.06    0.22
 -21  -1 -23    0.12    0.29
 -23  -1 -23    0.35    0.32
 -25  -1 -23   -0.20    0.31
 -21   3  23    0.05    0.24
 -19   3  23   -0.29    0.16
 -17   3  23    0.68    0.29
 -15   3  23    0.05    0.19
 -13   3  23    0.27    0.21
 -11   3  23    0.14    0.18
  -9   3  23    0.26    0.19
  -9   3  23    0.03    0.21
  -7   3  23   -0.16    0.17
  -7   3  23   -0.06    0.17
  -5   3  23    0.79    0.25
  -3   3  23    0.08    0.15
  -1   3  23    0.81    0.26
   1   3  23    1.57    0.32
  -3  -3 -23    0.15    0.22
   3   3  23    0.07    0.18
  -5  -3 -23    0.92    0.29
   5   3  23    1.30    0.31
  -7  -3 -23   -0.10    0.22
   7   3  23    0.16    0.18
   9   3  23    0.19    0.21
  11   3  23    0.22    0.19
  13   3  23   -0.07    0.18
  15   3  23   -0.12    0.18
  17   3  23    0.94    0.29
  19   3  23    0.14    0.24
 -21  -3 -23   -0.05    0.28
  21   3  23   -0.13    0.24
 -23  -3 -23    0.03    0.30
 -25  -3 -23   -0.54    0.29
 -19   5  23    0.45    0.26
 -17   5  23    0.27    0.23
 -15   5  23    0.25    0.22
 -13   5  23    0.09    0.23
 -13   5  23    0.15    0.20
 -11   5  23    0.79    0.27
 -11   5  23    0.43    0.26
  -9   5  23    0.03    0.22
  -9   5  23    0.11    0.19
  -7   5  23    0.97    0.28
  -7   5  23    0.57    0.27
  -5   5  23    0.01    0.19
  -5   5  23    0.10    0.18
  -3   5  23    1.05    0.26
  -1   5  23    0.05    0.17
  -1  -5 -23    0.12    0.18
   1   5  23   -0.25    0.13
  -3  -5 -23    0.26    0.21
   3   5  23    0.70    0.25
  -5  -5 -23   -0.38    0.17
   5   5  23   -0.10    0.19
   7   5  23    0.92    0.28
   9   5  23    0.43    0.24
  11   5  23    0.55    0.26
  13   5  23    0.13    0.24
  15   5  23    0.54    0.28
  17   5  23    0.28    0.24
  19   5  23    0.21    0.27
  21   5  23    0.08    0.26
  23   5  23    0.14    0.30
 -17   7  23   -0.04    0.25
 -17   7  23   -0.09    0.21
 -15   7  23    0.31    0.23
 -15   7  23    0.17    0.25
 -13   7  23    0.06    0.24
 -13   7  23    0.35    0.22
 -11   7  23    0.18    0.18
 -11   7  23    0.02    0.20
  -9   7  23    0.05    0.21
  -9   7  23    0.40    0.24
  -7   7  23    0.09    0.21
  -7   7  23    0.00    0.16
  -5   7  23    0.79    0.30
  -5   7  23    1.22    0.29
   3  -7 -23   -0.02    0.20
  -3   7  23   -0.04    0.15
   1  -7 -23    0.37    0.25
  -1   7  23    0.21    0.18
  -1  -7 -23    0.37    0.24
   1   7  23    0.17    0.17
  -3  -7 -23   -0.06    0.19
   3   7  23    0.13    0.17
   5   7  23    0.63    0.25
   7   7  23   -0.01    0.16
   9   7  23    0.00    0.16
  11   7  23    0.18    0.21
  13   7  23    0.38    0.22
  15   7  23   -0.07    0.20
  17   7  23    0.07    0.22
  19   7  23    0.13    0.26
  21   7  23   -0.20    0.27
  23   7  23   -0.23    0.31
 -21   9  23    0.11    0.32
 -19   9  23    0.36    0.31
 -17   9  23    0.02    0.26
 -15   9  23    0.03    0.25
 -15   9  23   -0.25    0.19
 -13   9  23    0.07    0.24
 -13   9  23    0.18    0.19
 -11   9  23   -0.03    0.25
 -11   9  23    0.15    0.20
  -9   9  23    0.02    0.22
  -9   9  23    0.27    0.19
  -7   9  23    0.05    0.17
  -7   9  23    0.28    0.24
   5  -9 -23    0.10    0.22
  -5   9  23    0.18    0.23
  -5   9  23    0.14    0.18
   3  -9 -23    0.13    0.22
  -3   9  23   -0.11    0.15
   1  -9 -23    0.18    0.25
  -1   9  23    0.00    0.16
  -1  -9 -23   -0.19    0.21
   1   9  23    0.12    0.17
   3   9  23    0.27    0.21
   5   9  23   -0.10    0.16
   7   9  23    0.24    0.21
   9   9  23   -0.13    0.21
  11   9  23    0.11    0.21
  13   9  23   -0.06    0.22
  15   9  23   -0.15    0.20
  17   9  23   -0.27    0.22
  19   9  23   -0.15    0.27
  21   9  23    0.58    0.33
 -21  11  23   -0.28    0.30
 -19  11  23    0.08    0.34
 -17  11  23    0.33    0.29
 -15  11  23   -0.25    0.25
 -13  11  23    0.31    0.23
 -13  11  23   -0.30    0.21
 -11  11  23   -0.04    0.18
 -11  11  23   -0.10    0.20
   9 -11 -23    0.16    0.23
  -9  11  23   -0.09    0.17
  -9  11  23   -0.02    0.23
   7 -11 -23   -0.03    0.21
  -7  11  23    0.08    0.21
  -7  11  23    0.04    0.15
   5 -11 -23    0.89    0.31
  -5  11  23    0.40    0.23
  -5  11  23    0.83    0.33
   3 -11 -23    0.15    0.23
  -3  11  23    0.05    0.17
   1 -11 -23   -0.19    0.25
  -1  11  23    0.00    0.18
   1  11  23   -0.14    0.16
   3  11  23    0.04    0.17
   5  11  23    0.18    0.20
   7  11  23   -0.05    0.15
   9  11  23   -0.05    0.16
  11  11  23   -0.34    0.15
  13  11  23   -0.01    0.23
  15  11  23    0.19    0.25
  17  11  23    0.44    0.28
  19  11  23    0.13    0.29
 -21  13  23   -0.25    0.31
 -19  13  23   -0.36    0.29
 -17  13  23   -0.30    0.24
 -15  13  23    0.31    0.29
 -13  13  23    0.04    0.27
  11 -13 -23    0.00    0.26
 -11  13  23    0.01    0.20
 -11  13  23    0.00    0.25
   9 -13 -23    0.29    0.27
  -9  13  23   -0.06    0.23
  -9  13  23   -0.36    0.16
   7 -13 -23   -0.19    0.21
  -7  13  23    0.12    0.29
  -7  13  23    0.08    0.18
   5 -13 -23    0.09    0.25
  -5  13  23    0.32    0.28
  -5  13  23    0.28    0.21
   3 -13 -23    0.43    0.29
  -3  13  23   -0.06    0.19
  -1  13  23   -0.12    0.17
   1  13  23    0.04    0.18
   3  13  23    0.14    0.21
   5  13  23    0.05    0.20
   7  13  23   -0.05    0.16
   9  13  23    0.25    0.20
  11  13  23    0.31    0.24
  13  13  23    0.12    0.27
  15  13  23    0.05    0.21
  17  13  23    0.34    0.32
 -19  15  23    0.08    0.31
 -17  15  23   -0.46    0.30
 -15  15  23    0.12    0.27
 -13  15  23    0.11    0.32
 -11  15  23   -0.21    0.23
   9 -15 -23   -0.16    0.26
  -9  15  23    0.13    0.27
  -9  15  23   -0.04    0.20
   7 -15 -23    0.19    0.25
  -7  15  23    0.00    0.19
  -7  15  23   -0.06    0.27
  -5  15  23    0.88    0.30
  -5  15  23    0.08    0.24
  -3  15  23   -0.19    0.22
  -3  15  23    0.19    0.20
  -1  15  23    0.24    0.22
   1  15  23   -0.11    0.17
   3  15  23   -0.02    0.18
   5  15  23    0.50    0.24
   7  15  23   -0.11    0.17
   9  15  23    0.10    0.22
  11  15  23   -0.17    0.17
  13  15  23    0.18    0.27
  15  15  23   -0.19    0.24
 -17  17  23   -0.24    0.28
 -15  17  23   -0.12    0.27
 -13  17  23    0.76    0.39
 -11  17  23    0.16    0.31
  -9  17  23   -0.21    0.23
  -7  17  23    0.14    0.29
  -7  17  23    0.11    0.22
  -5  17  23    0.18    0.27
  -5  17  23    0.17    0.24
  -3  17  23    0.89    0.38
  -3  17  23    0.16    0.22
  -1  17  23    0.37    0.22
   1  17  23    0.17    0.24
   3  17  23    0.24    0.24
   5  17  23   -0.03    0.18
   7  17  23    0.31    0.24
   9  17  23    0.22    0.23
  11  17  23    0.18    0.23
  13  17  23    0.18    0.25
 -15  19  23   -0.25    0.29
 -13  19  23   -0.15    0.30
 -11  19  23    0.14    0.31
  -9  19  23   -0.13    0.29
  -7  19  23   -0.04    0.26
  -5  19  23    0.25    0.30
  -3  19  23    0.12    0.22
  -3  19  23    0.26    0.30
  -1  19  23    0.20    0.29
  -1  19  23    0.03    0.21
   1  19  23    0.32    0.25
   3  19  23   -0.03    0.21
   5  19  23    0.06    0.22
   7  19  23   -0.13    0.21
   9  19  23    0.33    0.24
  11  19  23    0.09    0.21
 -13  21  23    0.27    0.33
 -11  21  23    0.15    0.31
  -9  21  23    0.05    0.28
  -7  21  23   -0.38    0.28
  -5  21  23   -0.07    0.30
  -3  21  23   -0.30    0.28
  -1  21  23    0.01    0.24
  -1  21  23    0.12    0.26
   1  21  23   -0.29    0.21
   3  21  23   -0.20    0.22
   5  21  23    0.04    0.24
   7  21  23    0.04    0.26
  -9  23  23   -0.18    0.31
  -7  23  23   -0.09    0.29
  -5  23  23    0.12    0.27
  -3  23  23   -0.20    0.23
  -1  23  23    0.12    0.26
   1  23  23   -0.11    0.24
   1  23  23   -0.05    0.28
   3  23  23   -0.02    0.26
   5  23  23    0.03    0.24
  -3  25  23   -0.08    0.26
  -1  25  23    0.09    0.28
   1  25  23   -0.15    0.28
   3  25  23    0.04    0.30
   2  24 -24   -0.31    0.28
   0  24 -24   19.32    1.20
  -2  24 -24    0.11    0.43
  10  22 -24    0.45    0.36
   8  22 -24    0.40    0.38
   6  22 -24    0.44    0.37
  -6 -22  24    0.36    0.33
   4  22 -24    0.56    0.33
   2  22 -24    0.19    0.32
   0  22 -24   -0.44    0.27
  -2  22 -24    0.11    0.40
  -4  22 -24   -0.14    0.35
  -6  22 -24   -0.07    0.38
  -8  22 -24   -0.08    0.34
 -10  22 -24    0.45    0.38
  10  20 -24    1.20    0.44
   8  20 -24   23.07    1.25
  -8 -20  24   22.39    1.14
   6  20 -24    0.34    0.35
  -6 -20  24    0.65    0.32
   4  20 -24   27.61    1.35
  -4 -20  24   26.54    1.18
   2  20 -24    0.59    0.34
   0  20 -24   22.04    1.21
  -2  20 -24    0.84    0.41
  -4  20 -24   26.36    1.33
  -6  20 -24    0.92    0.42
  -8  20 -24   20.22    1.15
 -10  20 -24    0.21    0.34
 -12  20 -24   21.43    1.23
 -10 -18  24    0.13    0.28
   8  18 -24    0.34    0.34
  -8 -18  24   -0.05    0.21
   6  18 -24    1.29    0.41
  -6 -18  24   -0.01    0.23
   4  18 -24   -0.06    0.29
  -4 -18  24    0.14    0.23
   2  18 -24   -0.01    0.29
  -2 -18  24   -0.22    0.20
   0  18 -24    0.22    0.30
  -2  18 -24   -0.12    0.31
  -4  18 -24   -0.09    0.28
  -6  18 -24    0.00    0.30
  -8  18 -24    0.52    0.38
 -10  18 -24    0.38    0.35
 -12  18 -24   -0.01    0.37
 -14  18 -24    0.37    0.40
 -12 -16  24   16.86    1.00
 -10 -16  24    0.38    0.25
  -8 -16  24   31.56    1.30
   6  16 -24    0.50    0.30
  -6 -16  24    0.20    0.20
   4  16 -24   25.37    1.24
  -4 -16  24   24.86    1.12
   2  16 -24    0.57    0.36
  -2 -16  24    0.65    0.28
   0  16 -24   45.27    1.66
   0 -16  24   43.98    1.46
  -2  16 -24    1.48    0.41
  -4  16 -24   25.20    1.20
  -6  16 -24    0.36    0.32
  -8  16 -24   33.37    1.39
 -10  16 -24    1.08    0.41
 -12  16 -24   20.48    1.12
 -14  16 -24    0.94    0.39
 -14 -14  24    0.22    0.28
 -12 -14  24    0.24    0.22
 -10 -14  24    0.90    0.33
  -8 -14  24    0.67    0.29
  -6 -14  24    0.03    0.22
   4  14 -24   -0.09    0.29
  -4 -14  24    0.19    0.21
   2  14 -24    0.75    0.33
  -2 -14  24    0.20    0.22
   0  14 -24   -0.14    0.24
   0 -14  24    0.02    0.19
  -2  14 -24    0.22    0.30
   2 -14  24    0.29    0.23
  -4  14 -24    0.35    0.32
   4 -14  24    0.49    0.24
  -6  14 -24    0.29    0.33
  -8  14 -24    0.66    0.32
 -10  14 -24    0.42    0.36
 -12  14 -24    0.50    0.36
 -16 -12  24   16.94    0.99
 -14 -12  24    0.33    0.28
 -10 -12  24    0.21    0.23
  -8 -12  24   23.15    1.08
  -6 -12  24    0.06    0.21
  -4 -12  24   42.79    1.46
   2  12 -24    0.32    0.26
  -2 -12  24    0.03    0.17
   0  12 -24   24.97    1.16
   0 -12  24   23.60    1.03
  -2  12 -24   -0.02    0.24
   2 -12  24    0.20    0.23
  -4  12 -24   45.54    1.59
   4 -12  24   46.74    1.45
  -6  12 -24    0.40    0.32
   6 -12  24    0.07    0.19
  -8  12 -24   27.31    1.21
 -10  12 -24    0.07    0.30
 -12  12 -24   28.88    1.23
 -18 -10  24    0.46    0.25
 -16 -10  24    0.49    0.27
 -14 -10  24    0.54    0.26
 -12 -10  24    0.02    0.22
 -10 -10  24    0.35    0.23
  -8 -10  24    0.68    0.27
  -6 -10  24    1.23    0.33
  -4 -10  24    0.42    0.23
  -2 -10  24    0.86    0.28
   0  10 -24   -0.09    0.27
   0 -10  24    0.14    0.21
  -2  10 -24    1.08    0.36
   2 -10  24    0.44    0.24
  -4  10 -24   -0.11    0.27
   4 -10  24    0.59    0.24
  -6  10 -24    1.53    0.40
   6 -10  24    1.24    0.32
  -8  10 -24    0.38    0.31
   8 -10  24    0.64    0.26
 -10  10 -24    0.31    0.31
 -18  -8  24    0.51    0.27
 -16  -8  24   31.76    1.33
 -14  -8  24    0.36    0.24
 -12  -8  24   27.85    1.19
 -10  -8  24    0.82    0.30
  -8  -8  24   68.65    1.93
  -6  -8  24    0.88    0.30
  -4  -8  24   55.52    1.66
  -2  -8  24    0.70    0.28
   0  -8  24   78.50    2.00
   2  -8  24    0.38    0.23
  -4   8 -24   54.11    1.70
   4  -8  24   59.95    1.65
  -6   8 -24    0.86    0.32
   6  -8  24    0.29    0.24
  -8   8 -24   71.86    1.96
   8  -8  24   69.02    1.83
 -10   8 -24    0.33    0.26
 -10   8 -24    0.23    0.30
  10  -8  24    0.04    0.22
 -18   8 -24    0.10    0.30
 -20   8 -24   22.69    1.17
 -22   8 -24   -0.15    0.33
 -20  -6  24    0.97    0.33
 -18  -6  24    0.23    0.24
 -16  -6  24    0.01    0.18
 -14  -6  24    0.03    0.17
 -12  -6  24   -0.17    0.16
 -10  -6  24    1.17    0.31
  -8  -6  24    0.55    0.25
  -6  -6  24    0.13    0.20
  -4  -6  24    0.41    0.20
  -2  -6  24    0.24    0.24
   0  -6  24   -0.06    0.18
   2  -6  24    0.99    0.32
   4  -6  24    0.33    0.24
   6  -6  24    0.21    0.22
  -8   6 -24    0.72    0.35
  -8   6 -24    0.65    0.27
   8  -6  24    0.90    0.29
 -10   6 -24    1.17    0.37
 -10   6 -24    1.06    0.32
  10  -6  24    1.03    0.30
 -12   6 -24   -0.13    0.26
  12  -6  24    0.13    0.20
 -14   6 -24    0.57    0.30
 -16   6 -24    0.18    0.26
 -18   6 -24    0.27    0.31
 -20   6 -24    0.94    0.37
 -22   6 -24    0.55    0.38
 -20  -4  24   27.80    1.25
 -18  -4  24    0.32    0.23
 -16  -4  24   26.32    1.18
 -14  -4  24    0.05    0.19
 -12  -4  24   44.25    1.52
 -10  -4  24    0.32    0.23
  -8  -4  24   51.77    1.60
  -6  -4  24    0.11    0.20
  -4  -4  24   84.52    2.11
  -2  -4  24    0.25    0.22
   0  -4  24   52.06    1.57
   2  -4  24    0.32    0.23
   4  -4  24   86.33    2.09
   6  -4  24    0.31    0.23
  -8   4 -24   56.22    1.62
   8  -4  24   57.59    1.62
 -10   4 -24    0.25    0.26
  10  -4  24    0.44    0.24
  12  -4  24   45.40    1.44
 -14   4 -24   -0.14    0.22
  14  -4  24    0.18    0.25
 -16   4 -24   26.66    1.19
 -18   4 -24    0.33    0.28
 -20   4 -24   28.90    1.33
 -22   4 -24   -0.10    0.29
 -22  -2  24    0.15    0.25
 -20  -2  24    1.02    0.31
 -18  -2  24   -0.14    0.19
 -16  -2  24    1.08    0.30
 -14  -2  24    0.47    0.24
 -12  -2  24   -0.06    0.15
 -10  -2  24    0.28    0.20
  -8  -2  24    0.99    0.28
  -6  -2  24    0.79    0.28
  -4  -2  24    0.20    0.23
  -2  -2  24    0.02    0.23
   0  -2  24    0.23    0.20
   2  -2  24    0.65    0.26
   4  -2  24    0.64    0.27
  -6   2 -24    0.99    0.31
   6  -2  24    0.47    0.25
  -8   2 -24    1.22    0.33
   8  -2  24    0.96    0.29
 -10   2 -24    0.19    0.25
  10  -2  24    0.45    0.25
  12  -2  24    0.12    0.22
  14  -2  24    0.51    0.24
 -16   2 -24    0.70    0.34
  16  -2  24    0.86    0.32
 -18   2 -24    0.23    0.28
 -20   2 -24    1.06    0.41
 -22   2 -24   -0.15    0.27
 -24   2 -24    0.50    0.40
 -22   0  24    0.10    0.22
 -20   0  24   20.80    1.06
 -18   0  24    0.19    0.21
 -16   0  24   41.79    1.49
 -14   0  24    0.15    0.18
 -12   0  24   23.43    1.06
 -10   0  24    0.14    0.21
  -8   0  24   74.05    1.96
  -6   0  24    0.05    0.15
  -4   0  24   48.37    1.51
  -2   0  24    0.11    0.21
   0   0  24   99.84    2.30
   2   0  24    0.12    0.18
  -4   0 -24   49.00    1.50
   4   0  24   48.00    1.47
  -6   0 -24    0.16    0.23
   6   0  24   -0.05    0.20
  -8   0 -24   71.50    1.90
   8   0  24   75.10    1.92
  10   0  24    0.03    0.20
  12   0  24   24.77    1.05
  14   0  24   -0.10    0.20
  16   0  24   42.49    1.46
 -18   0 -24   -0.04    0.25
  18   0  24    0.17    0.25
 -20   0 -24   22.95    1.21
 -22   0 -24    0.24    0.34
 -24   0 -24   22.99    1.29
 -22   2  24    0.57    0.31
 -20   2  24    1.28    0.36
 -18   2  24    0.25    0.22
 -16   2  24    0.14    0.22
 -14   2  24    0.10    0.21
 -12   2  24    0.37    0.21
 -10   2  24    0.66    0.25
  -8   2  24    0.61    0.24
  -6   2  24    0.26    0.20
  -6   2  24    1.18    0.31
  -4   2  24    0.33    0.22
  -2   2  24    0.51    0.22
   0   2  24    0.08    0.17
  -2  -2 -24    0.63    0.27
   2   2  24    0.32    0.23
  -4  -2 -24    0.09    0.22
   4   2  24    0.13    0.22
  -6  -2 -24    0.72    0.29
   6   2  24    0.40    0.25
  -8  -2 -24    1.13    0.33
   8   2  24    1.36    0.32
  10   2  24    0.95    0.30
  12   2  24    0.13    0.20
  14   2  24    0.52    0.26
  16   2  24    0.46    0.24
  18   2  24   -0.12    0.21
  20   2  24    1.28    0.38
 -22  -2 -24    0.43    0.36
 -24  -2 -24   -0.13    0.32
 -20   4  24   28.17    1.23
 -18   4  24    0.20    0.24
 -16   4  24   25.38    1.13
 -14   4  24    0.23    0.21
 -12   4  24   45.15    1.50
 -10   4  24    0.19    0.26
 -10   4  24    0.47    0.23
  -8   4  24   57.87    1.67
  -8   4  24   57.31    1.69
  -6   4  24    0.35    0.26
  -6   4  24    0.24    0.22
  -4   4  24   79.81    2.02
  -2   4  24    0.35    0.20
   0  -4 -24   47.15    1.49
   0   4  24   51.03    1.52
  -2  -4 -24    0.47    0.26
   2   4  24    1.06    0.30
  -4  -4 -24   79.85    2.03
   4   4  24   81.86    2.03
  -6  -4 -24    0.14    0.24
   6   4  24    0.52    0.25
   8   4  24   54.36    1.63
  10   4  24   -0.07    0.20
  12   4  24   41.28    1.43
  14   4  24    0.16    0.20
  16   4  24   24.06    1.10
  18   4  24    0.53    0.30
  20   4  24   25.75    1.18
  22   4  24   -0.08    0.29
 -18   6  24    0.81    0.30
 -16   6  24    0.19    0.21
 -14   6  24    0.58    0.27
 -14   6  24   -0.13    0.24
 -12   6  24    0.04    0.24
 -12   6  24    0.14    0.21
 -10   6  24    0.19    0.24
 -10   6  24    2.03    0.38
  -8   6  24    0.65    0.31
  -8   6  24    0.12    0.24
  -6   6  24    0.24    0.23
  -6   6  24    0.41    0.26
  -4   6  24    0.12    0.21
   2  -6 -24    0.93    0.31
  -2   6  24    0.75    0.25
   0  -6 -24    0.14    0.21
   0   6  24    0.07    0.19
  -2  -6 -24    0.49    0.28
   2   6  24    0.89    0.26
  -4  -6 -24    0.55    0.29
   4   6  24    0.34    0.21
   6   6  24   -0.11    0.17
   8   6  24    0.79    0.27
  10   6  24    1.41    0.35
  12   6  24    0.12    0.21
  14   6  24    0.28    0.22
  16   6  24    0.13    0.23
  18   6  24    0.24    0.25
  20   6  24    0.76    0.35
  22   6  24    0.50    0.37
 -18   8  24    0.51    0.35
 -16   8  24   32.29    1.34
 -16   8  24   33.04    1.28
 -14   8  24    0.65    0.31
 -14   8  24    0.56    0.26
 -12   8  24   26.72    1.12
 -12   8  24   25.03    1.13
 -10   8  24    0.69    0.28
 -10   8  24    0.41    0.27
  -8   8  24   65.58    1.83
  -8   8  24   64.92    1.90
  -6   8  24    0.41    0.26
  -6   8  24    0.46    0.28
   4  -8 -24   58.28    1.70
  -4   8  24   58.09    1.67
   2  -8 -24    0.51    0.27
  -2   8  24    0.70    0.26
   0  -8 -24   76.28    1.99
   0   8  24   75.81    1.98
  -2  -8 -24    0.70    0.31
   2   8  24    0.57    0.24
   4   8  24   53.99    1.63
   6   8  24    0.71    0.28
   8   8  24   67.03    1.89
  10   8  24    0.37    0.22
  12   8  24   26.35    1.15
  14   8  24    0.55    0.25
  16   8  24   31.55    1.30
  18   8  24   -0.09    0.23
  20   8  24   21.97    1.16
 -20  10  24    1.10    0.43
 -18  10  24    0.07    0.32
 -16  10  24    0.41    0.30
 -14  10  24    0.48    0.30
 -14  10  24    0.91    0.32
 -12  10  24    0.14    0.21
 -12  10  24   -0.04    0.21
 -10  10  24   -0.04    0.23
 -10  10  24   -0.11    0.20
   8 -10 -24    0.54    0.28
  -8  10  24    0.68    0.27
  -8  10  24    0.39    0.30
   6 -10 -24    0.49    0.30
  -6  10  24    0.80    0.32
  -6  10  24    1.27    0.33
   4 -10 -24    0.42    0.29
  -4  10  24    0.09    0.20
   2 -10 -24    0.34    0.26
  -2  10  24    1.16    0.32
   0 -10 -24    0.42    0.25
   0  10  24    0.02    0.17
   2  10  24    0.67    0.24
   4  10  24    0.42    0.22
   6  10  24    0.79    0.27
   8  10  24    0.80    0.29
  10  10  24    0.15    0.21
  12  10  24   -0.09    0.21
  14  10  24    0.69    0.28
  16  10  24    0.67    0.32
  18  10  24    0.23    0.32
 -20  12  24   21.25    1.22
 -18  12  24    0.07    0.34
 -16  12  24   15.72    1.00
 -14  12  24   -0.21    0.25
  12 -12 -24   29.59    1.20
 -12  12  24   27.91    1.28
 -12  12  24   31.22    1.22
  10 -12 -24   -0.01    0.26
 -10  12  24    0.04    0.23
 -10  12  24   -0.05    0.25
   8 -12 -24   28.40    1.15
  -8  12  24   26.33    1.11
  -8  12  24   25.67    1.23
   6 -12 -24   -0.02    0.23
  -6  12  24   -0.06    0.25
  -6  12  24   -0.13    0.18
   4 -12 -24   46.39    1.52
  -4  12  24   46.84    1.66
  -4  12  24   45.94    1.51
   2 -12 -24    0.14    0.24
  -2  12  24    0.15    0.19
   0  12  24   24.52    1.08
   2  12  24   -0.02    0.16
   4  12  24   40.27    1.43
   6  12  24    0.08    0.18
   8  12  24   27.80    1.19
  10  12  24   -0.08    0.19
  12  12  24   30.59    1.30
  14  12  24    0.71    0.28
  16  12  24   16.99    1.02
 -18  14  24   -0.28    0.31
 -16  14  24    0.40    0.32
 -14  14  24   -0.18    0.28
 -12  14  24    0.25    0.27
  10 -14 -24    0.46    0.34
 -10  14  24    1.06    0.37
 -10  14  24    0.81    0.30
   8 -14 -24    0.04    0.27
  -8  14  24    0.63    0.27
  -8  14  24    0.58    0.32
   6 -14 -24   -0.11    0.27
  -6  14  24    0.14    0.21
  -6  14  24    0.28    0.29
  -4  14  24    0.47    0.25
  -4  14  24    0.28    0.29
  -2  14  24    0.34    0.22
   0  14  24    0.41    0.23
   2  14  24   -0.17    0.16
   4  14  24    0.34    0.23
   6  14  24    0.24    0.21
   8  14  24    0.61    0.27
  10  14  24    0.63    0.27
  12  14  24    0.34    0.28
  14  14  24    0.10    0.29
 -18  16  24    0.87    0.42
 -16  16  24   25.06    1.34
 -14  16  24    0.27    0.34
 -12  16  24   16.88    1.04
 -10  16  24    0.69    0.33
  -8  16  24   30.66    1.41
  -8  16  24   30.71    1.24
  -6  16  24    0.27    0.22
  -6  16  24    0.01    0.28
  -4  16  24   29.90    1.38
  -4  16  24   28.75    1.21
  -2  16  24    0.66    0.28
   0  16  24   40.59    1.47
   2  16  24    0.67    0.29
   4  16  24   27.36    1.21
   6  16  24   -0.02    0.23
   8  16  24   33.07    1.35
  10  16  24    0.87    0.31
  12  16  24   17.25    1.02
 -16  18  24    0.12    0.31
 -14  18  24   -0.13    0.31
 -12  18  24    0.54    0.36
 -10  18  24    0.22    0.29
  -8  18  24    0.22    0.30
  -6  18  24   -0.06    0.28
  -6  18  24    0.09    0.26
  -4  18  24    0.06    0.31
  -4  18  24    0.16    0.24
  -2  18  24   -0.12    0.19
  -2  18  24    0.07    0.24
   0  18  24   -0.11    0.17
   2  18  24   -0.23    0.18
   4  18  24    0.30    0.24
   6  18  24    0.21    0.24
   8  18  24    0.12    0.22
  10  18  24   -0.24    0.19
 -12  20  24   20.36    1.21
 -10  20  24    0.30    0.33
  -8  20  24   20.74    1.22
  -6  20  24    0.24    0.32
  -4  20  24   29.85    1.44
  -2  20  24    1.16    0.37
  -2  20  24    1.20    0.43
   0  20  24   23.63    1.17
   2  20  24    1.44    0.39
   6  20  24    0.53    0.30
   8  20  24   21.45    1.15
 -10  22  24    0.36    0.36
  -8  22  24   -0.30    0.30
  -6  22  24    0.41    0.36
  -4  22  24    0.19    0.32
  -2  22  24    0.35    0.30
   0  22  24   -0.02    0.29
   0  22  24    0.22    0.26
   2  22  24    0.45    0.30
   4  22  24   -0.11    0.21
  -2  24  24    0.35    0.33
   0  24  24   24.00    1.35
   2  24  24    0.12    0.32
   3  23 -25   -0.33    0.31
   1  23 -25   -0.11    0.32
  -1  23 -25    0.01    0.43
  -3  23 -25   -0.54    0.38
   9  21 -25    0.03    0.37
   7  21 -25    0.05    0.30
   5  21 -25    0.19    0.34
  -5 -21  25   -0.10    0.26
   3  21 -25    0.06    0.32
   1  21 -25   -0.02    0.37
  -1  21 -25   -0.04    0.38
  -3  21 -25   -0.13    0.37
  -5  21 -25    0.27    0.41
  -7  21 -25    0.34    0.39
  -9  21 -25    0.28    0.40
  -9 -19  25    0.00    0.28
   7  19 -25   -0.01    0.29
  -7 -19  25   -0.21    0.25
   5  19 -25   -0.01    0.32
  -5 -19  25   -0.36    0.19
   3  19 -25   -0.26    0.23
  -3 -19  25    0.02    0.25
   1  19 -25   -0.13    0.31
  -1  19 -25   -0.44    0.28
  -3  19 -25    0.28    0.37
  -5  19 -25   -0.32    0.30
  -7  19 -25   -0.16    0.34
  -9  19 -25   -0.07    0.31
 -11  19 -25   -0.30    0.36
 -13  19 -25    0.62    0.43
 -11 -17  25   -0.22    0.24
  -9 -17  25    0.05    0.25
   7  17 -25    0.11    0.33
  -7 -17  25    0.17    0.22
   5  17 -25    0.61    0.35
  -5 -17  25    0.18    0.24
   3  17 -25   -0.22    0.27
  -3 -17  25   -0.02    0.21
   1  17 -25    0.08    0.31
  -1 -17  25    0.31    0.25
  -1  17 -25    0.14    0.34
  -3  17 -25    0.25    0.33
  -5  17 -25    0.43    0.34
  -7  17 -25    0.20    0.37
  -9  17 -25   -0.05    0.29
 -11  17 -25    0.21    0.38
 -13  17 -25   -0.04    0.36
 -13 -15  25    0.00    0.24
 -11 -15  25    1.03    0.34
  -9 -15  25    0.03    0.22
  -7 -15  25    0.03    0.23
   5  15 -25   -0.05    0.29
  -5 -15  25    0.08    0.21
   3  15 -25    0.09    0.30
  -3 -15  25   -0.19    0.19
   1  15 -25    0.25    0.31
  -1 -15  25    0.41    0.25
  -1  15 -25    0.40    0.34
   1 -15  25    0.54    0.28
  -3  15 -25   -0.21    0.31
  -5  15 -25   -0.03    0.29
  -7  15 -25    0.06    0.28
  -9  15 -25   -0.09    0.30
 -11  15 -25   -0.07    0.34
 -13  15 -25   -0.25    0.32
 -13 -13  25   -0.15    0.21
 -11 -13  25    0.09    0.22
  -9 -13  25   -0.03    0.25
  -7 -13  25   -0.05    0.21
  -5 -13  25    0.04    0.21
   3  13 -25    0.31    0.32
  -3 -13  25    0.08    0.20
   1  13 -25   -0.23    0.30
  -1 -13  25   -0.01    0.23
  -1  13 -25   -0.30    0.28
   1 -13  25    0.17    0.22
  -3  13 -25    0.44    0.34
   3 -13  25    0.03    0.19
  -5  13 -25   -0.08    0.29
   5 -13  25    0.02    0.20
  -7  13 -25    0.18    0.32
  -9  13 -25   -0.65    0.28
 -11  13 -25    0.40    0.35
 -15 -11  25    0.24    0.31
 -13 -11  25    0.02    0.23
 -11 -11  25    0.08    0.21
  -9 -11  25    0.09    0.23
  -7 -11  25   -0.07    0.18
  -5 -11  25   -0.10    0.19
  -3 -11  25    0.16    0.22
   1  11 -25   -0.40    0.26
  -1 -11  25   -0.10    0.16
  -1  11 -25   -0.18    0.26
   1 -11  25   -0.30    0.16
  -3  11 -25    0.06    0.28
   3 -11  25   -0.14    0.18
  -5  11 -25   -0.12    0.28
   5 -11  25    0.28    0.22
  -7  11 -25   -0.35    0.28
   7 -11  25   -0.10    0.18
  -9  11 -25    0.20    0.30
 -11  11 -25    0.06    0.31
 -17  -9  25    0.12    0.22
 -15  -9  25   -0.25    0.14
 -13  -9  25    0.08    0.18
 -11  -9  25   -0.07    0.18
  -9  -9  25   -0.02    0.18
  -7  -9  25    0.34    0.24
  -5  -9  25   -0.10    0.19
  -3  -9  25    0.11    0.22
  -1  -9  25   -0.12    0.17
   1  -9  25    0.04    0.19
  -3   9 -25   -0.03    0.28
   3  -9  25    0.40    0.24
  -5   9 -25    0.10    0.29
   5  -9  25    0.54    0.25
  -7   9 -25   -0.21    0.23
   7  -9  25   -0.26    0.18
  -9   9 -25   -0.12    0.22
  -9   9 -25    0.34    0.32
   9  -9  25   -0.21    0.19
 -11   9 -25    0.21    0.31
 -17  -7  25    0.20    0.21
 -15  -7  25    0.14    0.24
 -13  -7  25    0.34    0.20
 -11  -7  25   -0.05    0.18
  -9  -7  25    0.10    0.23
  -7  -7  25   -0.07    0.17
  -5  -7  25    0.24    0.21
  -3  -7  25    0.28    0.20
  -1  -7  25    0.13    0.20
   1  -7  25    0.29    0.21
   3  -7  25   -0.01    0.17
   5  -7  25   -0.07    0.18
   7  -7  25   -0.01    0.20
  -9   7 -25   -0.05    0.22
  -9   7 -25   -0.07    0.29
   9  -7  25   -0.10    0.21
 -11   7 -25    0.05    0.24
  11  -7  25    0.02    0.23
 -17   7 -25    0.08    0.30
 -19   7 -25   -0.53    0.27
 -21   7 -25    0.02    0.31
 -19  -5  25    0.19    0.20
 -17  -5  25    0.03    0.18
 -15  -5  25    0.01    0.21
 -13  -5  25    0.13    0.22
 -11  -5  25    0.21    0.21
  -9  -5  25   -0.07    0.15
  -7  -5  25   -0.17    0.17
  -5  -5  25   -0.08    0.16
  -3  -5  25    0.12    0.21
  -1  -5  25    0.09    0.19
   1  -5  25    0.01    0.18
   3  -5  25    0.29    0.23
   5  -5  25    0.07    0.20
  -7   5 -25   -0.04    0.23
   7  -5  25   -0.06    0.18
  -9   5 -25    0.29    0.25
   9  -5  25    0.65    0.27
 -11   5 -25    0.09    0.25
  11  -5  25   -0.25    0.18
  13  -5  25    0.05    0.20
 -15   5 -25    0.17    0.27
 -17   5 -25    0.00    0.28
 -19   5 -25   -0.22    0.28
 -21   5 -25    0.60    0.36
 -21  -3  25    0.39    0.27
 -19  -3  25   -0.16    0.22
 -17  -3  25    0.07    0.23
 -15  -3  25    0.10    0.20
 -13  -3  25   -0.05    0.16
 -11  -3  25    0.16    0.19
  -9  -3  25    0.16    0.17
  -7  -3  25   -0.01    0.15
  -5  -3  25    0.13    0.19
  -3  -3  25    0.01    0.18
  -1  -3  25   -0.14    0.15
   1  -3  25    0.02    0.19
   3  -3  25    0.12    0.19
   5  -3  25    0.21    0.22
  -7   3 -25    0.12    0.23
   7  -3  25   -0.12    0.18
  -9   3 -25    0.00    0.21
   9  -3  25    0.54    0.26
 -11   3 -25   -0.20    0.20
  11  -3  25   -0.01    0.19
  13  -3  25    0.12    0.24
  15  -3  25    0.04    0.23
 -17   3 -25   -0.16    0.26
 -19   3 -25   -0.24    0.29
 -21   3 -25   -0.20    0.33
 -23   3 -25    0.27    0.37
 -21  -1  25   -0.16    0.20
 -19  -1  25    0.13    0.24
 -17  -1  25    0.16    0.21
 -15  -1  25    0.45    0.25
 -13  -1  25    0.10    0.20
 -11  -1  25   -0.03    0.17
  -9  -1  25    0.15    0.16
  -7  -1  25    0.48    0.24
  -5  -1  25    0.35    0.21
  -3  -1  25   -0.18    0.16
  -1  -1  25    0.28    0.21
   1  -1  25   -0.02    0.19
   3  -1  25   -0.09    0.18
  -5   1 -25    0.34    0.26
   5  -1  25    0.11    0.18
  -7   1 -25   -0.18    0.23
   7  -1  25    0.05    0.20
  -9   1 -25   -0.21    0.21
   9  -1  25    0.19    0.21
  11  -1  25    0.01    0.21
  13  -1  25    0.07    0.21
  15  -1  25    0.20    0.26
  17  -1  25    0.18    0.27
 -19   1 -25    0.01    0.29
 -21   1 -25   -0.11    0.31
 -23   1 -25   -0.04    0.34
 -21   1  25    0.10    0.23
 -19   1  25   -0.09    0.23
 -17   1  25    0.40    0.26
 -15   1  25    0.35    0.24
 -13   1  25   -0.06    0.19
 -11   1  25    0.13    0.20
  -9   1  25    0.14    0.16
  -7   1  25    0.07    0.16
  -5   1  25    0.06    0.17
  -3   1  25   -0.11    0.16
  -1   1  25   -0.11    0.18
   1   1  25   -0.30    0.14
  -3  -1 -25   -0.15    0.19
   3   1  25   -0.15    0.15
  -5  -1 -25   -0.10    0.20
   5   1  25   -0.02    0.19
  -7  -1 -25    0.18    0.22
   7   1  25   -0.23    0.14
  -9  -1 -25    0.13    0.25
   9   1  25   -0.09    0.18
  11   1  25    0.21    0.22
  13   1  25   -0.09    0.17
  15   1  25    0.72    0.30
  17   1  25   -0.22    0.22
  19   1  25   -0.07    0.26
 -23  -1 -25   -0.05    0.32
 -21   3  25   -0.01    0.25
 -19   3  25   -0.04    0.20
 -17   3  25   -0.04    0.22
 -15   3  25    0.29    0.22
 -13   3  25    0.21    0.20
 -11   3  25    0.08    0.18
  -9   3  25    0.42    0.23
  -7   3  25    0.01    0.18
  -5   3  25    0.50    0.28
  -5   3  25    0.00    0.16
  -3   3  25   -0.07    0.16
  -1   3  25   -0.07    0.17
  -1  -3 -25    0.10    0.20
   1   3  25    0.03    0.16
  -3  -3 -25   -0.19    0.18
   3   3  25    0.03    0.21
  -5  -3 -25    0.21    0.24
   5   3  25    0.27    0.21
  -7  -3 -25   -0.25    0.18
   7   3  25    0.00    0.19
   9   3  25    0.49    0.23
  11   3  25   -0.18    0.20
  13   3  25    0.20    0.22
  15   3  25   -0.27    0.21
  17   3  25   -0.31    0.23
  19   3  25   -0.16    0.25
 -19   5  25    0.10    0.25
 -17   5  25    0.30    0.25
 -15   5  25    0.14    0.21
 -13   5  25   -0.10    0.16
 -11   5  25    0.29    0.23
  -9   5  25    0.19    0.21
  -9   5  25    0.00    0.22
  -7   5  25    0.20    0.20
  -7   5  25    0.04    0.22
  -5   5  25    0.19    0.25
  -5   5  25   -0.22    0.16
  -3   5  25   -0.28    0.11
   1  -5 -25   -0.14    0.19
  -1   5  25   -0.16    0.14
  -1  -5 -25   -0.08    0.22
   1   5  25   -0.04    0.18
  -3  -5 -25   -0.11    0.23
   3   5  25    0.16    0.20
  -5  -5 -25    0.04    0.24
   5   5  25   -0.07    0.19
   7   5  25    0.12    0.19
   9   5  25    0.23    0.25
  11   5  25    0.03    0.21
  13   5  25   -0.13    0.19
  15   5  25    0.30    0.27
  17   5  25   -0.12    0.23
  19   5  25    0.14    0.27
  21   5  25    0.26    0.34
 -17   7  25    0.03    0.22
 -15   7  25   -0.03    0.21
 -13   7  25    0.14    0.27
 -13   7  25   -0.13    0.18
 -11   7  25    0.11    0.18
 -11   7  25   -0.08    0.23
  -9   7  25   -0.04    0.19
  -9   7  25    0.11    0.24
  -7   7  25   -0.01    0.23
  -7   7  25    0.14    0.20
  -5   7  25    0.10    0.22
  -5   7  25    0.05    0.19
   3  -7 -25    0.10    0.20
  -3   7  25    0.16    0.19
   1  -7 -25   -0.05    0.23
  -1   7  25   -0.06    0.14
  -1  -7 -25   -0.10    0.21
   1   7  25    0.20    0.21
  -3  -7 -25   -0.30    0.17
   3   7  25    0.12    0.18
   5   7  25   -0.13    0.18
   7   7  25    0.01    0.21
   9   7  25   -0.11    0.20
  11   7  25   -0.03    0.21
  13   7  25   -0.05    0.18
  15   7  25    0.03    0.22
  17   7  25    0.11    0.26
  19   7  25   -0.34    0.27
 -17   9  25    0.00    0.30
 -15   9  25   -0.23    0.25
 -15   9  25    0.10    0.23
 -13   9  25    0.15    0.27
 -13   9  25    0.10    0.21
 -11   9  25   -0.09    0.22
 -11   9  25    0.08    0.21
  -9   9  25   -0.07    0.20
  -9   9  25    0.19    0.26
  -7   9  25   -0.14    0.18
  -7   9  25   -0.05    0.23
   5  -9 -25    0.21    0.27
  -5   9  25   -0.13    0.22
  -5   9  25    0.10    0.21
   3  -9 -25    0.22    0.24
  -3   9  25    0.12    0.21
   1  -9 -25    0.00    0.22
  -1   9  25   -0.15    0.18
  -1  -9 -25   -0.15    0.23
   1   9  25   -0.15    0.13
   3   9  25    0.51    0.26
   5   9  25    0.13    0.19
   7   9  25   -0.02    0.20
   9   9  25   -0.03    0.22
  11   9  25   -0.02    0.22
  13   9  25   -0.23    0.18
  15   9  25    0.04    0.23
  17   9  25   -0.02    0.25
 -19  11  25    0.09    0.32
 -17  11  25    0.04    0.29
 -15  11  25    0.86    0.35
 -13  11  25   -0.14    0.20
 -13  11  25    0.34    0.28
 -11  11  25   -0.05    0.19
 -11  11  25   -0.06    0.26
   9 -11 -25   -0.02    0.26
  -9  11  25    0.12    0.24
  -9  11  25    0.13    0.19
   7 -11 -25    0.00    0.23
  -7  11  25    0.09    0.25
  -7  11  25   -0.01    0.20
   5 -11 -25    0.09    0.28
  -5  11  25    0.21    0.28
  -5  11  25   -0.22    0.18
   3 -11 -25    0.03    0.26
  -3  11  25   -0.06    0.19
   1 -11 -25    0.32    0.28
  -1  11  25    0.02    0.19
   1  11  25    0.41    0.22
   3  11  25    0.05    0.18
   5  11  25    0.15    0.21
   7  11  25   -0.06    0.20
   9  11  25   -0.17    0.18
  11  11  25   -0.11    0.19
  13  11  25    0.48    0.26
  15  11  25    0.81    0.34
 -19  13  25    0.21    0.39
 -17  13  25   -0.21    0.30
 -15  13  25    0.12    0.33
 -13  13  25    0.06    0.25
  11 -13 -25    0.00    0.28
 -11  13  25   -0.13    0.22
 -11  13  25   -0.22    0.24
   9 -13 -25    0.17    0.27
  -9  13  25    0.04    0.19
  -9  13  25    0.05    0.27
   7 -13 -25   -0.09    0.27
  -7  13  25    0.16    0.21
  -7  13  25   -0.06    0.26
   5 -13 -25    0.05    0.27
  -5  13  25   -0.14    0.16
  -5  13  25   -0.04    0.23
   3 -13 -25   -0.18    0.26
  -3  13  25   -0.12    0.19
  -1  13  25   -0.22    0.18
   1  13  25    0.08    0.22
   3  13  25   -0.01    0.19
   5  13  25    0.05    0.19
   7  13  25    0.14    0.23
   9  13  25   -0.13    0.18
  11  13  25    0.28    0.26
  13  13  25   -0.05    0.23
 -17  15  25   -0.30    0.32
 -15  15  25   -0.12    0.26
 -13  15  25    0.05    0.33
 -11  15  25    0.05    0.25
   9 -15 -25    0.04    0.28
  -9  15  25   -0.44    0.24
  -9  15  25   -0.25    0.19
   7 -15 -25    0.24    0.27
  -7  15  25    0.33    0.25
  -7  15  25    0.16    0.30
  -5  15  25    0.36    0.25
  -5  15  25   -0.19    0.27
  -3  15  25   -0.41    0.16
  -3  15  25    0.07    0.29
  -1  15  25    0.41    0.27
   1  15  25    0.23    0.22
   3  15  25    0.11    0.23
   5  15  25   -0.17    0.19
   7  15  25    0.07    0.20
   9  15  25    0.12    0.24
  11  15  25    0.43    0.25
 -15  17  25    0.00    0.34
 -13  17  25   -0.29    0.31
 -11  17  25   -0.02    0.33
  -9  17  25    0.09    0.32
  -7  17  25    0.08    0.24
  -7  17  25    0.06    0.30
  -5  17  25   -0.06    0.22
  -5  17  25    0.19    0.32
  -3  17  25    0.24    0.22
  -3  17  25   -0.16    0.28
  -1  17  25    0.00    0.21
   1  17  25    0.06    0.20
   3  17  25    0.28    0.25
   5  17  25   -0.03    0.21
   7  17  25   -0.22    0.18
   9  17  25    0.17    0.24
 -13  19  25    0.54    0.38
 -11  19  25   -0.14    0.33
  -9  19  25    0.56    0.36
  -7  19  25    0.13    0.30
  -5  19  25    0.08    0.32
  -3  19  25    0.24    0.28
  -3  19  25   -0.18    0.20
  -1  19  25    0.16    0.32
  -1  19  25    0.25    0.29
   1  19  25    0.00    0.21
   3  19  25   -0.08    0.23
   5  19  25   -0.17    0.20
   7  19  25    0.14    0.27
  -9  21  25    0.18    0.33
  -7  21  25    0.19    0.34
  -5  21  25    0.00    0.34
  -3  21  25   -0.01    0.33
  -1  21  25    0.05    0.25
  -1  21  25    0.12    0.31
   1  21  25   -0.27    0.20
   3  21  25    0.00    0.25
  -3  23  25   -0.17    0.30
  -1  23  25    0.10    0.28
   1  23  25   -0.10    0.28
   2  22 -26    4.25    0.67
   0  22 -26    0.82    0.52
  -2  22 -26    4.17    0.71
   8  20 -26    0.01    0.34
   6  20 -26    0.32    0.34
   4  20 -26   -0.36    0.28
  -4 -20  26    0.09    0.28
   2  20 -26   -0.13    0.38
   0  20 -26    0.28    0.36
  -2  20 -26   -0.26    0.37
  -4  20 -26    0.55    0.43
  -6  20 -26    0.76    0.45
  -8  20 -26   -0.11    0.37
  -8 -18  26    0.82    0.34
   6  18 -26    4.62    0.65
  -6 -18  26    3.71    0.53
   4  18 -26    0.56    0.36
  -4 -18  26    0.26    0.27
   2  18 -26    4.83    0.68
  -2 -18  26    3.75    0.51
   0  18 -26    1.07    0.46
  -2  18 -26    3.88    0.64
  -4  18 -26   -0.01    0.35
  -6  18 -26    4.15    0.64
  -8  18 -26    1.12    0.44
 -10  18 -26    4.19    0.65
 -12  18 -26   -0.06    0.38
 -10 -16  26    0.43    0.31
  -8 -16  26    0.15    0.25
  -6 -16  26    0.18    0.25
   4  16 -26   -0.38    0.27
  -4 -16  26    0.43    0.29
   2  16 -26    0.19    0.31
  -2 -16  26    0.33    0.28
   0  16 -26    0.14    0.35
   0 -16  26    0.08    0.23
  -2  16 -26    0.15    0.34
  -4  16 -26    0.33    0.37
  -6  16 -26   -0.01    0.33
  -8  16 -26    0.18    0.38
 -10  16 -26    0.24    0.38
 -12  16 -26    0.31    0.40
 -12 -14  26    1.27    0.38
 -10 -14  26    6.43    0.67
  -8 -14  26    0.06    0.22
  -6 -14  26    7.02    0.65
  -4 -14  26    1.26    0.35
   2  14 -26    7.61    0.75
  -2 -14  26    8.27    0.67
   0  14 -26    0.54    0.36
   0 -14  26    0.11    0.25
  -2  14 -26    9.31    0.80
   2 -14  26    9.70    0.71
  -4  14 -26    0.43    0.36
  -6  14 -26    6.05    0.66
  -8  14 -26    0.35    0.35
 -10  14 -26    6.08    0.70
 -12  14 -26    1.27    0.45
 -12 -12  26    0.47    0.30
 -10 -12  26    0.14    0.22
  -8 -12  26    0.09    0.22
  -6 -12  26    0.54    0.29
  -4 -12  26   -0.18    0.21
  -2 -12  26    0.50    0.27
   0  12 -26   -0.02    0.28
   0 -12  26   -0.09    0.20
  -2  12 -26    0.05    0.33
   2 -12  26    0.20    0.25
  -4  12 -26    0.04    0.31
   4 -12  26    0.32    0.25
  -6  12 -26    0.32    0.32
  -8  12 -26   -0.06    0.34
 -10  12 -26   -0.05    0.32
 -14 -10  26    5.12    0.61
 -12 -10  26    0.08    0.24
 -10 -10  26    5.14    0.59
  -8 -10  26    1.31    0.36
  -6 -10  26    4.48    0.55
  -4 -10  26    0.04    0.20
  -2 -10  26    5.44    0.54
   0 -10  26    1.36    0.34
   2 -10  26    6.12    0.56
  -4  10 -26   -0.21    0.29
   4 -10  26   -0.13    0.19
  -6  10 -26    5.17    0.61
   6 -10  26    5.81    0.55
  -8  10 -26    2.00    0.46
 -10  10 -26    5.99    0.65
 -16  -8  26    0.05    0.23
 -14  -8  26   -0.03    0.20
 -12  -8  26    0.17    0.22
 -10  -8  26    1.74    0.39
  -8  -8  26   -0.09    0.19
  -6  -8  26    0.37    0.26
  -4  -8  26   -0.15    0.16
  -2  -8  26    0.13    0.22
   0  -8  26    0.29    0.23
   2  -8  26   -0.08    0.19
   4  -8  26    0.14    0.22
   6  -8  26    0.23    0.21
  -8   8 -26    0.17    0.33
  -8   8 -26   -0.06    0.23
   8  -8  26    0.06    0.22
 -10   8 -26    1.29    0.35
 -10   8 -26    0.66    0.36
  10  -8  26    1.08    0.32
 -18  -6  26    3.51    0.53
 -16  -6  26    0.05    0.20
 -14  -6  26    4.03    0.53
 -12  -6  26    1.03    0.32
 -10  -6  26    5.02    0.56
  -8  -6  26    0.04    0.20
  -6  -6  26    3.67    0.49
  -4  -6  26    0.94    0.31
  -2  -6  26    5.45    0.56
   0  -6  26   -0.03    0.16
   2  -6  26    4.47    0.51
   4  -6  26    1.06    0.31
   6  -6  26    5.25    0.54
  -8   6 -26   -0.13    0.23
   8  -6  26    0.23    0.21
 -10   6 -26    4.26    0.51
  10  -6  26    5.38    0.54
 -12   6 -26    0.96    0.33
  12  -6  26    0.69    0.29
 -18   6 -26    3.00    0.54
 -20   6 -26    0.13    0.37
 -18  -4  26    0.62    0.29
 -16  -4  26   -0.12    0.19
 -14  -4  26    0.87    0.32
 -12  -4  26    0.02    0.19
 -10  -4  26    0.00    0.17
  -8  -4  26   -0.01    0.18
  -6  -4  26    0.98    0.30
  -4  -4  26   -0.17    0.16
  -2  -4  26    0.64    0.28
   0  -4  26   -0.04    0.20
   2  -4  26    0.22    0.22
   4  -4  26    0.04    0.22
  -6   4 -26    1.48    0.37
   6  -4  26    1.59    0.35
  -8   4 -26    0.66    0.26
   8  -4  26    0.44    0.24
 -10   4 -26    0.42    0.27
  10  -4  26    0.29    0.25
  12  -4  26    0.11    0.23
  14  -4  26    2.23    0.41
 -18   4 -26   -0.06    0.32
 -20   4 -26   -0.37    0.31
 -18  -2  26    4.13    0.56
 -16  -2  26    0.43    0.27
 -14  -2  26    8.43    0.70
 -12  -2  26    0.63    0.26
 -10  -2  26    5.57    0.57
  -8  -2  26    0.16    0.18
  -6  -2  26    5.90    0.57
  -4  -2  26    0.70    0.27
  -2  -2  26    8.91    0.65
   0  -2  26    0.26    0.21
   2  -2  26    8.69    0.65
   4  -2  26    0.73    0.28
  -6   2 -26    4.30    0.50
   6  -2  26    5.99    0.55
  -8   2 -26    0.38    0.26
   8  -2  26    0.14    0.22
 -10   2 -26    7.38    0.64
  10  -2  26    7.21    0.61
  12  -2  26   -0.15    0.21
  14  -2  26    7.71    0.65
  16  -2  26    0.09    0.26
 -20   2 -26   -0.03    0.33
 -22   2 -26    5.23    0.70
 -20   0  26    0.02    0.25
 -18   0  26    0.55    0.29
 -16   0  26    0.03    0.23
 -14   0  26   -0.09    0.18
 -12   0  26   -0.10    0.18
 -10   0  26    0.99    0.32
  -8   0  26   -0.22    0.13
  -6   0  26   -0.06    0.14
  -4   0  26    0.01    0.16
  -2   0  26    0.08    0.20
   0   0  26   -0.04    0.17
   2   0  26    0.30    0.22
  -4   0 -26   -0.10    0.19
   4   0  26    0.03    0.19
  -6   0 -26   -0.11    0.21
   6   0  26    0.06    0.18
  -8   0 -26    0.04    0.25
   8   0  26    0.00    0.20
  10   0  26    0.63    0.28
  12   0  26   -0.18    0.20
  14   0  26    0.42    0.26
  16   0  26    0.09    0.25
 -20   2  26    0.17    0.27
 -18   2  26    4.39    0.55
 -16   2  26   -0.11    0.21
 -14   2  26    8.55    0.69
 -12   2  26    0.74    0.27
 -10   2  26    7.61    0.64
  -8   2  26    0.19    0.20
  -6   2  26    4.70    0.52
  -4   2  26    0.63    0.25
  -2   2  26    9.14    0.66
   0   2  26   -0.09    0.18
  -2  -2 -26    8.20    0.66
   2   2  26    6.88    0.59
  -4  -2 -26    1.23    0.34
   4   2  26    1.05    0.29
  -6  -2 -26    5.01    0.53
   6   2  26    4.28    0.49
  -8  -2 -26    0.31    0.29
   8   2  26    0.11    0.19
  10   2  26    5.89    0.57
  12   2  26    0.33    0.27
  14   2  26    8.53    0.70
  16   2  26    0.30    0.28
  18   2  26    5.58    0.61
 -20   4  26    0.34    0.28
 -18   4  26    0.51    0.30
 -16   4  26   -0.08    0.22
 -14   4  26    1.88    0.40
 -12   4  26    0.07    0.19
 -10   4  26    0.09    0.21
  -8   4  26    0.16    0.21
  -6   4  26    1.57    0.34
  -6   4  26    1.47    0.36
  -4   4  26    0.10    0.17
  -2   4  26    0.57    0.23
   0  -4 -26    0.51    0.26
   0   4  26   -0.05    0.16
  -2  -4 -26    0.51    0.28
   2   4  26    0.61    0.26
  -4  -4 -26    0.24    0.25
   4   4  26    0.06    0.20
  -6  -4 -26    2.14    0.42
   6   4  26    0.82    0.28
   8   4  26    0.18    0.23
  10   4  26    0.07    0.20
  12   4  26    0.16    0.21
  14   4  26    1.11    0.34
  16   4  26   -0.23    0.23
  18   4  26    0.22    0.29
  20   4  26    0.26    0.35
 -18   6  26    4.56    0.56
 -16   6  26    0.17    0.22
 -14   6  26    6.27    0.61
 -12   6  26    0.38    0.23
 -10   6  26    5.32    0.57
 -10   6  26    5.71    0.57
  -8   6  26    0.08    0.26
  -8   6  26    0.21    0.20
  -6   6  26    5.26    0.57
  -6   6  26    5.68    0.56
  -4   6  26    1.36    0.32
   2  -6 -26    4.05    0.51
  -2   6  26    4.87    0.51
   0  -6 -26    0.10    0.26
   0   6  26    0.03    0.18
  -2  -6 -26    4.23    0.52
   2   6  26    4.33    0.49
  -4  -6 -26    1.18    0.35
   4   6  26    1.31    0.34
   6   6  26    4.23    0.49
   8   6  26   -0.09    0.21
  10   6  26    4.58    0.54
  12   6  26    0.60    0.30
  14   6  26    7.07    0.67
  16   6  26   -0.05    0.25
  18   6  26    2.83    0.53
 -16   8  26    0.32    0.25
 -14   8  26    0.21    0.23
 -14   8  26   -0.14    0.26
 -12   8  26   -0.01    0.26
 -12   8  26    0.28    0.22
 -10   8  26    1.30    0.34
 -10   8  26    0.74    0.32
  -8   8  26    0.14    0.27
  -8   8  26   -0.07    0.19
  -6   8  26    0.05    0.19
  -6   8  26    0.04    0.26
   4  -8 -26    0.06    0.25
  -4   8  26    0.09    0.19
   2  -8 -26   -0.09    0.21
  -2   8  26   -0.01    0.17
   0  -8 -26    0.06    0.24
   0   8  26   -0.08    0.16
  -2  -8 -26    0.20    0.26
   2   8  26    0.17    0.19
   4   8  26   -0.27    0.15
   6   8  26    0.13    0.23
   8   8  26    0.10    0.22
  10   8  26    1.14    0.34
  12   8  26   -0.18    0.18
  14   8  26    0.19    0.21
  16   8  26    0.03    0.28
 -18  10  26    3.88    0.61
 -16  10  26   -0.11    0.29
 -14  10  26    6.17    0.65
 -14  10  26    5.87    0.60
 -12  10  26    0.32    0.26
 -12  10  26   -0.21    0.24
 -10  10  26    4.89    0.54
 -10  10  26    5.39    0.61
   8 -10 -26    1.20    0.37
  -8  10  26    1.17    0.39
  -8  10  26    0.48    0.26
   6 -10 -26    6.13    0.61
  -6  10  26    4.47    0.51
  -6  10  26    5.29    0.60
   4 -10 -26    0.24    0.24
  -4  10  26   -0.04    0.22
  -4  10  26    0.32    0.26
   2 -10 -26    6.24    0.60
  -2  10  26    5.33    0.55
   0 -10 -26    1.25    0.39
   0  10  26    1.71    0.39
   2  10  26    6.85    0.61
   4  10  26    0.14    0.19
   6  10  26    4.51    0.54
   8  10  26    0.87    0.32
  10  10  26    4.95    0.58
  12  10  26    0.38    0.27
  14  10  26    5.67    0.64
  16  10  26    0.48    0.31
 -18  12  26    0.11    0.35
 -16  12  26    0.09    0.33
 -14  12  26    1.08    0.41
  12 -12 -26    0.04    0.31
 -12  12  26    0.54    0.33
 -12  12  26    0.16    0.23
  10 -12 -26   -0.10    0.29
 -10  12  26    0.23    0.29
 -10  12  26    0.07    0.22
   8 -12 -26    0.29    0.26
  -8  12  26    0.07    0.19
  -8  12  26   -0.23    0.25
   6 -12 -26    0.56    0.32
  -6  12  26    1.19    0.33
  -6  12  26    1.01    0.39
   4 -12 -26    0.35    0.29
  -4  12  26    0.14    0.29
  -4  12  26   -0.09    0.18
   2 -12 -26    0.22    0.29
  -2  12  26    0.59    0.25
   0  12  26    0.17    0.21
   2  12  26    0.21    0.22
   4  12  26   -0.17    0.19
   6  12  26    1.26    0.36
   8  12  26    0.18    0.22
  10  12  26   -0.27    0.19
  12  12  26    0.37    0.29
  14  12  26    2.26    0.51
 -16  14  26   -0.12    0.33
 -14  14  26    5.59    0.68
 -12  14  26    1.42    0.42
  10 -14 -26    5.90    0.63
 -10  14  26    6.64    0.63
 -10  14  26    6.62    0.71
   8 -14 -26    0.18    0.32
  -8  14  26    0.22    0.25
  -8  14  26    0.24    0.28
   6 -14 -26    5.73    0.63
  -6  14  26    7.49    0.75
  -6  14  26    6.92    0.63
  -4  14  26    1.05    0.38
  -4  14  26    1.01    0.32
  -2  14  26    8.57    0.70
   0  14  26   -0.01    0.20
   2  14  26    7.77    0.68
   4  14  26    1.24    0.35
   6  14  26    5.87    0.63
   8  14  26    0.11    0.23
  10  14  26    6.72    0.68
 -14  16  26   -0.34    0.25
 -12  16  26   -0.04    0.28
 -10  16  26    0.20    0.31
  -8  16  26   -0.10    0.29
  -8  16  26    0.04    0.25
  -6  16  26   -0.16    0.22
  -6  16  26   -0.03    0.30
  -4  16  26    0.32    0.32
  -4  16  26   -0.08    0.21
  -2  16  26    0.60    0.33
  -2  16  26    0.10    0.24
   0  16  26   -0.05    0.17
   2  16  26    0.53    0.28
   4  16  26    0.16    0.23
   6  16  26   -0.15    0.21
   8  16  26    0.13    0.21
 -12  18  26    0.61    0.38
 -10  18  26    4.26    0.64
  -8  18  26    0.66    0.38
  -6  18  26    3.96    0.63
  -4  18  26    0.33    0.38
  -4  18  26    0.16    0.27
  -2  18  26    5.51    0.71
  -2  18  26    6.21    0.64
   0  18  26    1.07    0.34
   2  18  26    4.29    0.56
   4  18  26    0.35    0.29
   6  18  26    4.20    0.58
  -8  20  26   -0.39    0.26
  -6  20  26    0.68    0.39
  -4  20  26    0.45    0.34
  -2  20  26   -0.03    0.34
  -2  20  26    0.36    0.28
   0  20  26    0.11    0.34
   0  20  26   -0.04    0.24
   2  20  26    0.25    0.28
  -2  22  26    3.50    0.65
   0  22  26    0.46    0.38
   5  19 -27    0.21    0.33
   3  19 -27   -0.09    0.34
  -3 -19  27    0.16    0.30
   1  19 -27    0.15    0.38
  -1  19 -27    0.45    0.41
  -3  19 -27    0.29    0.42
  -5  19 -27   -0.16    0.33
  -7  19 -27    0.50    0.42
  -7 -17  27   -0.18    0.25
  -5 -17  27   -0.09    0.26
   3  17 -27   -0.37    0.35
  -3 -17  27   -0.15    0.26
   1  17 -27    0.05    0.34
  -1 -17  27   -0.02    0.26
  -1  17 -27   -0.05    0.34
  -3  17 -27   -0.21    0.34
  -5  17 -27    0.17    0.37
  -7  17 -27    0.35    0.37
  -9  17 -27   -0.49    0.36
 -11  17 -27    0.26    0.42
  -9 -15  27    0.20    0.27
  -7 -15  27   -0.02    0.28
  -5 -15  27   -0.03    0.24
   3  15 -27    0.19    0.37
  -3 -15  27   -0.07    0.20
   1  15 -27    0.31    0.37
  -1 -15  27    0.13    0.26
  -1  15 -27    0.59    0.38
   1 -15  27    0.11    0.26
  -3  15 -27   -0.09    0.34
  -5  15 -27   -0.17    0.36
  -7  15 -27    0.03    0.37
  -9  15 -27    0.22    0.39
 -11  15 -27    0.32    0.42
 -11 -13  27    0.04    0.27
  -9 -13  27    0.31    0.30
  -7 -13  27   -0.10    0.23
  -5 -13  27    0.03    0.24
  -3 -13  27    0.10    0.24
  -1 -13  27    0.15    0.27
  -1  13 -27    0.03    0.32
   1 -13  27    0.30    0.27
  -3  13 -27   -0.17    0.30
   3 -13  27   -0.13    0.22
  -5  13 -27    0.29    0.36
  -7  13 -27   -0.25    0.32
  -9  13 -27   -0.29    0.34
 -11  13 -27   -0.42    0.34
 -11 -11  27    0.13    0.29
  -9 -11  27    0.09    0.22
  -7 -11  27   -0.15    0.22
  -5 -11  27   -0.09    0.23
  -3 -11  27   -0.23    0.21
  -1 -11  27    0.04    0.22
   1 -11  27    0.00    0.20
  -3  11 -27    0.07    0.29
   3 -11  27    0.08    0.24
  -5  11 -27   -0.17    0.32
   5 -11  27   -0.05    0.21
  -7  11 -27   -0.17    0.29
  -9  11 -27   -0.03    0.33
 -13  -9  27   -0.28    0.24
 -11  -9  27    0.10    0.24
  -9  -9  27    0.01    0.23
  -7  -9  27    0.01    0.21
  -5  -9  27    0.07    0.25
  -3  -9  27   -0.14    0.18
  -1  -9  27    0.29    0.24
   1  -9  27    0.07    0.20
   3  -9  27   -0.01    0.21
   5  -9  27    0.44    0.25
   7  -9  27   -0.01    0.21
  -9   9 -27    0.11    0.35
 -15  -7  27   -0.09    0.23
 -13  -7  27    0.26    0.22
 -11  -7  27    0.11    0.22
  -9  -7  27   -0.16    0.21
  -7  -7  27   -0.03    0.22
  -5  -7  27    0.39    0.28
  -3  -7  27   -0.13    0.17
  -1  -7  27    0.35    0.26
   1  -7  27    0.06    0.19
   3  -7  27   -0.11    0.18
   5  -7  27    0.42    0.27
  -7   7 -27    0.23    0.24
   7  -7  27    0.16    0.22
  -9   7 -27    0.06    0.27
   9  -7  27    0.09    0.23
 -15  -5  27   -0.19    0.19
 -13  -5  27    0.05    0.22
 -11  -5  27   -0.22    0.17
  -9  -5  27   -0.23    0.19
  -7  -5  27    0.12    0.22
  -5  -5  27    0.04    0.18
  -3  -5  27    0.28    0.24
  -1  -5  27    0.20    0.21
   1  -5  27    0.38    0.24
   3  -5  27    0.08    0.22
   5  -5  27    0.22    0.22
  -7   5 -27    0.08    0.24
   7  -5  27    0.04    0.22
  -9   5 -27    0.04    0.25
   9  -5  27    0.14    0.23
 -11   5 -27   -0.35    0.25
  11  -5  27    0.14    0.25
 -19   5 -27    0.54    0.38
 -17  -3  27    0.08    0.24
 -15  -3  27    0.22    0.22
 -13  -3  27   -0.09    0.18
 -11  -3  27    0.19    0.19
  -9  -3  27    0.10    0.21
  -7  -3  27   -0.20    0.14
  -5  -3  27   -0.15    0.22
  -3  -3  27    0.06    0.19
  -1  -3  27    0.22    0.22
   1  -3  27    0.05    0.20
   3  -3  27    0.06    0.22
  -5   3 -27   -0.17    0.23
   5  -3  27    0.24    0.21
  -7   3 -27    0.19    0.26
   7  -3  27   -0.08    0.19
  -9   3 -27    0.14    0.27
   9  -3  27   -0.14    0.18
  11  -3  27   -0.04    0.23
  13  -3  27   -0.13    0.21
 -17  -1  27    0.22    0.25
 -15  -1  27    0.30    0.27
 -13  -1  27    0.09    0.21
 -11  -1  27    0.01    0.18
  -9  -1  27    0.17    0.20
  -7  -1  27    0.40    0.21
  -5  -1  27    0.53    0.25
  -3  -1  27    0.47    0.26
  -1  -1  27   -0.28    0.15
   1  -1  27    0.07    0.19
   3  -1  27    0.02    0.21
  -5   1 -27    0.29    0.27
   5  -1  27    0.25    0.25
  -7   1 -27    0.13    0.24
   7  -1  27    0.33    0.23
  -9   1 -27   -0.11    0.22
   9  -1  27   -0.18    0.18
  11  -1  27    0.07    0.23
  13  -1  27    0.32    0.26
  15  -1  27    0.26    0.28
 -19   1  27   -0.27    0.22
 -17   1  27   -0.21    0.22
 -15   1  27    0.01    0.25
 -13   1  27    0.09    0.22
 -11   1  27    0.03    0.18
  -9   1  27   -0.01    0.19
  -7   1  27    0.58    0.26
  -5   1  27    0.42    0.23
  -3   1  27    0.17    0.17
  -1   1  27   -0.39    0.14
   1   1  27   -0.17    0.16
  -3  -1 -27    0.07    0.23
   3   1  27   -0.11    0.16
  -5  -1 -27    0.38    0.27
   5   1  27    0.15    0.21
  -7  -1 -27    0.30    0.27
   7   1  27    0.33    0.24
   9   1  27    0.05    0.23
  11   1  27   -0.19    0.19
  13   1  27   -0.23    0.21
  15   1  27    0.16    0.27
  17   1  27   -0.25    0.25
 -19   3  27   -0.21    0.21
 -17   3  27    0.14    0.22
 -15   3  27    0.19    0.24
 -13   3  27    0.24    0.22
 -11   3  27    0.51    0.25
  -9   3  27    0.25    0.22
  -7   3  27    0.13    0.22
  -5   3  27   -0.09    0.20
  -3   3  27    0.17    0.18
  -1   3  27    0.07    0.18
  -1  -3 -27    0.07    0.23
   1   3  27    0.02    0.18
  -3  -3 -27    0.02    0.22
   3   3  27   -0.03    0.19
  -5  -3 -27    0.13    0.25
   5   3  27    0.32    0.24
  -7  -3 -27    0.17    0.25
   7   3  27    0.05    0.22
   9   3  27    0.08    0.20
  11   3  27    0.18    0.20
  13   3  27   -0.07    0.24
  15   3  27    0.14    0.26
  17   3  27   -0.10    0.26
  19   3  27    0.12    0.33
 -19   5  27    0.09    0.29
 -17   5  27    0.13    0.26
 -15   5  27    0.08    0.23
 -13   5  27   -0.09    0.20
 -11   5  27    0.08    0.18
  -9   5  27    0.27    0.22
  -7   5  27   -0.13    0.19
  -5   5  27   -0.05    0.21
  -5   5  27    0.30    0.27
  -3   5  27    0.10    0.20
   1  -5 -27    0.68    0.34
  -1   5  27    0.27    0.19
  -1  -5 -27    0.34    0.28
   1   5  27    0.12    0.18
  -3  -5 -27    0.04    0.22
   3   5  27    0.17    0.24
  -5  -5 -27   -0.03    0.25
   5   5  27   -0.14    0.19
   7   5  27    0.33    0.25
   9   5  27    0.07    0.22
  11   5  27    0.01    0.24
  13   5  27    0.39    0.31
  15   5  27   -0.09    0.25
  17   5  27   -0.16    0.27
 -17   7  27   -0.22    0.25
 -15   7  27    0.12    0.23
 -13   7  27    0.21    0.23
 -11   7  27    0.16    0.21
  -9   7  27    0.00    0.18
  -9   7  27    0.05    0.23
  -7   7  27   -0.13    0.24
  -7   7  27   -0.23    0.18
  -5   7  27    0.24    0.28
  -5   7  27   -0.09    0.19
   3  -7 -27   -0.26    0.23
  -3   7  27    0.14    0.20
   1  -7 -27    0.15    0.24
  -1   7  27    0.17    0.21
  -1  -7 -27    0.22    0.23
   1   7  27    0.12    0.20
  -3  -7 -27   -0.38    0.23
   3   7  27    0.11    0.20
   5   7  27    0.01    0.22
   7   7  27   -0.01    0.22
   9   7  27    0.01    0.20
  11   7  27   -0.14    0.21
  13   7  27    0.13    0.26
  15   7  27   -0.14    0.25
 -15   9  27    0.25    0.29
 -13   9  27    0.28    0.31
 -13   9  27    0.41    0.26
 -11   9  27   -0.41    0.25
 -11   9  27   -0.03    0.21
  -9   9  27   -0.18    0.27
  -9   9  27    0.16    0.23
   7  -9 -27   -0.24    0.26
  -7   9  27    0.08    0.21
  -7   9  27    0.23    0.28
   5  -9 -27    0.09    0.28
  -5   9  27    0.18    0.21
  -5   9  27    0.23    0.30
   3  -9 -27   -0.09    0.27
  -3   9  27    0.24    0.21
   1  -9 -27    0.00    0.25
  -1   9  27    0.47    0.23
  -1  -9 -27   -0.11    0.28
   1   9  27   -0.07    0.17
   3   9  27    0.03    0.19
   5   9  27    0.30    0.24
   7   9  27    0.10    0.23
   9   9  27   -0.17    0.20
  11   9  27   -0.18    0.22
  13   9  27   -0.10    0.24
 -17  11  27    0.09    0.34
 -15  11  27    0.07    0.35
 -13  11  27   -0.08    0.22
 -13  11  27    0.27    0.33
  11 -11 -27    0.28    0.30
 -11  11  27    0.02    0.21
 -11  11  27    0.08    0.27
   9 -11 -27   -0.10    0.27
  -9  11  27    0.37    0.27
  -9  11  27   -0.21    0.20
   7 -11 -27    0.09    0.26
  -7  11  27   -0.05    0.17
  -7  11  27    0.20    0.27
   5 -11 -27   -0.10    0.28
  -5  11  27   -0.09    0.22
  -5  11  27    0.19    0.23
   3 -11 -27    0.28    0.27
  -3  11  27   -0.19    0.19
   1 -11 -27    0.04    0.27
  -1  11  27    0.03    0.22
   1  11  27    0.46    0.25
   3  11  27    0.39    0.23
   5  11  27    0.19    0.21
   7  11  27    0.06    0.19
   9  11  27   -0.06    0.24
  11  11  27   -0.17    0.21
  13  11  27    0.10    0.30
 -15  13  27    0.18    0.34
 -13  13  27   -0.34    0.28
  11 -13 -27    0.03    0.32
 -11  13  27   -0.03    0.30
 -11  13  27    0.08    0.25
   9 -13 -27    0.20    0.30
  -9  13  27    0.11    0.23
  -9  13  27   -0.20    0.26
   7 -13 -27    0.27    0.30
  -7  13  27    0.06    0.21
  -7  13  27    0.29    0.31
   5 -13 -27    0.23    0.28
  -5  13  27    0.17    0.21
  -5  13  27    0.07    0.27
  -3  13  27    0.19    0.30
  -3  13  27   -0.17    0.19
  -1  13  27   -0.17    0.19
   1  13  27    0.22    0.23
   3  13  27    0.19    0.23
   5  13  27   -0.16    0.19
   7  13  27    0.07    0.19
   9  13  27   -0.31    0.18
 -13  15  27    0.15    0.34
 -11  15  27    0.06    0.29
   9 -15 -27   -0.19    0.33
  -9  15  27   -0.02    0.26
  -9  15  27    0.26    0.33
   7 -15 -27   -0.09    0.29
  -7  15  27    0.40    0.28
  -7  15  27    0.08    0.33
  -5  15  27    0.03    0.23
  -5  15  27    0.15    0.31
  -3  15  27    0.16    0.30
  -3  15  27    0.18    0.23
  -1  15  27    0.08    0.24
   1  15  27    0.07    0.19
   3  15  27    0.34    0.26
   5  15  27    0.04    0.22
   7  15  27    0.32    0.26
 -11  17  27   -0.10    0.32
  -9  17  27   -0.10    0.29
  -7  17  27   -0.04    0.33
  -5  17  27    0.03    0.28
  -5  17  27    0.19    0.25
  -3  17  27    0.03    0.30
  -3  17  27    0.04    0.25
  -1  17  27    0.19    0.25
   1  17  27   -0.25    0.23
   3  17  27    0.01    0.24
  -7  19  27    0.42    0.37
  -5  19  27   -0.23    0.30
  -3  19  27    0.00    0.31
  -3  19  27   -0.02    0.26
  -1  19  27    0.42    0.30
  -1  19  27    0.09    0.33
   4  18 -28    0.00    0.40
   2  18 -28    0.07    0.38
  -2 -18  28    0.36    0.34
   0  18 -28   -0.44    0.34
  -2  18 -28    0.49    0.41
  -4  18 -28    0.39    0.44
  -6  18 -28    0.15    0.42
  -4 -16  28   15.77    0.99
   2  16 -28    1.12    0.45
  -2 -16  28    0.55    0.35
   0  16 -28   16.56    1.11
   0 -16  28   15.61    0.94
  -2  16 -28    1.02    0.44
  -4  16 -28   18.34    1.14
  -6  16 -28    0.50    0.38
  -8  16 -28   14.42    1.02
 -10  16 -28    0.39    0.43
  -8 -14  28    0.14    0.26
  -6 -14  28   -0.07    0.30
  -4 -14  28    0.04    0.26
  -2 -14  28    0.23    0.25
   0  14 -28   -0.29    0.36
   0 -14  28    0.12    0.26
  -2  14 -28   -0.34    0.35
   2 -14  28    0.05    0.25
  -4  14 -28    0.37    0.41
  -6  14 -28    0.36    0.38
  -8  14 -28    0.20    0.40
 -10  14 -28    0.68    0.44
  -8 -12  28   24.14    1.22
  -6 -12  28   -0.02    0.27
  -4 -12  28   18.02    1.02
  -2 -12  28    0.20    0.26
   0 -12  28   27.62    1.23
   2 -12  28    0.00    0.25
  -4  12 -28   17.89    1.10
   4 -12  28   18.04    0.98
  -6  12 -28    0.26    0.34
  -8  12 -28   24.39    1.23
 -10  12 -28    0.11    0.39
 -10 -10  28    0.37    0.30
  -8 -10  28    0.04    0.25
  -6 -10  28    0.06    0.25
  -4 -10  28    0.17    0.25
  -2 -10  28    0.37    0.29
   0 -10  28    0.10    0.22
   2 -10  28   -0.22    0.20
   4 -10  28    0.21    0.24
   6 -10  28    0.03    0.24
  -8  10 -28    0.32    0.37
 -12  -8  28   20.56    1.12
 -10  -8  28    0.30    0.29
  -8  -8  28   21.19    1.11
  -6  -8  28    0.16    0.25
  -4  -8  28   30.05    1.30
  -2  -8  28    0.23    0.26
   0  -8  28   22.31    1.09
   2  -8  28    0.24    0.25
   4  -8  28   29.01    1.22
   6  -8  28   -0.01    0.23
  -8   8 -28   22.19    1.07
   8  -8  28   23.41    1.09
 -14  -6  28   -0.14    0.20
 -12  -6  28   -0.07    0.21
 -10  -6  28   -0.06    0.24
  -8  -6  28   -0.17    0.21
  -6  -6  28    0.02    0.23
  -4  -6  28    0.39    0.26
  -2  -6  28   -0.06    0.23
   0  -6  28   -0.14    0.19
   2  -6  28   -0.14    0.19
   4  -6  28    0.17    0.23
  -6   6 -28    0.00    0.29
   6  -6  28   -0.01    0.24
  -8   6 -28    0.18    0.30
   8  -6  28    0.24    0.26
 -10   6 -28    0.38    0.31
  10  -6  28    0.33    0.25
 -14  -4  28   -0.02    0.21
 -12  -4  28   16.04    0.97
 -10  -4  28    0.14    0.20
  -8  -4  28   26.09    1.21
  -6  -4  28    0.44    0.28
  -4  -4  28   21.03    1.07
  -2  -4  28   -0.06    0.22
   0  -4  28   28.88    1.23
   2  -4  28    0.02    0.22
   4  -4  28   21.95    1.06
  -6   4 -28    0.63    0.32
   6  -4  28   -0.03    0.21
  -8   4 -28   27.85    1.20
   8  -4  28   27.81    1.19
 -10   4 -28    0.05    0.30
  10  -4  28    0.26    0.25
  12  -4  28   19.55    1.00
 -16  -2  28    1.07    0.35
 -14  -2  28    0.12    0.21
 -12  -2  28    0.36    0.24
 -10  -2  28   -0.21    0.19
  -8  -2  28    0.22    0.20
  -6  -2  28   -0.13    0.20
  -4  -2  28    0.48    0.28
  -2  -2  28    0.14    0.23
   0  -2  28    0.19    0.26
   2  -2  28    0.70    0.29
  -4   2 -28   -0.12    0.27
   4  -2  28    0.27    0.24
  -6   2 -28   -0.15    0.22
   6  -2  28    0.19    0.24
  -8   2 -28    0.29    0.30
   8  -2  28    0.18    0.21
 -10   2 -28    0.32    0.30
  10  -2  28   -0.02    0.22
  12  -2  28   -0.17    0.22
  14  -2  28    0.32    0.29
 -16   0  28   17.56    1.04
 -14   0  28   -0.06    0.22
 -12   0  28   26.67    1.23
 -10   0  28   -0.08    0.19
  -8   0  28   20.73    1.06
  -6   0  28    0.00    0.19
  -4   0  28   30.14    1.26
  -2   0  28   -0.03    0.23
   0   0  28   20.51    1.03
   2   0  28    0.03    0.21
  -4   0 -28   30.58    1.27
   4   0  28   29.76    1.24
  -6   0 -28    0.15    0.29
   6   0  28    0.01    0.22
  -8   0 -28   22.31    1.08
   8   0  28   20.30    1.03
  10   0  28   -0.14    0.18
  12   0  28   27.04    1.22
  14   0  28    0.17    0.27
  16   0  28   16.49    0.97
 -16   2  28    0.79    0.33
 -14   2  28    0.25    0.26
 -12   2  28   -0.16    0.21
 -10   2  28    0.36    0.25
  -8   2  28    0.16    0.22
  -6   2  28   -0.01    0.19
  -4   2  28   -0.07    0.18
  -2   2  28    0.43    0.25
   0   2  28    0.05    0.20
  -2  -2 -28    0.33    0.26
   2   2  28   -0.07    0.21
  -4  -2 -28    0.06    0.27
   4   2  28    0.28    0.24
  -6  -2 -28   -0.08    0.27
   6   2  28   -0.05    0.21
  -8  -2 -28    0.29    0.29
   8   2  28    0.21    0.26
  10   2  28    0.10    0.26
  12   2  28    0.50    0.28
  14   2  28    0.01    0.23
  16   2  28    0.74    0.35
  18   2  28    0.56    0.37
 -16   4  28   18.97    1.07
 -14   4  28    0.19    0.25
 -12   4  28   17.93    1.00
 -10   4  28    0.34    0.25
  -8   4  28   29.07    1.25
  -6   4  28    0.14    0.21
  -4   4  28   19.50    1.01
  -2   4  28    0.22    0.21
   0  -4 -28   30.70    1.29
   0   4  28   27.23    1.19
  -2  -4 -28    0.40    0.26
   2   4  28    0.16    0.22
  -4  -4 -28   22.90    1.09
   4   4  28   18.82    0.99
  -6  -4 -28   -0.03    0.25
   6   4  28    0.12    0.25
   8   4  28   26.93    1.21
  10   4  28    0.09    0.23
  12   4  28   17.77    1.01
  14   4  28   -0.16    0.23
  16   4  28   19.57    1.10
 -16   6  28    0.44    0.29
 -14   6  28   -0.02    0.23
 -12   6  28    0.02    0.22
 -10   6  28    0.31    0.23
  -8   6  28    0.01    0.21
  -6   6  28   -0.04    0.27
  -6   6  28    0.00    0.23
   4  -6 -28   -0.09    0.24
  -4   6  28    0.02    0.27
  -4   6  28   -0.01    0.20
   2  -6 -28   -0.18    0.27
  -2   6  28    0.15    0.21
   0  -6 -28   -0.01    0.23
   0   6  28    0.18    0.20
  -2  -6 -28    0.15    0.28
   2   6  28    0.33    0.23
  -4  -6 -28    0.06    0.24
   4   6  28    0.15    0.24
   6   6  28    0.33    0.25
   8   6  28    0.31    0.26
  10   6  28    0.04    0.23
  12   6  28    0.54    0.30
  14   6  28   -0.15    0.25
 -16   8  28   13.40    0.90
 -14   8  28    0.11    0.24
 -12   8  28   24.94    1.18
 -10   8  28    0.07    0.23
 -10   8  28    0.13    0.30
  -8   8  28   20.90    1.11
  -8   8  28   21.93    1.09
   6  -8 -28    0.05    0.30
  -6   8  28   -0.45    0.24
  -6   8  28    0.19    0.24
   4  -8 -28   28.35    1.24
  -4   8  28   29.29    1.32
  -4   8  28   30.24    1.27
   2  -8 -28   -0.01    0.24
  -2   8  28   -0.02    0.19
   0  -8 -28   19.95    1.05
   0   8  28   20.82    1.04
  -2  -8 -28    0.08    0.30
   2   8  28    0.12    0.20
   4   8  28   30.68    1.30
   6   8  28    0.27    0.26
   8   8  28   20.20    1.08
  10   8  28    0.13    0.27
  12   8  28   21.20    1.15
 -14  10  28    0.38    0.30
 -14  10  28    0.32    0.32
 -12  10  28    0.48    0.37
 -12  10  28    0.19    0.29
  10 -10 -28    0.53    0.35
 -10  10  28   -0.16    0.22
 -10  10  28    0.52    0.35
   8 -10 -28   -0.42    0.28
  -8  10  28    0.29    0.26
  -8  10  28    0.25    0.31
   6 -10 -28    0.06    0.32
  -6  10  28    0.30    0.31
  -6  10  28   -0.03    0.20
   4 -10 -28   -0.30    0.25
  -4  10  28    0.19    0.24
  -4  10  28    0.24    0.29
   2 -10 -28   -0.24    0.28
  -2  10  28    0.08    0.22
   0 -10 -28    0.03    0.28
   0  10  28   -0.06    0.18
   2  10  28    0.15    0.22
   4  10  28    0.39    0.24
   6  10  28    0.02    0.19
   8  10  28    0.10    0.26
  10  10  28    0.19    0.29
 -14  12  28    0.01    0.31
  12 -12 -28   18.30    1.04
 -12  12  28   17.12    1.00
 -12  12  28   16.18    1.05
  10 -12 -28   -0.24    0.29
 -10  12  28   -0.10    0.30
 -10  12  28    0.19    0.30
   8 -12 -28   25.73    1.20
  -8  12  28   22.59    1.13
  -8  12  28   26.14    1.29
   6 -12 -28    0.07    0.31
  -6  12  28    0.34    0.27
  -6  12  28    0.03    0.27
   4 -12 -28   16.57    0.98
  -4  12  28   19.58    1.03
  -4  12  28   18.84    1.11
   2 -12 -28    0.30    0.34
  -2  12  28   -0.04    0.20
   0  12  28   28.76    1.28
   2  12  28    0.01    0.20
   4  12  28   18.83    1.04
   6  12  28    0.03    0.21
   8  12  28   24.93    1.23
 -12  14  28    0.11    0.34
  10 -14 -28    0.05    0.36
 -10  14  28   -0.03    0.27
 -10  14  28    0.09    0.32
   8 -14 -28   -0.03    0.32
  -8  14  28    0.44    0.30
  -8  14  28   -0.33    0.24
   6 -14 -28   -0.11    0.33
  -6  14  28   -0.02    0.21
  -6  14  28    0.18    0.32
  -4  14  28   -0.23    0.32
  -4  14  28    0.33    0.28
  -2  14  28    0.03    0.24
  -2  14  28    0.05    0.22
   0  14  28   -0.14    0.20
   2  14  28    0.40    0.24
   4  14  28   -0.02    0.21
   6  14  28    0.05    0.21
 -10  16  28    0.78    0.40
  -8  16  28   15.47    1.08
  -6  16  28    0.25    0.27
  -6  16  28    0.22    0.35
  -4  16  28   19.65    1.07
  -4  16  28   18.32    1.17
  -2  16  28    0.15    0.27
  -2  16  28    0.36    0.36
   0  16  28   18.94    1.08
   2  16  28    0.41    0.27
  -6  18  28   -0.10    0.33
  -4  18  28    0.57    0.36
  -4  18  28    0.20    0.28
  -2  18  28    0.35    0.38
   1  17 -29   -0.11    0.37
  -1 -17  29    0.03    0.33
  -1  17 -29    0.19    0.41
  -3  17 -29    0.11    0.40
  -5  17 -29   -0.81    0.30
  -3 -15  29    0.03    0.31
  -1 -15  29    0.12    0.29
  -1  15 -29   -0.15    0.36
   1 -15  29   -0.34    0.25
  -3  15 -29   -0.31    0.38
  -5  15 -29    0.49    0.39
  -7  15 -29   -0.10    0.40
  -9  15 -29   -0.62    0.38
  -5 -13  29    0.06    0.31
  -3 -13  29   -0.15    0.27
  -1 -13  29   -0.11    0.27
   1 -13  29   -0.07    0.24
   3 -13  29    0.02    0.25
  -5  13 -29    0.07    0.34
  -7  13 -29    0.44    0.38
  -9  13 -29    0.21    0.37
  -7 -11  29    0.44    0.33
  -5 -11  29    0.16    0.30
  -3 -11  29   -0.16    0.23
  -1 -11  29   -0.03    0.25
   1 -11  29   -0.06    0.25
   3 -11  29   -0.32    0.19
   5 -11  29    0.22    0.27
  -9  11 -29   -0.12    0.40
  -9  -9  29   -0.39    0.24
  -7  -9  29   -0.11    0.26
  -5  -9  29   -0.10    0.24
  -3  -9  29   -0.09    0.20
  -1  -9  29    0.33    0.26
   1  -9  29    0.17    0.27
   3  -9  29   -0.13    0.23
   5  -9  29   -0.06    0.23
  -7   9 -29   -0.02    0.30
   7  -9  29    0.03    0.24
  -9  -7  29    0.04    0.27
  -7  -7  29   -0.12    0.23
  -5  -7  29   -0.13    0.20
  -3  -7  29   -0.09    0.23
  -1  -7  29   -0.16    0.20
   1  -7  29   -0.02    0.21
   3  -7  29   -0.02    0.22
   5  -7  29    0.00    0.23
  -7   7 -29   -0.18    0.27
   7  -7  29    0.16    0.26
  -9   7 -29   -0.06    0.29
   9  -7  29   -0.14    0.24
 -11  -5  29   -0.05    0.19
  -9  -5  29    0.45    0.29
  -7  -5  29   -0.06    0.19
  -5  -5  29   -0.11    0.21
  -3  -5  29    0.05    0.23
  -1  -5  29    0.10    0.25
   1  -5  29    0.13    0.25
   3  -5  29    0.34    0.27
  -5   5 -29    0.07    0.26
   5  -5  29   -0.10    0.21
  -7   5 -29    0.09    0.29
   7  -5  29    0.00    0.24
  -9   5 -29   -0.10    0.30
   9  -5  29   -0.09    0.25
 -11   5 -29    0.41    0.32
  11  -5  29    0.08    0.27
 -13  -3  29    0.15    0.22
 -11  -3  29    0.21    0.23
  -9  -3  29    0.15    0.23
  -7  -3  29    0.00    0.22
  -5  -3  29    0.00    0.22
  -3  -3  29    0.02    0.22
  -1  -3  29    0.34    0.25
   1  -3  29   -0.03    0.23
   3  -3  29   -0.12    0.21
  -5   3 -29    0.03    0.28
   5  -3  29   -0.17    0.20
  -7   3 -29    0.23    0.29
   7  -3  29   -0.03    0.22
  -9   3 -29    0.37    0.33
   9  -3  29   -0.12    0.26
  11  -3  29    0.05    0.23
  13  -3  29   -0.11    0.24
 -13  -1  29    0.09    0.24
 -11  -1  29   -0.03    0.17
  -9  -1  29    0.17    0.23
  -7  -1  29   -0.12    0.15
  -5  -1  29    0.58    0.28
  -3  -1  29    0.14    0.22
  -1  -1  29   -0.09    0.21
   1  -1  29    0.17    0.24
  -3   1 -29   -0.25    0.22
   3  -1  29    0.03    0.25
  -5   1 -29    0.60    0.32
   5  -1  29    0.12    0.24
  -7   1 -29    0.30    0.28
   7  -1  29   -0.16    0.19
  -9   1 -29    0.13    0.29
   9  -1  29    0.24    0.24
  11  -1  29   -0.15    0.22
  13  -1  29    0.18    0.27
  15  -1  29   -0.07    0.29
 -13   1  29   -0.26    0.17
 -11   1  29    0.29    0.22
  -9   1  29    0.54    0.25
  -7   1  29   -0.14    0.18
  -5   1  29    0.19    0.20
  -3   1  29   -0.04    0.22
  -1   1  29    0.28    0.24
  -1  -1 -29   -0.23    0.26
   1   1  29   -0.08    0.22
  -3  -1 -29    0.43    0.27
   3   1  29    0.20    0.25
  -5  -1 -29   -0.08    0.26
   5   1  29   -0.08    0.26
  -7  -1 -29    0.27    0.31
   7   1  29    0.25    0.23
   9   1  29    0.29    0.25
  11   1  29    0.11    0.25
  13   1  29   -0.02    0.24
  15   1  29   -0.03    0.31
 -13   3  29   -0.15    0.21
 -11   3  29    0.20    0.23
  -9   3  29    0.41    0.25
  -7   3  29   -0.02    0.18
  -5   3  29    0.07    0.20
  -3   3  29    0.00    0.17
   1  -3 -29   -0.06    0.28
  -1   3  29   -0.04    0.18
  -1  -3 -29    0.36    0.27
   1   3  29    0.35    0.27
  -3  -3 -29   -0.02    0.26
   3   3  29    0.23    0.22
  -5  -3 -29   -0.30    0.24
   5   3  29    0.15    0.23
  -7  -3 -29   -0.13    0.28
   7   3  29    0.06    0.26
   9   3  29    0.02    0.25
  11   3  29    0.22    0.29
  13   3  29   -0.26    0.24
  15   3  29   -0.07    0.29
 -15   5  29    0.04    0.26
 -13   5  29   -0.09    0.20
 -11   5  29    0.34    0.26
  -9   5  29    0.22    0.25
  -7   5  29    0.09    0.22
  -5   5  29   -0.16    0.16
   3  -5 -29    0.11    0.28
  -3   5  29   -0.25    0.16
   1  -5 -29   -0.26    0.28
  -1   5  29   -0.06    0.18
  -1  -5 -29   -0.07    0.27
   1   5  29   -0.01    0.20
  -3  -5 -29   -0.20    0.26
   3   5  29   -0.13    0.20
  -5  -5 -29   -0.18    0.24
   5   5  29    0.12    0.23
   7   5  29   -0.13    0.22
   9   5  29    0.05    0.27
  11   5  29    0.06    0.27
  13   5  29    0.06    0.29
 -13   7  29    0.05    0.25
 -11   7  29    0.14    0.23
  -9   7  29   -0.03    0.21
  -7   7  29   -0.16    0.22
   5  -7 -29    0.00    0.31
  -5   7  29   -0.09    0.28
  -5   7  29   -0.11    0.21
   3  -7 -29   -0.03    0.31
  -3   7  29   -0.11    0.17
   1  -7 -29    0.01    0.28
  -1   7  29    0.10    0.20
  -1  -7 -29   -0.29    0.28
   1   7  29   -0.17    0.16
  -3  -7 -29   -0.01    0.31
   3   7  29    0.22    0.21
   5   7  29    0.03    0.22
   7   7  29   -0.07    0.23
   9   7  29    0.18    0.27
  11   7  29   -0.14    0.28
 -13   9  29    0.23    0.29
 -11   9  29   -0.06    0.22
   9  -9 -29   -0.14    0.30
  -9   9  29   -0.08    0.18
  -9   9  29    0.04    0.30
   7  -9 -29   -0.13    0.29
  -7   9  29   -0.27    0.19
  -7   9  29    0.05    0.29
   5  -9 -29   -0.12    0.30
  -5   9  29   -0.11    0.27
  -5   9  29    0.14    0.21
   3  -9 -29   -0.14    0.29
  -3   9  29    0.42    0.26
   1  -9 -29   -0.12    0.29
  -1   9  29    0.47    0.25
  -1  -9 -29    0.15    0.28
   1   9  29    0.08    0.20
   3   9  29    0.22    0.23
   5   9  29    0.20    0.20
   7   9  29    0.04    0.25
   9   9  29    0.03    0.27
  13 -11 -29    0.28    0.37
 -13  11  29   -0.22    0.29
 -13  11  29   -0.04    0.25
  11 -11 -29   -0.12    0.30
 -11  11  29   -0.01    0.33
 -11  11  29    0.38    0.29
   9 -11 -29    0.02    0.32
  -9  11  29   -0.19    0.26
  -9  11  29    0.14    0.25
   7 -11 -29   -0.21    0.29
  -7  11  29    0.34    0.35
  -7  11  29    0.12    0.23
   5 -11 -29   -0.12    0.30
  -5  11  29    0.18    0.25
  -5  11  29    0.15    0.28
   3 -11 -29    0.23    0.33
  -3  11  29    0.03    0.31
  -3  11  29    0.17    0.21
   1 -11 -29   -0.04    0.29
  -1  11  29   -0.20    0.21
   1  11  29   -0.34    0.15
   3  11  29   -0.16    0.20
   5  11  29    0.01    0.21
   7  11  29   -0.27    0.16
  11 -13 -29   -0.02    0.36
 -11  13  29    0.08    0.32
 -11  13  29    0.08    0.28
   9 -13 -29    0.11    0.32
  -9  13  29    0.12    0.33
  -9  13  29   -0.08    0.24
   7 -13 -29    0.28    0.36
  -7  13  29   -0.08    0.25
  -7  13  29   -0.14    0.32
   5 -13 -29   -0.15    0.29
  -5  13  29    0.08    0.31
  -5  13  29   -0.04    0.25
  -3  13  29   -0.26    0.21
  -3  13  29   -0.09    0.30
  -1  13  29    0.04    0.24
   1  13  29   -0.05    0.21
   3  13  29    0.10    0.25
  -9  15  29    0.27    0.37
  -7  15  29    0.27    0.38
  -7  15  29   -0.14    0.25
  -5  15  29    0.11    0.35
  -5  15  29   -0.17    0.23
  -3  15  29    0.35    0.27
  -3  15  29   -0.18    0.31
  -5  17  29    0.26    0.31
  -3  17  29   -0.07    0.34
  -1  17  29    0.14    0.31
  -2  16 -30    0.50    0.44
   0 -14  30    0.85    0.40
   2 -14  30    7.71    0.75
  -6  14 -30    4.16    0.71
  -8  14 -30    0.25    0.43
  -2 -12  30    0.00    0.29
   0 -12  30   -0.09    0.28
   2 -12  30    0.17    0.32
   4 -12  30   -0.15    0.26
  -4 -10  30    1.14    0.43
  -2 -10  30    7.35    0.72
   0 -10  30    0.38    0.31
   2 -10  30    5.35    0.60
   4 -10  30    1.69    0.41
   6 -10  30    4.33    0.55
  -6  -8  30    0.21    0.27
  -4  -8  30   -0.10    0.24
  -2  -8  30    0.18    0.27
   0  -8  30   -0.10    0.24
   2  -8  30    0.14    0.27
   4  -8  30   -0.04    0.22
  -6   8 -30   -0.24    0.29
   6  -8  30   -0.04    0.26
  -8   8 -30    0.22    0.33
   8  -8  30    0.13    0.26
  -8  -6  30    0.15    0.29
  -6  -6  30    3.43    0.54
  -4  -6  30    0.03    0.27
  -2  -6  30    4.66    0.59
   0  -6  30    0.51    0.29
   2  -6  30    5.88    0.62
   4  -6  30    0.35    0.28
  -6   6 -30    4.68    0.59
   6  -6  30    2.33    0.43
  -8   6 -30   -0.08    0.30
   8  -6  30    0.35    0.29
 -10   6 -30    4.82    0.61
  10  -6  30    5.56    0.61
  -8  -4  30    0.09    0.25
  -6  -4  30    0.13    0.27
  -4  -4  30   -0.02    0.24
  -2  -4  30    0.02    0.22
   0  -4  30   -0.14    0.18
   2  -4  30    0.21    0.25
  -4   4 -30    0.10    0.29
   4  -4  30   -0.16    0.22
  -6   4 -30    0.27    0.32
   6  -4  30    0.29    0.25
  -8   4 -30   -0.09    0.27
   8  -4  30   -0.21    0.22
 -10   4 -30    1.75    0.47
  10  -4  30    0.91    0.35
  12  -4  30   -0.21    0.26
 -10  -2  30    8.29    0.74
  -8  -2  30    0.09    0.22
  -6  -2  30    3.72    0.54
  -4  -2  30    0.01    0.22
  -2  -2  30    9.16    0.73
   0  -2  30    0.27    0.27
   2  -2  30   11.21    0.80
  -4   2 -30    0.57    0.32
   4  -2  30    0.24    0.26
  -6   2 -30    4.97    0.60
   6  -2  30    5.41    0.60
  -8   2 -30    0.39    0.32
   8  -2  30    0.06    0.24
  10  -2  30    5.53    0.62
  12  -2  30    0.13    0.28
  14  -2  30    8.10    0.74
 -10   0  30    0.20    0.21
  -8   0  30    0.08    0.21
  -6   0  30    0.16    0.22
  -4   0  30    0.14    0.25
  -2   0  30    0.41    0.28
   0   0  30    0.00    0.20
  -2   0 -30    0.37    0.31
   2   0  30    0.15    0.24
  -4   0 -30    0.34    0.28
   4   0  30   -0.12    0.20
  -6   0 -30   -0.12    0.29
   6   0  30    0.07    0.25
  -8   0 -30   -0.11    0.29
   8   0  30   -0.11    0.25
  10   0  30    0.09    0.27
  12   0  30   -0.13    0.27
  14   0  30    0.23    0.34
 -10   2  30    6.27    0.65
  -8   2  30    0.09    0.21
  -6   2  30    4.78    0.57
  -4   2  30    0.02    0.19
  -2   2  30    9.47    0.75
   0  -2 -30    0.28    0.28
   0   2  30    0.26    0.29
  -2  -2 -30   10.43    0.81
   2   2  30    8.48    0.72
  -4  -2 -30    0.24    0.29
   4   2  30    0.10    0.21
  -6  -2 -30    5.38    0.63
   6   2  30    4.18    0.54
   8   2  30    0.01    0.28
  10   2  30    7.82    0.72
  12   2  30   -0.01    0.30
 -12   4  30   -0.18    0.19
 -10   4  30    1.49    0.39
  -8   4  30    0.22    0.21
  -6   4  30    0.12    0.19
  -4   4  30    0.07    0.25
   2  -4 -30   -0.06    0.28
  -2   4  30    0.10    0.21
   0  -4 -30    0.01    0.30
   0   4  30   -0.27    0.17
  -2  -4 -30   -0.11    0.26
   2   4  30   -0.04    0.25
  -4  -4 -30    0.23    0.28
   4   4  30   -0.29    0.22
  -6  -4 -30    0.36    0.33
   6   4  30   -0.08    0.23
   8   4  30    0.02    0.29
  10   4  30    1.59    0.43
 -10   6  30    5.13    0.61
  -8   6  30    0.26    0.25
  -6   6  30    2.48    0.45
   4  -6 -30    0.11    0.29
  -4   6  30    0.46    0.25
   2  -6 -30    5.19    0.61
  -2   6  30    5.05    0.58
   0  -6 -30    0.15    0.30
   0   6  30    0.34    0.25
  -2  -6 -30    4.61    0.62
   2   6  30    4.61    0.56
  -4  -6 -30    0.18    0.31
   4   6  30   -0.05    0.23
   6   6  30    4.28    0.59
   8   6  30   -0.04    0.26
 -10   8  30    0.28    0.25
   8  -8 -30    0.00    0.30
  -8   8  30   -0.24    0.23
   6  -8 -30   -0.01    0.29
  -6   8  30    0.58    0.34
  -6   8  30    0.09    0.23
   4  -8 -30   -0.10    0.31
  -4   8  30   -0.26    0.17
  -4   8  30   -0.13    0.28
   2  -8 -30   -0.16    0.24
  -2   8  30    0.16    0.23
   0  -8 -30   -0.03    0.25
   0   8  30    0.07    0.19
  -2  -8 -30   -0.21    0.30
   2   8  30   -0.06    0.18
   4   8  30   -0.07    0.21
   6   8  30    0.19    0.31
  12 -10 -30    0.96    0.43
  10 -10 -30    5.40    0.69
 -10  10  30    6.46    0.71
   8 -10 -30    0.17    0.31
  -8  10  30   -0.01    0.31
  -8  10  30    0.34    0.30
   6 -10 -30    5.10    0.64
  -6  10  30    6.57    0.72
  -6  10  30    6.57    0.68
   4 -10 -30    1.84    0.45
  -4  10  30    1.38    0.38
  -4  10  30    1.37    0.45
   2 -10 -30    8.69    0.79
  -2  10  30    7.24    0.69
   0 -10 -30    0.36    0.34
   0  10  30    0.37    0.25
   2  10  30    8.20    0.73
  10 -12 -30    0.40    0.39
 -10  12  30    0.86    0.39
   8 -12 -30    0.02    0.35
  -8  12  30    0.15    0.33
   6 -12 -30   -0.32    0.32
  -6  12  30    0.45    0.35
   4 -12 -30   -0.07    0.35
  -4  12  30    0.51    0.30
  -4  12  30    0.41    0.35
   8 -14 -30    0.27    0.41
  -8  14  30    0.34    0.36
   6 -14 -30    5.67    0.68
  -6  14  30    5.44    0.74
  -4  14  30   -0.16    0.32
  -2  14  30    8.43    0.85
  -2  16  30   -0.06    0.31
   1 -11  31    0.28    0.35
   3 -11  31   -0.28    0.28
   5 -11  31    0.11    0.32
  -1  -9  31   -0.14    0.31
   1  -9  31    0.04    0.31
   3  -9  31    0.21    0.31
   5  -9  31   -0.03    0.31
  -7   9 -31    0.20    0.34
   7  -9  31   -0.04    0.28
  -3  -7  31    0.11    0.25
  -1  -7  31    0.08    0.29
   1  -7  31   -0.07    0.30
   3  -7  31    0.02    0.28
   5  -7  31    0.08    0.29
  -7   7 -31   -0.38    0.30
   7  -7  31    0.04    0.30
  -9   7 -31   -0.21    0.31
   9  -7  31   -0.03    0.29
  -5  -5  31    0.07    0.26
  -3  -5  31   -0.14    0.23
  -1  -5  31    0.16    0.28
   1  -5  31    0.00    0.26
   3  -5  31    0.42    0.32
  -5   5 -31    0.09    0.30
   5  -5  31    0.25    0.29
  -7   5 -31    0.37    0.34
   7  -5  31   -0.11    0.27
  -9   5 -31    0.23    0.36
   9  -5  31   -0.11    0.29
 -11   5 -31   -0.36    0.30
  11  -5  31   -0.01    0.31
  -5  -3  31    0.05    0.27
  -3  -3  31   -0.19    0.23
  -1  -3  31   -0.05    0.26
   1  -3  31   -0.07    0.23
  -3   3 -31    0.41    0.33
   3  -3  31    0.07    0.31
  -5   3 -31    0.39    0.35
   5  -3  31    0.14    0.27
  -7   3 -31   -0.27    0.29
   7  -3  31    0.00    0.28
  -9   3 -31    0.00    0.33
   9  -3  31    0.41    0.33
  11  -3  31    0.31    0.33
  -7  -1  31   -0.18    0.20
  -5  -1  31    0.14    0.28
  -3  -1  31    0.34    0.29
  -1  -1  31   -0.21    0.22
   1  -1  31    0.22    0.26
  -3   1 -31    0.18    0.28
   3  -1  31   -0.17    0.24
  -5   1 -31    0.39    0.34
   5  -1  31    0.14    0.30
  -7   1 -31   -0.30    0.31
   7  -1  31   -0.04    0.30
  -9   1 -31    0.31    0.33
   9  -1  31   -0.20    0.28
  11  -1  31    0.05    0.29
  -7   1  31    0.02    0.20
  -5   1  31    0.19    0.22
  -3   1  31    0.21    0.29
  -1   1  31    0.18    0.25
  -1  -1 -31   -0.06    0.28
   1   1  31    0.32    0.29
  -3  -1 -31    0.11    0.29
   3   1  31    0.13    0.28
  -5  -1 -31   -0.17    0.27
   5   1  31    0.28    0.31
  -7  -1 -31    0.22    0.32
   7   1  31   -0.03    0.27
   9   1  31   -0.15    0.28
  -7   3  31    0.01    0.21
  -5   3  31    0.45    0.29
  -3   3  31    0.06    0.22
   1  -3 -31    0.07    0.31
  -1   3  31    0.01    0.24
  -1  -3 -31   -0.18    0.27
   1   3  31    0.02    0.26
  -3  -3 -31    0.14    0.32
   3   3  31   -0.13    0.25
  -5  -3 -31    0.48    0.34
   5   3  31   -0.09    0.22
   7   3  31    0.05    0.25
  -5   5  31   -0.06    0.20
   3  -5 -31   -0.12    0.27
  -3   5  31    0.10    0.22
   1  -5 -31   -0.06    0.30
  -1   5  31    0.04    0.20
  -1  -5 -31    0.34    0.34
   1   5  31    0.21    0.25
  -3  -5 -31    0.49    0.33
   3   5  31    0.50    0.31
  -5  -5 -31   -0.24    0.31
   5   5  31   -0.26    0.24
   7  -7 -31    0.06    0.34
   5  -7 -31    0.16    0.36
   3  -7 -31   -0.10    0.28
  -3   7  31   -0.12    0.20
   1  -7 -31   -0.16    0.32
  -1   7  31   -0.01    0.23
  -1  -7 -31   -0.15    0.30
   1   7  31   -0.01    0.20
  -3  -7 -31   -0.26    0.33
   7  -9 -31   -0.04    0.35
   5  -9 -31   -0.16    0.31
  -5   9  31    0.14    0.33
   3  -9 -31   -0.12    0.30
  -3   9  31    0.16    0.33
   1  -9 -31   -0.11    0.31
  -1  -9 -31   -0.17    0.34
  -9  11  31    0.24    0.35
  -7  11  31   -0.38    0.33
  -5  11  31   -0.18    0.30
   3 -11 -31    0.79    0.42
  -3  11  31    0.23    0.35
  -5  13  31    0.06    0.33
  -3  13  31    0.36    0.37
  -6  10 -32   -0.77    0.28
  -6   8 -32   -0.17    0.33
  -8   8 -32   15.33    0.99
  -4   6 -32    0.65    0.33
  -6   6 -32    0.14    0.32
  -8   6 -32   -0.38    0.26
 -10   6 -32   -0.30    0.34
  -4   4 -32   17.10    1.02
   4  -4  32   18.58    1.09
  -6   4 -32    0.73    0.36
  -8   4 -32   15.25    0.99
 -10   4 -32    0.39    0.35
  -2   2 -32   -0.59    0.26
  -4   2 -32   -0.06    0.28
  -6   2 -32   -0.40    0.27
  -8   2 -32    0.37    0.33
   0   0 -32   30.38    1.38
  -2   0 -32   -0.10    0.27
  -4   0 -32   19.33    1.07
  -6   0 -32    0.36    0.32
  -8   0 -32   21.17    1.15
   2  -2 -32    0.15    0.33
   0  -2 -32    0.25    0.33
  -2  -2 -32   -0.49    0.29
  -4  -2 -32   -0.02    0.32
  -6  -2 -32    0.34    0.34
   4  -4 -32   15.90    1.04
   2  -4 -32   -0.15    0.34
   0  -4 -32   18.37    1.08
  -2  -4 -32   -0.30    0.33
  -4  -4 -32   16.21    1.03
   2  -6 -32   -0.38    0.34
   0  -6 -32    0.45    0.38
  -6  10  32   -0.09    0.37
  -4  10  32   -0.01    0.34
  -2  10  32   -0.15    0.32
   0   0   0    0.00    0.00
;
_shelx_hkl_checksum              89454
loop_
_space_group_symop_operation_xyz
'x, y, z'
'-x+1/4, -y+3/4, z+1/2'
'-x+3/4, y+1/2, -z+1/4'
'x+1/2, -y+1/4, -z+3/4'
'z, x, y'
'z+1/2, -x+1/4, -y+3/4'
'-z+1/4, -x+3/4, y+1/2'
'-z+3/4, x+1/2, -y+1/4'
'y, z, x'
'-y+3/4, z+1/2, -x+1/4'
'y+1/2, -z+1/4, -x+3/4'
'-y+1/4, -z+3/4, x+1/2'
'y+3/4, x+1/4, -z'
'-y+1/2, -x+1/2, -z+1/2'
'y+1/4, -x, z+3/4'
'-y, x+3/4, z+1/4'
'x+3/4, z+1/4, -y'
'-x, z+3/4, y+1/4'
'-x+1/2, -z+1/2, -y+1/2'
'x+1/4, -z, y+3/4'
'z+3/4, y+1/4, -x'
'z+1/4, -y, x+3/4'
'-z, y+3/4, x+1/4'
'-z+1/2, -y+1/2, -x+1/2'
'x, y+1/2, z+1/2'
'-x+1/4, -y+5/4, z+1'
'-x+3/4, y+1, -z+3/4'
'x+1/2, -y+3/4, -z+5/4'
'z, x+1/2, y+1/2'
'z+1/2, -x+3/4, -y+5/4'
'-z+1/4, -x+5/4, y+1'
'-z+3/4, x+1, -y+3/4'
'y, z+1/2, x+1/2'
'-y+3/4, z+1, -x+3/4'
'y+1/2, -z+3/4, -x+5/4'
'-y+1/4, -z+5/4, x+1'
'y+3/4, x+3/4, -z+1/2'
'-y+1/2, -x+1, -z+1'
'y+1/4, -x+1/2, z+5/4'
'-y, x+5/4, z+3/4'
'x+3/4, z+3/4, -y+1/2'
'-x, z+5/4, y+3/4'
'-x+1/2, -z+1, -y+1'
'x+1/4, -z+1/2, y+5/4'
'z+3/4, y+3/4, -x+1/2'
'z+1/4, -y+1/2, x+5/4'
'-z, y+5/4, x+3/4'
'-z+1/2, -y+1, -x+1'
'x+1/2, y, z+1/2'
'-x+3/4, -y+3/4, z+1'
'-x+5/4, y+1/2, -z+3/4'
'x+1, -y+1/4, -z+5/4'
'z+1/2, x, y+1/2'
'z+1, -x+1/4, -y+5/4'
'-z+3/4, -x+3/4, y+1'
'-z+5/4, x+1/2, -y+3/4'
'y+1/2, z, x+1/2'
'-y+5/4, z+1/2, -x+3/4'
'y+1, -z+1/4, -x+5/4'
'-y+3/4, -z+3/4, x+1'
'y+5/4, x+1/4, -z+1/2'
'-y+1, -x+1/2, -z+1'
'y+3/4, -x, z+5/4'
'-y+1/2, x+3/4, z+3/4'
'x+5/4, z+1/4, -y+1/2'
'-x+1/2, z+3/4, y+3/4'
'-x+1, -z+1/2, -y+1'
'x+3/4, -z, y+5/4'
'z+5/4, y+1/4, -x+1/2'
'z+3/4, -y, x+5/4'
'-z+1/2, y+3/4, x+3/4'
'-z+1, -y+1/2, -x+1'
'x+1/2, y+1/2, z'
'-x+3/4, -y+5/4, z+1/2'
'-x+5/4, y+1, -z+1/4'
'x+1, -y+3/4, -z+3/4'
'z+1/2, x+1/2, y'
'z+1, -x+3/4, -y+3/4'
'-z+3/4, -x+5/4, y+1/2'
'-z+5/4, x+1, -y+1/4'
'y+1/2, z+1/2, x'
'-y+5/4, z+1, -x+1/4'
'y+1, -z+3/4, -x+3/4'
'-y+3/4, -z+5/4, x+1/2'
'y+5/4, x+3/4, -z'
'-y+1, -x+1, -z+1/2'
'y+3/4, -x+1/2, z+3/4'
'-y+1/2, x+5/4, z+1/4'
'x+5/4, z+3/4, -y'
'-x+1/2, z+5/4, y+1/4'
'-x+1, -z+1, -y+1/2'
'x+3/4, -z+1/2, y+3/4'
'z+5/4, y+3/4, -x'
'z+3/4, -y+1/2, x+3/4'
'-z+1/2, y+5/4, x+1/4'
'-z+1, -y+1, -x+1/2'
'-x, -y, -z'
'x-1/4, y-3/4, -z-1/2'
'x-3/4, -y-1/2, z-1/4'
'-x-1/2, y-1/4, z-3/4'
'-z, -x, -y'
'-z-1/2, x-1/4, y-3/4'
'z-1/4, x-3/4, -y-1/2'
'z-3/4, -x-1/2, y-1/4'
'-y, -z, -x'
'y-3/4, -z-1/2, x-1/4'
'-y-1/2, z-1/4, x-3/4'
'y-1/4, z-3/4, -x-1/2'
'-y-3/4, -x-1/4, z'
'y-1/2, x-1/2, z-1/2'
'-y-1/4, x, -z-3/4'
'y, -x-3/4, -z-1/4'
'-x-3/4, -z-1/4, y'
'x, -z-3/4, -y-1/4'
'x-1/2, z-1/2, y-1/2'
'-x-1/4, z, -y-3/4'
'-z-3/4, -y-1/4, x'
'-z-1/4, y, -x-3/4'
'z, -y-3/4, -x-1/4'
'z-1/2, y-1/2, x-1/2'
'-x, -y+1/2, -z+1/2'
'x-1/4, y-1/4, -z'
'x-3/4, -y, z+1/4'
'-x-1/2, y+1/4, z-1/4'
'-z, -x+1/2, -y+1/2'
'-z-1/2, x+1/4, y-1/4'
'z-1/4, x-1/4, -y'
'z-3/4, -x, y+1/4'
'-y, -z+1/2, -x+1/2'
'y-3/4, -z, x+1/4'
'-y-1/2, z+1/4, x-1/4'
'y-1/4, z-1/4, -x'
'-y-3/4, -x+1/4, z+1/2'
'y-1/2, x, z'
'-y-1/4, x+1/2, -z-1/4'
'y, -x-1/4, -z+1/4'
'-x-3/4, -z+1/4, y+1/2'
'x, -z-1/4, -y+1/4'
'x-1/2, z, y'
'-x-1/4, z+1/2, -y-1/4'
'-z-3/4, -y+1/4, x+1/2'
'-z-1/4, y+1/2, -x-1/4'
'z, -y-1/4, -x+1/4'
'z-1/2, y, x'
'-x+1/2, -y, -z+1/2'
'x+1/4, y-3/4, -z'
'x-1/4, -y-1/2, z+1/4'
'-x, y-1/4, z-1/4'
'-z+1/2, -x, -y+1/2'
'-z, x-1/4, y-1/4'
'z+1/4, x-3/4, -y'
'z-1/4, -x-1/2, y+1/4'
'-y+1/2, -z, -x+1/2'
'y-1/4, -z-1/2, x+1/4'
'-y, z-1/4, x-1/4'
'y+1/4, z-3/4, -x'
'-y-1/4, -x-1/4, z+1/2'
'y, x-1/2, z'
'-y+1/4, x, -z-1/4'
'y+1/2, -x-3/4, -z+1/4'
'-x-1/4, -z-1/4, y+1/2'
'x+1/2, -z-3/4, -y+1/4'
'x, z-1/2, y'
'-x+1/4, z, -y-1/4'
'-z-1/4, -y-1/4, x+1/2'
'-z+1/4, y, -x-1/4'
'z+1/2, -y-3/4, -x+1/4'
'z, y-1/2, x'
'-x+1/2, -y+1/2, -z'
'x+1/4, y-1/4, -z-1/2'
'x-1/4, -y, z-1/4'
'-x, y+1/4, z-3/4'
'-z+1/2, -x+1/2, -y'
'-z, x+1/4, y-3/4'
'z+1/4, x-1/4, -y-1/2'
'z-1/4, -x, y-1/4'
'-y+1/2, -z+1/2, -x'
'y-1/4, -z, x-1/4'
'-y, z+1/4, x-3/4'
'y+1/4, z-1/4, -x-1/2'
'-y-1/4, -x+1/4, z'
'y, x, z-1/2'
'-y+1/4, x+1/2, -z-3/4'
'y+1/2, -x-1/4, -z-1/4'
'-x-1/4, -z+1/4, y'
'x+1/2, -z-1/4, -y-1/4'
'x, z, y-1/2'
'-x+1/4, z+1/2, -y-3/4'
'-z-1/4, -y+1/4, x'
'-z+1/4, y+1/2, -x-3/4'
'z+1/2, -y-1/4, -x-1/4'
'z, y, x-1/2'
loop_
_atom_site_label
_atom_site_type_symbol
_atom_site_fract_x
_atom_site_fract_y
_atom_site_fract_z
_atom_site_U_iso_or_equiv
_atom_site_adp_type
_atom_site_occupancy
_atom_site_site_symmetry_order
_atom_site_calc_flag
_atom_site_refinement_flags_posn
_atom_site_refinement_flags_adp
_atom_site_refinement_flags_occupancy
Dy1 Dy 0.5000 0.2500 0.5000 0.0273(3) Uani 1 6 d S T P
Co1 Co 0.5000 0.2500 0.2500 0.0241(6) Uani 1 6 d S T P
Co2 Co 0.6250 0.1250 0.1250 0.0505(9) Uani 1 12 d S T P
C3 C 0.4974(2) 0.2415(3) 0.3723(3) 0.0372(19) Uani 1 1 d . . .
O3 O 0.47850(17) 0.23681(17) 0.32789(18) 0.0411(10) Uani 1 1 d . . .
O2 O 0.46972(17) 0.24153(17) 0.41313(16) 0.0444(11) Uani 1 1 d . . .
C4 C 0.5556(2) 0.2474(3) 0.3793(2) 0.0466(17) Uani 1 1 d . . .
H4A H 0.5734 0.2179 0.3638 0.056 Uiso 1 1 calc R U .
H4B H 0.5674 0.2789 0.3621 0.056 Uiso 1 1 calc R U .
O4 O 0.6250 0.2063(3) 0.1250 0.064(2) Uani 1 2 d S T P
H4 H 0.6022 0.2169 0.1447 0.097 Uiso 0.5 1 calc R U P
O1 O 0.56707(15) 0.2500 0.43293(15) 0.0387(14) Uani 1 2 d S T P
O1W O 0.6250 0.3277(11) 0.1250 0.226(10) Uani 1 2 d S T P
loop_
_atom_site_aniso_label
_atom_site_aniso_U_11
_atom_site_aniso_U_22
_atom_site_aniso_U_33
_atom_site_aniso_U_23
_atom_site_aniso_U_13
_atom_site_aniso_U_12
Dy1 0.0273(3) 0.0273(3) 0.0273(3) -0.00914(13) 0.00914(13) -0.00914(13)
Co1 0.0241(6) 0.0241(6) 0.0241(6) 0.0029(3) -0.0029(3) -0.0029(3)
Co2 0.0505(9) 0.0505(9) 0.0505(9) 0.000 0.000 0.000
C3 0.045(4) 0.027(3) 0.039(5) -0.010(2) 0.006(2) -0.004(2)
O3 0.044(3) 0.043(2) 0.036(3) -0.0056(19) 0.003(2) -0.001(2)
O2 0.039(2) 0.058(3) 0.036(3) -0.012(2) 0.0087(19) -0.011(2)
C4 0.038(4) 0.065(4) 0.037(4) -0.009(3) 0.011(3) -0.011(3)
O4 0.050(4) 0.055(4) 0.088(6) 0.000 0.000(4) 0.000
O1 0.0314(19) 0.053(4) 0.0314(19) -0.0106(18) 0.006(2) -0.0106(18)
O1W 0.154(16) 0.31(3) 0.22(2) 0.000 0.027(14) 0.000
loop_
_atom_type_symbol
_atom_type_description
_atom_type_scat_dispersion_real
_atom_type_scat_dispersion_imag
_atom_type_scat_source
C C 0.0033 0.0016 'International Tables Vol C Tables 4.2.6.8 and 6.1.1.4'
H H 0.0000 0.0000 'International Tables Vol C Tables 4.2.6.8 and 6.1.1.4'
O O 0.0106 0.0060 'International Tables Vol C Tables 4.2.6.8 and 6.1.1.4'
Co Co 0.3494 0.9721 'International Tables Vol C Tables 4.2.6.8 and 6.1.1.4'
Dy Dy -0.1892 4.4098 'International Tables Vol C Tables 4.2.6.8 and 6.1.1.4'
loop_
_geom_angle_atom_site_label_1
_geom_angle_atom_site_label_2
_geom_angle_atom_site_label_3
_geom_angle
_geom_angle_site_symmetry_1
_geom_angle_site_symmetry_3
O2 Dy1 O2 78.94(17) 72 18_645
O2 Dy1 O2 86.3(2) 72 60_554
O2 Dy1 O2 145.5(2) 18_645 60_554
O2 Dy1 O2 145.5(2) 72 78_455
O2 Dy1 O2 128.7(2) 18_645 78_455
O2 Dy1 O2 78.94(17) 60_554 78_455
O2 Dy1 O2 78.94(17) 72 85_446
O2 Dy1 O2 78.94(17) 18_645 85_446
O2 Dy1 O2 128.7(2) 60_554 85_446
O2 Dy1 O2 86.3(2) 78_455 85_446
O2 Dy1 O2 128.7(2) 72 .
O2 Dy1 O2 86.3(2) 18_645 .
O2 Dy1 O2 78.94(17) 60_554 .
O2 Dy1 O2 78.94(17) 78_455 .
O2 Dy1 O2 145.5(2) 85_446 .
O2 Dy1 O1 64.33(10) 72 .
O2 Dy1 O1 72.75(10) 18_645 .
O2 Dy1 O1 72.75(10) 60_554 .
O2 Dy1 O1 136.87(11) 78_455 .
O2 Dy1 O1 136.87(11) 85_446 .
O2 Dy1 O1 64.33(10) . .
O2 Dy1 O1 72.75(10) 72 60_554
O2 Dy1 O1 136.87(11) 18_645 60_554
O2 Dy1 O1 64.33(10) 60_554 60_554
O2 Dy1 O1 72.75(10) 78_455 60_554
O2 Dy1 O1 64.33(10) 85_446 60_554
O2 Dy1 O1 136.87(11) . 60_554
O1 Dy1 O1 120.0 . 60_554
O2 Dy1 O1 136.87(11) 72 78_455
O2 Dy1 O1 64.33(10) 18_645 78_455
O2 Dy1 O1 136.87(11) 60_554 78_455
O2 Dy1 O1 64.33(10) 78_455 78_455
O2 Dy1 O1 72.75(10) 85_446 78_455
O2 Dy1 O1 72.75(10) . 78_455
O1 Dy1 O1 120.0 . 78_455
O1 Dy1 O1 120.0 60_554 78_455
O3 Co1 O3 93.11(16) . 106_665
O3 Co1 O3 86.89(16) . 34_545
O3 Co1 O3 180.0(2) 106_665 34_545
O3 Co1 O3 86.89(16) . 55_554
O3 Co1 O3 93.11(16) 106_665 55_554
O3 Co1 O3 86.89(16) 34_545 55_554
O3 Co1 O3 93.11(16) . 175_556
O3 Co1 O3 86.89(16) 106_665 175_556
O3 Co1 O3 93.11(16) 34_545 175_556
O3 Co1 O3 180.0(2) 55_554 175_556
O3 Co1 O3 180.0 . 121_655
O3 Co1 O3 86.89(16) 106_665 121_655
O3 Co1 O3 93.11(16) 34_545 121_655
O3 Co1 O3 93.11(16) 55_554 121_655
O3 Co1 O3 86.89(16) 175_556 121_655
O4 Co2 O4 90.0 . 34_545
O4 Co2 O4 180.0 . 26_644
O4 Co2 O4 90.000(1) 34_545 26_644
O4 Co2 O4 90.0 . 77_545
O4 Co2 O4 90.0 34_545 77_545
O4 Co2 O4 90.0 26_644 77_545
O4 Co2 O4 90.0 . 30_554
O4 Co2 O4 90.0 34_545 30_554
O4 Co2 O4 90.0 26_644 30_554
O4 Co2 O4 180.0 77_545 30_554
O4 Co2 O4 90.0 . 57_554
O4 Co2 O4 180.0 34_545 57_554
O4 Co2 O4 90.0 26_644 57_554
O4 Co2 O4 90.0 77_545 57_554
O4 Co2 O4 90.0 30_554 57_554
O3 C3 O2 122.6(6) . .
O3 C3 C4 120.3(6) . .
O2 C3 C4 117.1(6) . .
C3 O3 Co1 138.8(4) . .
C3 O2 Dy1 126.4(4) . .
O1 C4 C3 109.2(5) . .
O1 C4 H4A 109.8 . .
C3 C4 H4A 109.8 . .
O1 C4 H4B 109.8 . .
C3 C4 H4B 109.8 . .
H4A C4 H4B 108.3 . .
Co2 O4 H4 109.5 . .
C4 O1 C4 114.3(6) 72 .
C4 O1 Dy1 122.8(3) 72 .
C4 O1 Dy1 122.8(3) . .
loop_
_geom_bond_atom_site_label_1
_geom_bond_atom_site_label_2
_geom_bond_distance
_geom_bond_site_symmetry_2
Dy1 O2 2.371(4) 72
Dy1 O2 2.371(4) 18_645
Dy1 O2 2.371(4) 60_554
Dy1 O2 2.371(4) 78_455
Dy1 O2 2.371(4) 85_446
Dy1 O2 2.371(4) .
Dy1 O1 2.434(6) .
Dy1 O1 2.434(6) 60_554
Dy1 O1 2.434(6) 78_455
Co1 O3 2.101(5) .
Co1 O3 2.101(5) 106_665
Co1 O3 2.101(5) 34_545
Co1 O3 2.101(5) 55_554
Co1 O3 2.101(5) 175_556
Co1 O3 2.101(5) 121_655
Co2 O4 2.086(8) .
Co2 O4 2.086(8) 34_545
Co2 O4 2.086(8) 26_644
Co2 O4 2.086(8) 77_545
Co2 O4 2.086(8) 30_554
Co2 O4 2.086(8) 57_554
C3 O3 1.245(8) .
C3 O2 1.267(8) .
C3 C4 1.510(9) .
C4 O1 1.409(7) .
C4 H4A 0.9700 .
C4 H4B 0.9700 .
O4 H4 0.8200 .
O1 C4 1.409(7) 72
loop_
_geom_torsion_atom_site_label_1
_geom_torsion_atom_site_label_2
_geom_torsion_atom_site_label_3
_geom_torsion_atom_site_label_4
_geom_torsion
_geom_torsion_site_symmetry_4
O2 C3 O3 Co1 162.6(4) .
C4 C3 O3 Co1 -17.6(10) .
O3 C3 O2 Dy1 179.9(4) .
C4 C3 O2 Dy1 0.1(9) .
O3 C3 C4 O1 -177.7(5) .
O2 C3 C4 O1 2.1(9) .
C3 C4 O1 C4 176.6(7) 72
C3 C4 O1 Dy1 -3.4(7) .
