#------------------------------------------------------------------------------
#$Date: 2019-11-25 02:38:54 +0200 (Mon, 25 Nov 2019) $
#$Revision: 239977 $
#$URL: file:///home/coder/svn-repositories/cod/cif/4/35/06/4350646.cif $
#------------------------------------------------------------------------------
#
# This file is available in the Crystallography Open Database (COD),
# http://www.crystallography.net/
#
# All data on this site have been placed in the public domain by the
# contributors.
#
data_4350646
loop_
_publ_author_name
'Huang, Xiao-feng'
'Ma, Jing-xin'
'Liu, Wei-sheng'
_publ_section_title
;
 Lanthanide metalloligand strategy toward d-f heterometallic metal-organic
 frameworks: magnetism and symmetric-dependent luminescent properties.
;
_journal_issue                   12
_journal_name_full               'Inorganic chemistry'
_journal_page_first              5922
_journal_page_last               5930
_journal_paper_doi               10.1021/ic403080n
_journal_volume                  53
_journal_year                    2014
_chemical_formula_sum            'C24 H30 Co3 Er2 O42'
_chemical_formula_weight         1501.79
_space_group_crystal_system      cubic
_space_group_IT_number           228
_space_group_name_Hall           '-F 4ud 2vw 3'
_space_group_name_H-M_alt        'F d -3 c :2'
_atom_sites_solution_hydrogens   geom
_audit_creation_method           SHELXL-2013
_cell_angle_alpha                90
_cell_angle_beta                 90
_cell_angle_gamma                90
_cell_formula_units_Z            16
_cell_length_a                   25.5382(8)
_cell_length_b                   25.5382(8)
_cell_length_c                   25.5382(8)
_cell_measurement_temperature    296(2)
_cell_volume                     16656.0(9)
_computing_structure_refinement  'SHELXL-2013 (Sheldrick, 2013)'
_diffrn_ambient_temperature      296(2)
_diffrn_measured_fraction_theta_full 0.927
_diffrn_measured_fraction_theta_max 0.934
_diffrn_radiation_type           MoK\a
_diffrn_radiation_wavelength     0.71073
_diffrn_reflns_av_R_equivalents  0.0312
_diffrn_reflns_av_unetI/netI     0.0098
_diffrn_reflns_Laue_measured_fraction_full 0.927
_diffrn_reflns_Laue_measured_fraction_max 0.934
_diffrn_reflns_limit_h_max       31
_diffrn_reflns_limit_h_min       -28
_diffrn_reflns_limit_k_max       32
_diffrn_reflns_limit_k_min       -25
_diffrn_reflns_limit_l_max       33
_diffrn_reflns_limit_l_min       -25
_diffrn_reflns_number            19916
_diffrn_reflns_point_group_measured_fraction_full 0.927
_diffrn_reflns_point_group_measured_fraction_max 0.934
_diffrn_reflns_theta_full        25.242
_diffrn_reflns_theta_max         27.471
_diffrn_reflns_theta_min         2.256
_exptl_absorpt_coefficient_mu    5.292
_exptl_absorpt_correction_T_max  0.289
_exptl_absorpt_correction_T_min  0.214
_exptl_absorpt_correction_type   multi-scan
_exptl_absorpt_process_details   SADABS
_exptl_crystal_density_diffrn    2.396
_exptl_crystal_F_000             11632
_exptl_crystal_size_max          0.290
_exptl_crystal_size_mid          0.250
_exptl_crystal_size_min          0.230
_refine_diff_density_max         0.772
_refine_diff_density_min         -0.935
_refine_diff_density_rms         0.100
_refine_ls_extinction_method     none
_refine_ls_goodness_of_fit_ref   1.082
_refine_ls_hydrogen_treatment    constr
_refine_ls_matrix_type           full
_refine_ls_number_parameters     58
_refine_ls_number_reflns         756
_refine_ls_number_restraints     0
_refine_ls_restrained_S_all      1.082
_refine_ls_R_factor_all          0.0378
_refine_ls_R_factor_gt           0.0270
_refine_ls_shift/su_max          0.000
_refine_ls_shift/su_mean         0.000
_refine_ls_structure_factor_coef Fsqd
_refine_ls_weighting_details
'w=1/[\s^2^(Fo^2^)+(0.0329P)^2^+427.6400P] where P=(Fo^2^+2Fc^2^)/3'
_refine_ls_weighting_scheme      calc
_refine_ls_wR_factor_gt          0.0781
_refine_ls_wR_factor_ref         0.0877
_reflns_Friedel_coverage         0.000
_reflns_number_gt                565
_reflns_number_total             756
_reflns_threshold_expression     'I > 2\s(I)'
_cod_data_source_file            ic403080n_si_002.cif
_cod_data_source_block           1c
_cod_original_cell_volume        16656.0(16)
_cod_original_sg_symbol_Hall     '-F 4cvw 2vw 3'
_cod_original_sg_symbol_H-M      'F d -3 c'
_cod_database_code               4350646
_shelx_space_group_comment
;
The symmetry employed for this shelxl refinement is uniquely defined
by the following loop, which should always be used as a source of
symmetry information in preference to the above space-group names.
They are only intended as comments.
;
_shelx_estimated_absorpt_t_min   0.053
_shelx_estimated_absorpt_t_max   0.071
_shelxl_version_number           2013-4
_shelx_res_file
;
TITL ErCo in Fd-3c
CELL 0.71073  25.5382  25.5382  25.5382  90.000  90.000  90.000
ZERR  164.00   0.0008   0.0008   0.0008   0.000   0.000   0.000
LATT 4
SYMM 0.25-X, 0.75-Y, 0.5+Z
SYMM 0.75-X, 0.5+Y, 0.25-Z
SYMM 0.5+X, 0.25-Y, 0.75-Z
SYMM Z, X, Y
SYMM 0.5+Z, 0.25-X, 0.75-Y
SYMM 0.25-Z, 0.75-X, 0.5+Y
SYMM 0.75-Z, 0.5+X, 0.25-Y
SYMM Y, Z, X
SYMM 0.75-Y, 0.5+Z, 0.25-X
SYMM 0.5+Y, 0.25-Z, 0.75-X
SYMM 0.25-Y, 0.75-Z, 0.5+X
SYMM 0.75+Y, 0.25+X, -Z
SYMM 0.5-Y, 0.5-X, 0.5-Z
SYMM 0.25+Y, -X, 0.75+Z
SYMM -Y, 0.75+X, 0.25+Z
SYMM 0.75+X, 0.25+Z, -Y
SYMM -X, 0.75+Z, 0.25+Y
SYMM 0.5-X, 0.5-Z, 0.5-Y
SYMM 0.25+X, -Z, 0.75+Y
SYMM 0.75+Z, 0.25+Y, -X
SYMM 0.25+Z, -Y, 0.75+X
SYMM -Z, 0.75+Y, 0.25+X
SYMM 0.5-Z, 0.5-Y, 0.5-X
SFAC C  H  O  Co Er
UNIT 384  480  672  164  164
OMIT   4   4   4
OMIT   2   4   4
OMIT   4   6   6
OMIT   2   8   8
OMIT   2   2   4
OMIT   6  16  16
OMIT   8  10  12
OMIT   4   4   6
OMIT   0   0   8
OMIT   4   6   8
OMIT   6   8  12
OMIT   6  12  12
OMIT   4  10  16
OMIT  16  16  18
OMIT   6  12  24
OMIT   4   6  16
OMIT   0   4   4
OMIT   3   7  23
OMIT   4  10  28
OMIT   8  16  22
OMIT   3  17  21
OMIT   6   8  16
OMIT  11  13  19
OMIT   2   4   8
OMIT   7  17  21
OMIT   7  15  25
OMIT   1   9  21
OMIT   6  10  24
OMIT   1  15  21
OMIT   1  15  17
OMIT   6  16  20
OMIT   2   4   6
OMIT  11  17  19
OMIT   2   8  18
OMIT   4  16  22
OMIT   3  13  19
OMIT   1  17  21
OMIT   7  13  15
OMIT   2   8  14
OMIT   9  11  25
OMIT   4   6  14
OMIT   8  14  26
OMIT   0   2  10
OMIT   0  22  22
OMIT   6  18  24
OMIT  10  14  24
OMIT   8   8  10
OMIT   1  19  25
OMIT   7  15  17
L.S. 20
BOND $H
FMAP 2
PLAN 20
ACTA
CONF
SIZE 0.29 0.25 0.23
TEMP 23.000
WGHT    0.032900  427.640015
FVAR       0.00731
MOLE 1
ER1   5    0.500000    0.250000    0.500000    10.16667    0.01746    0.01746 =
         0.01746   -0.00513    0.00513   -0.00513
CO1   4    0.500000    0.250000    0.250000    10.16667    0.01507    0.01507 =
         0.01507   -0.00077    0.00077    0.00077
MOLE 2
CO2   4    0.625000    0.125000    0.125000    10.08333    0.03596    0.03596 =
         0.03596    0.00000    0.00000    0.00000
MOLE 1
C1    1    0.496703    0.241792    0.372634    11.00000    0.02952    0.02110 =
         0.02457   -0.00413    0.00444    0.00019
C2    1    0.554912    0.247448    0.379346    11.00000    0.02786    0.06159 =
         0.02119   -0.00381    0.00684   -0.00880
AFIX  23
H4A   2    0.572648    0.217771    0.363619    11.00000   -1.20000
H4B   2    0.566882    0.279041    0.361989    11.00000   -1.20000
AFIX   0
O1    3    0.566802    0.250000    0.433198    10.50000    0.02105    0.04038 =
         0.02105   -0.00616    0.00148   -0.00616
O2    3    0.469252    0.241694    0.413733    11.00000    0.02526    0.04637 =
         0.02684   -0.00881    0.00609   -0.00405
O3    3    0.477847    0.236692    0.328062    11.00000    0.03011    0.03370 =
         0.02485   -0.00128   -0.00008   -0.00302
O4    3    0.625000    0.206409    0.125000    10.50000    0.03617    0.03936 =
         0.08369    0.00000   -0.00589    0.00000
AFIX 147
H4    2    0.595186    0.217111    0.119754    10.50000   -1.50000
AFIX   0
O5    3    0.625000    0.331458    0.125000    10.50000    0.21913    0.18746 =
         0.26439    0.00000    0.06330    0.00000
HKLF 4

REM  ErCo in Fd-3c
REM R1 =  0.0270 for     565 Fo > 4sig(Fo)  and  0.0378 for all     756 data
REM     58 parameters refined using      0 restraints

END

WGHT      0.0301    366.6817

REM Highest difference peak  0.772,  deepest hole -0.935,  1-sigma level  0.100
Q1    1   0.5098  0.2467  0.3746  11.00000  0.05    0.35
Q2    1   0.4829  0.2317  0.4026  11.00000  0.05    0.32
Q3    1   0.6094  0.1406  0.1094  10.33333  0.05    0.31
Q4    1   0.5869  0.3724  0.1378  11.00000  0.05    0.30
Q5    1   0.4895  0.2385  0.3926  11.00000  0.05    0.30
Q6    1   0.4889  0.2592  0.4645  11.00000  0.05    0.29
Q7    1   0.5075  0.2941  0.4920  11.00000  0.05    0.29
Q8    1   0.6683  0.3664  0.1241  11.00000  0.05    0.27
Q9    1   0.6554  0.1654  0.1015  11.00000  0.05    0.27
Q10   1   0.4584  0.2354  0.4131  11.00000  0.05    0.26
Q11   1   0.5958  0.2184  0.1066  11.00000  0.05    0.26
Q12   1   0.4837  0.2369  0.3353  11.00000  0.05    0.26
Q13   1   0.4890  0.2834  0.4103  11.00000  0.05    0.25
Q14   1   0.4794  0.2395  0.4291  11.00000  0.05    0.25
Q15   1   0.5982  0.1732  0.1597  11.00000  0.05    0.25
Q16   1   0.5838  0.1858  0.3701  11.00000  0.05    0.25
Q17   1   0.6296  0.1796  0.1196  11.00000  0.05    0.25
Q18   1   0.4862  0.2399  0.3147  11.00000  0.05    0.24
Q19   1   0.5901  0.1793  0.3687  11.00000  0.05    0.24
Q20   1   0.6250  0.2771  0.1250  10.50000  0.05    0.23
;
_shelx_res_checksum              49332
_shelx_hkl_file
;
   1  -1   1    0.20    0.02
   1   1   1    0.11    0.01
  -1  -1   1    0.20    0.02
   2  -2   0   17.38    0.44
   0   2   2   16.52    0.44
  -2   0   2   16.92    0.45
   0  -2   2   16.99    0.46
   2   0   2   17.43    0.45
  -2   2   2  102.58    2.45
  -2  -2   2  101.68    2.46
   2   2   2  106.09    2.46
   1  -3   1    0.10    0.02
   1  -1   3    0.14    0.03
   3  -1   1    0.12    0.03
  -1   1   3    0.11    0.02
   1   3   1    0.11    0.01
   3   1   1    0.09    0.02
  -1  -1   3    0.13    0.03
   3  -1  -1    0.12    0.02
   1  -3  -1    0.12    0.01
  -3  -1   1    0.07    0.02
  -1  -3   1    0.17    0.02
  -1   3   3    0.14    0.02
   3  -1   3    0.09    0.03
   1  -3   3    0.20    0.04
   3  -3   1    0.13    0.03
  -3   1   3    0.12    0.03
   3   3   1    0.15    0.03
  -1  -3   3    0.12    0.03
  -3  -3   1    0.19    0.03
   3   1   3    0.16    0.03
   1   3   3    0.11    0.02
  -3  -1   3    0.07    0.03
   3  -3   3    0.39    0.05
  -3   3   3    0.29    0.05
  -3   3   3    0.24    0.03
   3   3   3    0.38    0.04
  -3   3  -3    0.38    0.05
   3   3   3    0.37    0.05
  -3  -3   3    0.38    0.05
   0   0   4  554.74   13.01
   0  -4   0  561.93   13.18
   0  -4   2    0.81    0.06
   4   2   0    0.68    0.06
   2   0   4    0.54    0.06
   4  -2   0    0.53    0.05
   4   0   2    0.50    0.05
   0  -2   4    0.66    0.07
  -4   0   2    0.48    0.05
   0   2   4    0.82    0.06
   2  -4   0    0.65    0.05
  -2  -4   0    0.70    0.05
   2  -4   2   18.25    0.52
  -4   2   2   19.32    0.50
  -2   2   4   18.88    0.51
   2  -2   4   19.80    0.54
  -2   4   2   18.97    0.50
  -2  -2   4   18.32    0.54
  -4  -2   2   18.89    0.53
   4  -2  -2   19.59    0.52
   2   4   2   19.14    0.51
   4   2   2   19.19    0.52
  -4   2  -2   18.90    0.52
   2   4   2   19.51    0.49
  -2  -4   2   18.83    0.52
   2  -4  -2   19.32    0.48
   2   2   4   19.29    0.51
  -2   2  -4   19.23    0.52
   2   2   4   18.52    0.51
   0  -4   4  338.88    8.09
  -4   0   4  356.82    7.64
   4  -4   0  354.55    8.06
  -4   0   4  332.29    8.06
  -4  -4   0  353.67    8.07
   0   4   4  340.82    8.11
   0   4   4  345.62    7.67
  -4   4   0  345.13    7.84
   0   4  -4  337.51    7.84
   4   0   4  345.17    8.07
   4  -4   2    1.50    0.10
  -4   2   4    1.38    0.09
   4  -2   4    1.33    0.10
  -4   4   2    1.47    0.09
   2  -4   4    1.99    0.12
  -4   2   4    1.60    0.10
  -2   4   4    1.54    0.11
  -4   4  -2    1.77    0.11
   2   4   4    1.59    0.08
   4   4   2    1.66    0.11
  -4   2  -4    1.50    0.11
   4   2   4    1.52    0.10
  -4  -2   4    1.70    0.11
  -2  -4   4    1.73    0.11
  -2   4  -4    1.49    0.10
   4   2   4    1.44    0.10
  -4  -2   4    1.46    0.10
   4   4   2    1.44    0.09
  -4  -4   2    1.63    0.10
   4  -4  -2    1.48    0.09
   2   4   4    1.57    0.11
  -4   4   4   31.76    0.80
   4  -4   4   30.09    0.83
  -4   4  -4   30.79    0.83
   4   4   4   30.88    0.81
   4   4   4   31.89    0.81
   5  -1   1    0.15    0.04
  -5   1   1    0.19    0.04
  -1   1   5    0.19    0.04
  -1   1   5    0.13    0.03
   5   1  -1    0.15    0.04
   1  -5   1    0.06    0.03
  -1  -5  -1    0.07    0.02
   1  -1   5    0.09    0.04
   5   1   1    0.13    0.04
   1  -5  -1    0.14    0.02
   1   1   5    0.17    0.04
   1   5   1    0.16    0.04
  -1  -5   1    0.12    0.03
   5  -1  -1    0.07    0.03
  -1   5  -1    0.10    0.03
  -1  -1   5    0.31    0.05
   1  -5   3    2.32    0.13
  -5   3   1    2.17    0.11
   3  -1   5    2.18    0.13
  -3   1   5    2.26    0.12
   1   5  -3    2.32    0.12
   5  -3   1    2.23    0.12
  -3   1   5    2.42    0.12
  -1   5   3    2.24    0.13
  -1   5  -3    2.26    0.12
   1   5   3    2.27    0.08
  -1  -5   3    2.14    0.12
  -5   3  -1    2.32    0.11
  -5   3  -1    2.21    0.12
   1   5   3    2.46    0.14
   5  -3  -1    2.28    0.12
  -5  -3   1    2.21    0.12
   3   1   5    2.24    0.12
  -3  -1   5    2.27    0.13
   5   3   1    2.37    0.13
   3   1   5    2.19    0.12
  -3  -1   5    2.12    0.11
   3  -5   1    2.16    0.11
  -3   5   1    2.32    0.12
  -3   5   1    2.19    0.12
  -1   3   5    1.94    0.12
   1  -3   5    2.42    0.14
  -5   1   3    2.27    0.12
  -5   1   3    2.17    0.12
   5  -1   3    2.68    0.14
  -1   3   5    2.22    0.11
   1   3   5    2.23    0.11
   3   5   1    2.28    0.12
  -1   3  -5    2.32    0.12
   3   5   1    2.37    0.10
  -5  -1   3    2.24    0.13
  -3   5  -1    2.23    0.12
  -3  -5   1    2.14    0.11
   1   3   5    2.43    0.14
   5   1   3    2.17    0.12
  -5  -1   3    2.25    0.12
  -1  -3   5    2.19    0.14
   3  -5  -1    2.16    0.10
  -3   3   5    0.23    0.05
   5  -3   3    0.16    0.05
   3  -3   5    0.29    0.06
  -5   3   3    0.21    0.05
  -3   5   3    0.14    0.04
  -3   3   5    0.14    0.03
   3  -5   3    0.19    0.05
   3   5  -3    0.17    0.04
   3   3   5    0.22    0.05
  -5  -3   3    0.26    0.05
  -3   3  -5    0.32    0.06
   3   5   3    0.33    0.04
   5   3   3    0.23    0.05
   3   3   5    0.30    0.05
   3  -5  -3    0.25    0.03
  -3  -3   5    0.19    0.05
   5  -3  -3    0.13    0.04
  -3  -5   3    0.51    0.06
   3   5   3    0.20    0.05
  -5   3  -3    0.28    0.05
  -3   5  -3    0.17    0.05
   1   5  -5    0.02    0.03
   5  -1   5    0.09    0.05
  -5   1   5    0.07    0.04
  -1   5   5    0.10    0.05
   1  -5   5    0.09    0.05
   5  -5   1    0.04    0.03
  -5   5   1    0.06    0.04
  -5   5   1    0.04    0.03
  -1   5   5    0.05    0.02
  -5   1   5    0.14    0.04
   1   5   5    0.05    0.03
  -5  -1   5    0.01    0.03
  -5   5  -1    0.05    0.04
  -5   5  -1    0.04    0.03
  -1  -5   5    0.10    0.05
   1   5   5    0.07    0.05
  -1   5  -5    0.13    0.04
   5   5   1    0.09    0.04
   5  -5  -1    0.11    0.04
  -5  -5   1    0.04    0.03
  -5  -1   5    0.03    0.04
   5   1   5    0.15    0.05
   5   1   5    0.04    0.03
  -5   5   3    0.16    0.05
  -3   5   5    0.12    0.03
   3   5  -5    0.13    0.04
  -3   5   5    0.17    0.05
   5  -3   5    0.16    0.05
  -5   3   5    0.09    0.04
   3  -5   5    0.20    0.06
  -5   5   3    0.15    0.04
  -5   3   5    0.09    0.04
   5  -5   3    0.12    0.04
   5   5   3    0.14    0.04
   5   3   5    0.18    0.05
   5   3   5    0.28    0.06
   3   5   5    0.11    0.04
  -3  -5   5    0.01    0.04
   3   5   5    0.21    0.06
  -5  -3   5    0.15    0.04
   5  -5  -3    0.11    0.04
   5   5   3    0.05    0.04
  -5  -5   3    0.06    0.04
  -5   3  -5    0.11    0.05
  -5   5  -3    0.15    0.05
  -5  -3   5    0.12    0.04
  -3   5  -5    0.05    0.04
  -5   5   5    0.04    0.03
  -5   5   5    0.10    0.04
  -5   5   5    0.08    0.04
   5  -5   5    0.01    0.04
   5   5  -5    0.03    0.03
   5   5   5    0.05    0.04
  -5   5  -5    0.03    0.04
  -5  -5   5    0.02    0.03
   5   5   5    0.06    0.04
   6   0   0    0.69    0.07
   0   0   6    0.84    0.08
   6   2   0   19.36    0.55
   6  -2   0   18.37    0.54
   2   0   6   20.00    0.57
  -6   2   0   18.80    0.52
  -2   0   6   19.25    0.51
   0  -6   2   19.03    0.54
   0   6   2   19.05    0.54
   0   6  -2   18.80    0.54
  -2   0   6   18.17    0.55
  -6   2   0   19.63    0.53
   6   4   0    0.45    0.07
   6  -4   0    0.26    0.05
   0  -6   4    0.39    0.06
  -4   0   6    0.46    0.07
   4   0   6    0.37    0.05
   4   0   6    0.44    0.07
  -4   0   6    0.39    0.06
   0   6   4    0.49    0.08
   0   6  -4    0.38    0.06
  -6   4   0    0.44    0.06
  -6   4   0    0.20    0.04
  -6   0   2   19.22    0.54
   0   2   6   19.62    0.55
   6   0  -2   18.65    0.55
  -2  -6   0   18.31    0.50
   0  -2   6   18.55    0.58
   0   2  -6   18.52    0.52
   2   6   0   19.71    0.52
   2  -6   0   19.03    0.50
  -2   6   0   19.26    0.54
   6   0   2   19.57    0.55
   0   2   6   18.92    0.53
   2  -6   2   46.58    1.14
  -2   6   2   44.58    1.09
   2  -2   6   44.51    1.18
  -2   2   6   45.99    1.14
   6  -2   2   44.54    1.15
  -2   2   6   44.17    1.09
   6  -2  -2   44.78    1.14
  -6  -2   2   42.71    1.15
  -2  -2   6   44.45    1.17
   2   2   6   44.57    1.15
   2   2   6   44.36    1.10
   2  -6  -2   45.57    1.08
  -2   2  -6   43.77    1.13
   2   6   2   43.48    1.08
   6   2   2   44.07    1.15
  -2   6  -2   45.60    1.12
  -2  -6   2   43.91    1.13
   2   6   2   44.12    1.10
   4  -2   6    2.25    0.15
  -6   4   2    2.60    0.14
  -2   6   4    2.25    0.15
  -6   4   2    2.50    0.12
  -4   2   6    2.39    0.14
   2  -6   4    2.62    0.15
  -4   2   6    2.34    0.13
   6  -4   2    2.25    0.14
  -2   6  -4    2.48    0.15
   2  -6  -4    2.38    0.09
  -4  -2   6    2.28    0.15
  -4  -2   6    2.57    0.13
   4   2   6    2.28    0.14
   6  -4  -2    2.33    0.13
   6   4   2    2.40    0.14
  -6   4  -2    2.36    0.12
   4   2   6    2.55    0.14
   2   6   4    3.04    0.17
  -2  -6   4    2.42    0.15
  -6   4  -2    2.81    0.15
   2   6   4    2.51    0.10
  -6  -4   2    2.52    0.15
  -6   0   4    0.43    0.06
  -6   0   4    0.21    0.05
   4  -6   0    0.23    0.04
  -4   6   0    0.34    0.06
  -4   6   0    0.30    0.05
   6   0   4    0.32    0.06
   0   4   6    0.41    0.07
   0  -4   6    0.48    0.08
   0   4  -6    0.26    0.05
  -4  -6   0    0.39    0.05
   2   4  -6    2.42    0.12
  -2   4   6    2.67    0.16
  -4   6   2    2.72    0.14
   4  -6   2    2.30    0.13
  -6   2   4    2.43    0.14
  -2   4   6    2.54    0.12
   6  -2   4    2.72    0.15
   2  -4   6    2.69    0.17
  -4   6   2    2.58    0.13
  -6   2   4    2.64    0.14
   6   2   4    2.55    0.15
   4  -6  -2    2.45    0.11
  -2  -4   6    2.75    0.17
   4   6   2    2.62    0.13
  -2   4  -6    2.36    0.14
  -6  -2   4    2.58    0.15
  -6  -2   4    2.38    0.15
   2   4   6    2.45    0.13
  -4  -6   2    2.54    0.14
   2   4   6    2.49    0.15
  -4   6  -2    2.62    0.15
   4   4  -6    1.10    0.08
   4  -4   6    0.97    0.10
  -4   6   4    0.98    0.10
  -4   4   6    1.11    0.09
  -6   4   4    0.89    0.09
  -4   6   4    1.27    0.09
  -4   4   6    1.09    0.10
   4   6  -4    1.35    0.10
   4  -6   4    1.21    0.11
   6  -4   4    0.99    0.10
  -6  -4   4    1.11    0.11
  -4   6  -4    1.14    0.11
  -4  -4   6    1.16    0.09
   4   4   6    1.13    0.11
   4   6   4    1.20    0.11
  -4   4  -6    0.99    0.10
   6  -4  -4    1.09    0.09
   4   6   4    1.15    0.08
   6   4   4    1.07    0.10
  -4  -4   6    0.89    0.10
  -4  -6   4    1.44    0.11
   6   4   4    1.29    0.10
  -6   4  -4    0.96    0.10
   4  -6  -4    1.08    0.07
   4   4   6    1.25    0.10
  -6   6   0    4.64    0.20
  -6   0   6    4.07    0.20
   6  -6   0    4.01    0.19
   6   6   0    4.53    0.20
  -6  -6   0    4.24    0.20
   0   6  -6    3.92    0.19
   0   6   6    4.15    0.15
  -6   6   0    4.30    0.18
  -6   0   6    4.19    0.20
   6   0   6    4.34    0.19
   6   0   6    4.15    0.21
   0  -6   6    3.65    0.21
  -2   6   6   60.37    1.42
  -6   2   6   59.43    1.50
  -2   6   6   56.58    1.45
   2   6  -6   58.93    1.44
  -6   6   2   56.87    1.43
   6  -6   2   60.24    1.49
   6  -2   6   58.32    1.51
   2  -6   6   60.30    1.54
  -6   6   2   58.25    1.42
   6   2   6   57.09    1.42
  -6  -2   6   60.72    1.43
  -6  -6   2   58.00    1.50
   2   6   6   57.75    1.44
   6   6   2   57.11    1.43
  -2  -6   6   54.31    1.52
  -6  -2   6   56.93    1.52
   6   2   6   60.10    1.50
   2   6   6   58.61    1.47
   6  -6  -2   59.01    1.46
  -6   6  -2   59.33    1.39
   6   6   2   57.49    1.48
  -2   6  -6   60.26    1.48
  -6   6  -2   60.33    1.47
  -6   4   6    8.87    0.33
   4  -6   6    8.90    0.35
   4   6  -6    9.31    0.31
  -4   6   6    9.13    0.29
  -6   6   4    8.72    0.33
  -6   4   6    8.74    0.31
   6  -4   6    8.91    0.35
   6  -6   4    8.54    0.33
  -4   6   6    8.46    0.33
  -6   6   4    9.08    0.30
   6  -6  -4    8.82    0.30
  -6  -6   4    8.21    0.33
   4   6   6    8.93    0.30
  -4  -6   6    8.26    0.35
  -6  -4   6    8.76    0.35
  -6   4  -6    8.42    0.35
   6   4   6    9.12    0.34
   6   4   6    9.03    0.32
   4   6   6    8.69    0.35
  -4   6  -6    8.75    0.34
   6   6   4    9.10    0.31
   6   6   4    9.14    0.34
  -6   6  -4    9.00    0.34
  -6   6   6  135.94    3.25
  -6   6   6  146.13    3.37
  -6   6   6  143.19    3.26
   6  -6   6  139.15    3.42
   6   6  -6  143.61    3.27
   6   6   6  143.66    3.38
  -6   6  -6  136.32    3.34
   6   6   6  137.92    3.27
  -6  -6   6  134.17    3.42
   1   7  -1    0.14    0.04
  -1   1   7    0.11    0.04
   1  -1   7    0.17    0.06
  -1  -7  -1    0.15    0.03
   7  -1   1    0.14    0.05
  -1   1   7   -0.03    0.03
   7   1  -1    0.15    0.05
  -7   1   1    0.10    0.05
  -1   7  -1    0.15    0.05
   7   1   1    0.03    0.04
   1   1   7    0.25    0.05
  -1  -1   7    0.23    0.06
   1   1   7    0.15    0.05
  -1  -7   1    0.12    0.03
   7  -1  -1    0.10    0.05
  -1  -1   7    0.09    0.03
   1   7   1    0.60    0.08
  -1   7   3   25.85    0.73
   1   7  -3   26.17    0.73
  -7   3   1   26.75    0.70
   1  -7   3   27.29    0.75
  -7   3   1   27.06    0.72
   3  -1   7   27.08    0.68
  -3   1   7   26.84    0.71
   7  -3   1   27.27    0.76
  -3   1   7   26.28    0.75
   7   3  -1   27.75    0.76
  -3  -1   7   26.80    0.69
  -7   3  -1   27.79    0.73
  -1  -7   3   27.40    0.74
  -7   3  -1   26.72    0.71
   3   1   7   26.55    0.71
   1   7   3   27.40    0.74
   7   3   1   26.21    0.75
   7  -3  -1   25.89    0.74
   3   1   7   25.95    0.75
  -3  -1   7   27.51    0.78
  -1   7   5    5.69    0.16
  -5   1   7    5.56    0.24
   5  -1   7    5.38    0.25
   7  -5   1    5.85    0.25
   1   7  -5    5.71    0.24
  -1   7   5    5.60    0.26
  -7   5   1    5.88    0.23
  -5   1   7    5.66    0.25
   1  -7   5    5.71    0.26
   5  -1   7    5.66    0.22
  -7   5   1    5.76    0.23
  -7   5  -1    5.58    0.24
  -1  -7   5    5.59    0.26
   5   1   7    5.24    0.23
   1   7   5    5.53    0.26
   7  -5  -1    5.96    0.24
   1   7   5    5.64    0.18
  -5  -1   7    5.64    0.23
   5   1   7    5.25    0.24
  -1   7  -5    5.67    0.25
  -5  -1   7    5.70    0.26
  -7  -5   1    5.60    0.25
  -7   5  -1    5.69    0.22
   7   5   1    6.09    0.25
  -1   3   7   26.47    0.73
  -3   7   1   25.66    0.72
   3  -7   1   26.60    0.71
  -3   7   1   27.35    0.70
   3   7  -1   27.00    0.69
  -7   1   3   26.89    0.73
  -3  -7  -1   26.26    0.69
   1   3  -7   26.66    0.71
   7  -1   3   26.45    0.76
   1   3   7   27.44    0.75
   7   1   3   27.07    0.76
   3  -7  -1   26.86    0.68
  -3  -7   1   26.27    0.71
  -3   7  -1   26.64    0.67
  -7  -1   3   26.93    0.76
   3   7   1   27.50    0.72
  -7  -1   3   27.65    0.74
   7  -1  -3   26.85    0.75
  -1   3  -7   27.41    0.74
   3  -3   7    0.01    0.04
   3   7  -3    0.06    0.04
  -3   7   3    0.15    0.05
  -3   7   3    0.05    0.04
  -3   3   7    0.17    0.05
  -7   3   3    0.12    0.05
   3  -7   3    0.08    0.04
   7  -3   3    0.13    0.06
  -3   3   7    0.08    0.04
   3   3   7    0.08    0.05
  -3  -3   7    0.02    0.03
   3   3   7    0.03    0.04
   3   7   3    0.10    0.03
   3   7   3    0.03    0.05
   7  -3  -3    0.03    0.04
  -3  -7   3    0.08    0.04
  -7  -3   3    0.09    0.04
  -7   3  -3    0.09    0.05
  -3  -3   7    0.10    0.05
  -3   3  -7    0.05    0.04
   3  -7  -3    0.07    0.02
   7   3   3    0.06    0.05
  -3   7  -3    0.07    0.05
   3  -7   5    0.66    0.09
   7  -5   3    0.69    0.09
  -3   7   5    0.53    0.09
  -7   5   3    0.65    0.09
   5  -3   7    0.54    0.09
  -7   5   3    0.63    0.07
  -5   3   7    0.51    0.08
   3   7  -5    0.63    0.08
  -5   3   7    0.78    0.08
   5  -3   7    0.73    0.06
   5   3   7    0.59    0.08
  -7   5  -3    0.71    0.08
  -3  -7   5    0.48    0.08
   5   3   7    0.74    0.09
   7  -5  -3    0.73    0.08
   7   5   3    0.59    0.08
  -7  -5   3    0.62    0.08
  -7   5  -3    0.59    0.09
   3   7   5    0.71    0.10
  -3   7  -5    0.53    0.08
   3   7   5    0.77    0.06
  -5  -3   7    0.66    0.09
  -5  -3   7    0.48    0.07
   3  -7  -5    0.57    0.05
  -7   1   5    5.38    0.24
   5  -7   1    5.24    0.22
  -7   1   5    5.49    0.24
  -1   5   7    5.57    0.26
  -5   7   1    5.54    0.23
   1  -5   7    5.14    0.27
   1   5  -7    5.56    0.23
  -5   7   1    5.89    0.23
   7  -1   5    5.33    0.25
  -1   5   7    6.01    0.21
  -5  -7   1    5.65    0.23
   7   1   5    5.67    0.25
   5   7   1    5.70    0.24
   5   7   1    5.67    0.22
  -1   5  -7    5.18    0.23
  -7  -1   5    5.77    0.25
   5  -7  -1    5.93    0.21
  -7  -1   5    5.57    0.25
   1   5   7    5.36    0.22
  -1  -5   7    5.52    0.27
  -5   7  -1    5.47    0.21
   1   5   7    5.09    0.25
  -3   5   7    0.71    0.07
  -3   5   7    0.64    0.09
  -5   7   3    0.73    0.08
  -5   7   3    0.31    0.07
   7  -3   5    0.58    0.09
  -7   3   5    0.56    0.08
  -7   3   5    0.63    0.08
   3   5  -7    0.70    0.07
   5  -7   3    0.58    0.08
   3  -5   7    0.81    0.11
   5   7   3    0.74    0.09
  -5   7  -3    0.68    0.09
   7   3   5    0.71    0.09
   5  -7  -3    0.61    0.06
  -3   5  -7    0.69    0.09
   3   5   7    0.51    0.09
  -3  -5   7    0.62    0.07
  -3  -5   7    0.61    0.09
   5   7   3    0.58    0.07
  -7  -3   5    0.77    0.10
   7   3   5    0.65    0.09
  -5  -7   3    0.50    0.08
   3   5   7    0.75    0.08
  -7  -3   5    0.66    0.09
  -5   7   5    0.05    0.04
  -5   7   5    0.19    0.06
  -5   5   7    0.01    0.04
   5  -7   5   -0.03    0.04
   7  -5   5   -0.03    0.05
  -7   5   5    0.12    0.05
   5  -5   7    0.07    0.05
   5   7  -5    0.07    0.05
  -5   5   7    0.01    0.04
   5   5  -7    0.02    0.03
  -7   5   5    0.04    0.03
  -5  -7   5    0.04    0.04
   5   5   7    0.09    0.05
   5   7   5    0.10    0.04
  -7   5  -5    0.04    0.04
   5   7   5    0.01    0.04
   7  -5  -5    0.00    0.04
  -5   5  -7    0.00    0.04
  -5   7  -5   -0.02    0.04
   5  -7  -5    0.02    0.04
   5   5   7    0.05    0.04
  -7  -5   5   -0.02    0.04
   7   5   5    0.02    0.05
  -5  -5   7    0.08    0.06
   7   5   5    0.00    0.04
  -7   1   7    0.04    0.05
  -1   7   7    0.02    0.05
  -7   7   1    0.03    0.04
   1   7  -7    0.10    0.05
  -7   1   7    0.01    0.04
  -1   7   7    0.09    0.03
  -7   7   1    0.14    0.05
   7  -1   7    0.07    0.06
   7  -7   1    0.12    0.05
  -7   7  -1    0.09    0.05
   1   7   7    0.17    0.07
  -7   7  -1    0.09    0.05
   7   7   1    0.03    0.04
   7   1   7    0.06    0.05
  -1  -7   7    0.07    0.05
   7  -7  -1    0.05    0.05
  -7  -1   7    0.02    0.04
  -7  -1   7    0.09    0.05
   7   1   7    0.09    0.06
  -7  -7   1    0.09    0.05
   1   7   7    0.29    0.05
  -1   7  -7    0.02    0.04
   7  -3   7    0.05    0.05
  -7   3   7    0.06    0.05
  -3   7   7    0.22    0.07
  -7   7   3    0.05    0.04
   3  -7   7    0.16    0.07
   3   7  -7    0.09    0.05
   7  -7   3    0.08    0.06
  -7   7   3    0.10    0.05
  -3   7   7    0.02    0.03
  -7   3   7    0.02    0.04
  -7  -3   7    0.14    0.06
  -7   7  -3    0.13    0.06
   7   3   7    0.00    0.05
  -7  -3   7    0.04    0.05
  -3   7  -7    0.12    0.06
   7   7   3    0.14    0.07
   7   7   3    0.04    0.04
   7  -7  -3   -0.01    0.04
  -7  -7   3    0.02    0.04
  -7   7  -3    0.10    0.04
   3   7   7    0.03    0.04
   7   3   7    0.04    0.05
  -3  -7   7    0.08    0.05
   3   7   7    0.01    0.05
   5   7  -7    0.07    0.04
  -5   7   7    0.06    0.04
   7  -7   5   -0.02    0.05
  -7   5   7    0.02    0.03
  -7   7   5   -0.01    0.04
   7   5  -7    0.09    0.04
  -7   7   5    0.01    0.05
  -5   7   7    0.02    0.05
   5  -7   7    0.00    0.06
  -7   5   7    0.04    0.05
  -7   5   7    0.04    0.04
   7  -5   7   -0.02    0.05
   7   7   5    0.00    0.05
  -7  -7   5    0.06    0.05
   7   7   5    0.02    0.05
  -5   7  -7   -0.03    0.05
   7   5   7    0.07    0.06
   7   5   7    0.09    0.06
  -7   5  -7    0.02    0.05
   5   7   7    0.03    0.04
  -5  -7   7    0.09    0.06
  -7  -5   7    0.06    0.06
   7  -7  -5    0.02    0.04
   5   7   7    0.06    0.06
  -7   7  -5    0.05    0.06
   7   7  -7    0.10    0.05
   7  -7   7   -0.02    0.06
  -7   7   7    0.05    0.04
  -7   7   7    0.07    0.06
  -7  -7   7    0.03    0.06
   7  -7  -7    0.05    0.05
   7   7   7    0.07    0.06
  -7   7  -7   -0.03    0.05
   7   7   7    0.00    0.06
   0  -8   0  968.64   22.37
   0   0   8  952.22   21.14
   8   0   0 1000.00   22.36
   0   0   8  942.99   22.38
   0   8   0  949.27   21.16
  -2   0   8    0.39    0.09
   0   8   2    0.43    0.08
   8   2   0    0.52    0.08
   2   0   8    0.50    0.08
   0   8  -2    0.18    0.06
   8  -2   0    0.26    0.06
   2   0   8    0.31    0.06
   0  -8   2    0.35    0.06
  -8   2   0    0.41    0.07
  -2   0   8    0.25    0.05
   8   4   0  222.23    5.24
  -8   4   0  223.52    4.95
  -4   0   8  218.88    5.24
   4   0   8  221.96    5.25
   4   0   8  213.55    4.93
   0   8  -4  218.71    5.09
   0   8   4  212.74    4.98
  -8   4   0  222.84    5.06
   0  -8   4  220.39    5.23
  -4   0   8  219.64    4.94
   8  -4   0  221.18    5.22
   6   0   8    0.19    0.06
   0  -8   6    0.22    0.07
   0   8   6    0.14    0.07
   6   0   8    0.17    0.05
   8  -6   0    0.09    0.05
   0   8   6    0.14    0.02
  -6   0   8    0.29    0.07
   0   8  -6    0.15    0.06
  -6   0   8    0.07    0.05
  -8   6   0    0.21    0.06
  -8   6   0    0.13    0.05
   8   6   0    0.18    0.06
   8   0   2    0.24    0.07
   0  -2   8    0.23    0.04
  -2  -8   0    0.18    0.04
  -8   0   2    0.47    0.08
   0   2   8    0.34    0.07
   2   8   0    0.26    0.06
   0  -2   8    0.47    0.09
   2  -8   0    0.36    0.05
  -2   8   0    0.26    0.06
   8   0  -2    0.41    0.07
  -2   8   0    0.33    0.06
   0   2   8    0.43    0.08
  -2   8   2    1.75    0.13
  -2   2   8    1.88    0.13
   2  -2   8    1.72    0.15
  -8   2   2    2.45    0.15
   8  -2   2    1.56    0.13
   2   8  -2    1.33    0.12
   8   2  -2    1.44    0.12
  -2   8   2    1.64    0.13
   2   8  -2    1.80    0.11
   2  -8   2    1.68    0.12
   2   2  -8    1.67    0.11
  -2   2   8    1.75    0.13
  -2  -2   8    1.83    0.15
   8   2   2    1.69    0.13
  -2   8  -2    1.45    0.12
   2   2   8    1.68    0.13
   2   8   2    1.67    0.08
   2   8   2    1.66    0.13
   8  -2  -2    1.53    0.13
   2  -8  -2    1.66    0.08
   2   2   8    2.00    0.14
  -2  -8   2    1.75    0.11
  -2  -2   8    1.62    0.10
  -8   4   2    0.47    0.06
   8  -4   2    0.44    0.08
   2   8  -4    0.44    0.05
  -4   2   8    0.51    0.08
  -4   2   8    0.31    0.07
  -8   4   2    0.59    0.08
  -2   8   4    0.61    0.09
   2   8  -4    0.69    0.09
   2  -8   4    0.46    0.08
   4  -2   8    0.58    0.09
   4  -2   8    0.67    0.07
   4   2   8    0.64    0.09
  -2   8  -4    0.55    0.08
   2   8   4    0.64    0.10
  -4  -2   8    0.32    0.06
   8   4   2    0.55    0.08
   4   2   8    0.32    0.07
  -4  -2   8    0.69    0.10
  -8   4  -2    0.62    0.08
   2  -8  -4    0.46    0.03
  -8  -4   2    0.50    0.08
  -2  -8   4    0.35    0.07
   8  -4  -2    0.37    0.07
   6  -2   8    0.66    0.07
  -2   8   6    0.83    0.05
   6  -2   8    0.49    0.09
  -6   2   8    0.72    0.10
   2  -8   6    0.69    0.10
  -8   6   2    0.80    0.09
   2   8  -6    0.68    0.09
  -8   6   2    0.86    0.09
  -6   2   8    0.77    0.09
   8  -6   2    0.76    0.10
  -2   8   6    0.63    0.10
  -2  -8   6    0.88    0.11
   8   6   2    0.70    0.09
  -8   6  -2    0.60    0.08
   2   8   6    0.67    0.11
   2   8   6    0.62    0.06
   8  -6  -2    0.66    0.09
   6   2   8    0.80    0.10
   6   2   8    0.67    0.09
  -8   6  -2    0.85    0.10
  -8  -6   2    0.79    0.10
  -6  -2   8    0.70    0.10
  -2   8  -6    0.72    0.10
  -6  -2   8    0.67    0.09
   0  -4   8  214.62    5.30
   0   4   8  222.63    5.22
  -8   0   4  229.57    5.00
   4  -8   0  223.26    5.18
  -4   8   0  224.74    4.94
  -4  -8   0  217.50    5.19
   4   8   0  217.89    4.95
  -4   8   0  216.85    5.10
   0   4  -8  223.21    5.09
  -8   0   4  215.82    5.25
   0   4   8  215.98    4.99
   4  -8   2    0.50    0.07
   2  -4   8    0.63    0.10
  -4   8   2    0.59    0.08
   8  -2   4    0.35    0.08
   2   4  -8    0.52    0.07
  -8   2   4    0.57    0.08
  -4   8   2    0.53    0.08
  -2   4   8    0.50    0.07
  -2   4   8    0.40    0.08
  -8  -2   4    0.67    0.09
   4   8   2    0.53    0.08
   2   4   8    0.52    0.08
   8   2   4    0.36    0.08
  -2  -4   8    0.43    0.06
  -8  -2   4    0.48    0.08
  -2  -4   8    0.47    0.09
  -4   8  -2    0.48    0.05
  -4   8  -2    0.53    0.08
   4  -8  -2    0.50    0.06
   2   4   8    0.52    0.09
  -2   4  -8    0.52    0.08
  -4  -8   2    0.60    0.08
   8  -2  -4    0.44    0.08
  -4   8   4  213.94    4.99
  -8   4   4  215.72    4.89
  -4   4   8  211.82    4.90
   4  -8   4  212.09    5.14
  -4   4   8  214.21    5.12
   4   8  -4  213.36    5.00
   4   4  -8  221.82    4.95
  -4   8   4  218.57    4.90
   4  -4   8  215.25    5.19
  -8   4   4  220.64    4.94
  -8   4  -4  220.10    5.04
   4  -8  -4  222.90    5.07
  -4   4  -8  217.12    5.05
   4   8   4  223.36    5.08
   8   4   4  217.74    5.15
  -8  -4   4  212.08    5.17
   4   8   4  210.99    4.91
   4   4   8  217.09    5.13
   8  -4  -4  217.57    5.14
  -4   8  -4  210.69    5.02
  -4  -4   8  211.24    5.19
  -4  -4   8  220.74    4.85
  -4  -8   4  209.13    5.14
   4   4   8  213.17    4.91
   4   8  -6    0.14    0.06
  -4   8   6    0.10    0.06
   4  -8   6    0.17    0.07
   6   4  -8    0.17    0.04
  -6   4   8    0.17    0.06
  -6   4   8    0.30    0.08
   6  -4   8    0.22    0.08
   6  -4   8    0.17    0.04
  -8   6   4    0.12    0.05
   8  -6   4    0.09    0.06
  -8   6   4    0.26    0.07
   6   4   8    0.13    0.06
  -4   8  -6    0.17    0.06
   8   6   4    0.37    0.08
   4   8   6    0.20    0.05
  -8  -6   4    0.05    0.05
   8   6   4    0.26    0.07
  -8   6  -4    0.16    0.07
  -4  -8   6    0.14    0.06
   8  -6  -4    0.16    0.06
   4  -8  -6    0.19    0.04
  -6  -4   8    0.08    0.06
  -6   4  -8    0.17    0.07
   4   8   6    0.24    0.08
  -6  -4   8    0.21    0.06
   6   4   8    0.13    0.06
   0   6  -8    0.23    0.06
  -6   8   0    0.11    0.05
   0   6   8    0.24    0.07
   0   6   8    0.19    0.05
   8   0   6    0.31    0.07
   6  -8   0    0.24    0.05
  -6   8   0    0.18    0.05
   0  -6   8    0.27    0.08
  -8   0   6    0.13    0.05
  -8   0   6    0.20    0.06
  -6  -8   0    0.20    0.06
  -2   6   8    0.66    0.07
  -8   2   6    0.78    0.10
  -6   8   2    0.66    0.09
  -2   6   8    0.83    0.11
   2   6  -8    0.61    0.08
  -8   2   6    0.73    0.10
   2  -6   8    0.73    0.11
   6  -8   2    0.78    0.09
  -6   8   2    0.82    0.09
   8  -2   6    0.88    0.11
  -6   8  -2    0.73    0.10
  -2   6  -8    0.69    0.10
   2   6   8    0.87    0.09
   6   8   2    0.77    0.08
  -2  -6   8    1.09    0.13
   2   6   8    0.53    0.10
  -6   8  -2    0.68    0.07
  -6  -8   2    0.89    0.10
   6   8   2    0.90    0.10
  -8  -2   6    0.79    0.10
   6  -8  -2    0.63    0.07
   8   2   6    0.87    0.11
  -8  -2   6    0.87    0.11
  -4   6   8    0.14    0.04
  -6   8   4    0.16    0.06
  -4   6   8    0.12    0.06
  -8   4   6    0.13    0.06
  -8   4   6    0.20    0.06
   4   6  -8    0.29    0.06
   6  -8   4    0.13    0.06
   8  -4   6    0.18    0.07
   4  -6   8    0.33    0.09
  -6   8   4    0.22    0.07
  -6   8  -4    0.16    0.06
  -4   6  -8    0.33    0.08
   4   6   8    0.21    0.07
   4   6   8    0.16    0.06
  -4  -6   8    0.36    0.09
   6   8   4    0.24    0.05
  -6   8  -4    0.06    0.04
   6  -8  -4    0.11    0.04
   6   8   4    0.21    0.07
   8   4   6    0.31    0.08
  -8  -4   6    0.11    0.06
  -6  -8   4    0.27    0.07
   8   4   6    0.15    0.07
   8  -6   6    1.31    0.14
  -8   6   6    1.47    0.14
  -6   8   6    1.48    0.12
  -6   8   6    1.39    0.14
  -6   6   8    1.78    0.13
   6   8  -6    1.33    0.12
   6  -8   6    1.28    0.14
   6   6  -8    1.41    0.11
  -6   6   8    1.38    0.14
  -8   6   6    1.55    0.10
   6  -6   8    1.14    0.14
  -6  -8   6    1.50    0.14
  -8  -6   6    1.60    0.15
   8   6   6    1.46    0.13
   6   8   6    1.55    0.12
   6   8   6    1.34    0.15
  -6   8  -6    1.19    0.14
   8  -6  -6    1.19    0.11
  -6   6  -8    1.25    0.14
   6   6   8    1.50    0.13
   8   6   6    1.47    0.14
   6   6   8    1.35    0.14
   6  -8  -6    1.50    0.11
  -6  -6   8    1.38    0.15
  -8   6  -6    1.42    0.15
   0   8   8  321.00    7.45
   0   8   8  310.53    7.20
   8   0   8  322.04    7.55
  -8   0   8  306.99    7.14
   0   8  -8  322.94    7.34
   8   0   8  313.59    7.12
  -8   8   0  318.31    7.11
   8  -8   0  326.96    7.50
   0  -8   8  308.01    7.58
  -8   0   8  323.98    7.56
   8   8   0  325.98    7.53
  -8   8   0  317.65    7.32
  -8   2   8    0.35    0.08
  -8   2   8    0.19    0.07
   2   8  -8    0.26    0.07
   2  -8   8    0.28    0.09
   8  -8   2    0.26    0.08
  -2   8   8    0.15    0.05
  -2   8   8    0.30    0.10
   8  -2   8    0.48    0.10
  -8   8   2    0.34    0.07
  -8   8   2    0.22    0.07
   8   2   8    0.37    0.08
   8   8   2    0.44    0.09
  -8   8  -2    0.23    0.06
  -8  -2   8    0.25    0.07
   8   8   2    0.36    0.08
  -8  -8   2    0.36    0.08
   2   8   8    0.31    0.09
  -8  -2   8    0.25    0.07
   2   8   8    0.32    0.06
  -2  -8   8    0.11    0.09
   8  -8  -2    0.15    0.06
  -8   8  -2    0.39    0.08
  -2   8  -8    0.24    0.07
   8   2   8    0.43    0.09
  -4   8   8  260.52    6.15
  -8   8   4  263.69    5.94
   8  -4   8  261.09    6.28
  -8   4   8  261.03    6.23
   8  -8   4  262.18    6.24
   4   8  -8  268.69    6.06
  -8   4   8  253.82    5.94
  -8   8   4  266.02    6.04
   4  -8   8  258.03    6.29
   8  -8  -4  257.47    6.19
   4   8   8  258.81    5.99
  -8   8  -4  265.46    6.11
   8   4   8  256.46    5.94
  -4  -8   8  263.50    6.30
  -8  -8   4  267.10    6.27
   8   8   4  246.01    6.20
   8   8   4  267.78    5.97
  -8  -4   8  271.12    5.94
  -8   8  -4  270.36    5.87
  -8  -4   8  262.23    6.29
  -4   8  -8  260.47    6.11
   4   8   8  256.24    6.17
   8   4   8  272.32    6.26
  -6   8   8    1.25    0.11
  -8   6   8    1.33    0.10
  -8   6   8    0.91    0.12
  -8   6   8    0.91    0.11
  -6   8   8    0.81    0.12
   6   8  -8    1.10    0.11
  -8   8   6    1.05    0.10
   8  -6   8    0.99    0.13
   8   8  -6    0.98    0.11
   8  -8   6    1.15    0.13
   8   6  -8    1.04    0.09
  -8   8   6    1.01    0.12
   6  -8   8    0.74    0.12
   6   8   8    0.54    0.11
  -8   6  -8    1.18    0.15
   8  -8  -6    0.86    0.10
   8   8   6    1.19    0.12
  -8  -8   6    0.97    0.13
   6   8   8    0.76    0.10
   8   6   8    1.15    0.13
   8   6   8    0.64    0.12
  -6  -8   8    0.93    0.14
  -8   8  -6    0.91    0.13
  -8  -6   8    0.85    0.13
   8   8   6    0.81    0.13
  -6   8  -8    0.75    0.12
   8   8  -8  268.44    6.24
  -8   8   8  270.59    6.22
  -8   8   8  274.04    6.20
   8  -8   8  273.57    6.51
   8   8   8  259.53    6.43
  -8   8  -8  265.96    6.35
   8   8   8  271.54    6.20
  -8  -8   8  277.63    6.54
   8  -8  -8  278.17    6.42
  -1   9   1    0.11    0.05
   9   1  -1    0.05    0.05
   1  -1   9    0.00    0.03
   9  -1   1    0.06    0.05
  -1   1   9    0.05    0.04
   1   9  -1    0.05    0.05
  -1   1   9    0.14    0.06
   1  -1   9    0.03    0.05
   1   9  -1    0.05    0.04
   1  -9   1    0.15    0.04
  -1   9   1    0.11    0.05
  -1  -9  -1    0.08    0.03
  -1  -1   9    0.00    0.03
  -1  -9   1    0.05    0.04
   1   1   9    0.37    0.08
   1  -9  -1    0.11    0.03
  -1   9  -1    0.12    0.04
   9  -1  -1    0.13    0.06
   1   1   9    0.01    0.04
  -1   9  -1    0.12    0.05
  -1  -1   9    0.13    0.06
   1   9   1    0.14    0.06
   9   1   1    0.14    0.06
   3  -1   9    0.46    0.09
  -9   3   1    0.36    0.06
   1   9  -3    0.23    0.05
  -9   3   1    0.28    0.07
  -3   1   9    0.20    0.06
  -1   9   3    0.37    0.08
   9   3  -1    0.24    0.07
  -3   1   9    0.23    0.06
   3  -1   9    0.18    0.05
   1  -9   3    0.27    0.06
   9  -3   1    0.27    0.07
   1   9  -3    0.16    0.06
   9  -3  -1    0.33    0.07
  -1   9  -3    0.21    0.06
   9   3   1    0.30    0.07
  -3  -1   9    0.29    0.08
  -3  -1   9    0.26    0.06
   3   1   9    0.26    0.07
   1   9   3    0.27    0.07
   3   1   9    0.37    0.07
  -1  -9   3    0.34    0.07
  -5   1   9    1.04    0.11
   9   5  -1    1.03    0.12
  -1   9   5    0.73    0.11
   5  -1   9    0.78    0.09
  -9   5   1    0.91    0.10
   9  -5   1    1.08    0.11
   1  -9   5    1.23    0.12
   5  -1   9    0.95    0.12
   1   9  -5    0.99    0.11
  -5   1   9    0.88    0.11
  -9   5   1    1.17    0.10
  -5  -1   9    0.73    0.09
  -9   5  -1    0.75    0.09
  -1   9  -5    0.89    0.10
  -5  -1   9    0.82    0.11
   1   9   5    0.97    0.12
   5   1   9    0.67    0.10
   5   1   9    0.95    0.10
  -9   5  -1    0.84    0.10
   9   5   1    0.91    0.11
   9  -5  -1    0.77    0.10
  -1  -9   5    0.86    0.10
  -1   9   7   10.16    0.43
  -7   1   9   11.06    0.40
  -1   9   7   11.30    0.30
   9   7  -1   11.69    0.43
   9  -7   1   10.94    0.41
   1   9  -7   10.97    0.41
  -7   1   9   10.68    0.42
   7  -1   9   10.07    0.42
   1  -9   7   10.79    0.44
   7  -1   9   11.49    0.38
  -9   7   1   11.27    0.40
  -9   7   1   11.11    0.39
  -9   7  -1   11.30    0.41
  -9   7  -1   11.12    0.38
  -1   9  -7   11.33    0.42
   7   1   9   10.43    0.39
   1   9   7   10.57    0.43
  -1  -9   7   10.84    0.44
   9  -7  -1   11.06    0.40
  -7  -1   9   11.68    0.45
   1   9   7   10.85    0.31
  -7  -1   9   11.34    0.40
   9   7   1   11.01    0.42
   7   1   9   11.40    0.43
   1   3  -9    0.25    0.06
   1  -3   9    0.49    0.09
   9   1  -3    0.31    0.08
  -3  -9  -1    0.24    0.04
  -3   9   1    0.28    0.06
  -9   1   3    0.36    0.07
  -3   9   1    0.31    0.07
   9  -1   3    0.36    0.08
  -1   3   9    0.37    0.07
   3  -9   1    0.13    0.05
   3   9  -1    0.36    0.07
  -1   3   9    0.42    0.07
   1   3   9    0.18    0.06
  -3   9  -1    0.27    0.05
   3  -9  -1    0.27    0.05
  -1   3  -9    0.19    0.05
   3   9   1    0.34    0.07
  -1  -3   9    0.36    0.05
   1   3   9    0.12    0.06
  -3  -9   1    0.29    0.05
  -1  -3   9    0.46    0.09
  -3   9  -1    0.28    0.07
   9   1   3    0.28    0.07
   9  -1  -3    0.12    0.06
   3  -3   9    0.42    0.09
  -9   3   3    0.05    0.04
   3  -9   3    0.12    0.05
   3   9  -3    0.08    0.04
   3   9  -3    0.03    0.04
  -9   3   3    0.01    0.05
  -3   9   3    0.06    0.05
   9  -3   3   -0.01    0.05
   3   3  -9   -0.10    0.03
  -3   9   3    0.08    0.05
  -3   3   9    0.04    0.04
  -3   3   9    0.09    0.05
  -3  -3   9    0.03    0.03
   9  -3  -3    0.02    0.04
   3  -9  -3    0.08    0.03
   3   9   3    0.09    0.03
  -3  -3   9    0.18    0.07
  -3   9  -3    0.05    0.05
   3   3   9    0.04    0.04
   9   3   3    0.13    0.06
   3   9   3    0.00    0.05
  -9  -3   3    0.01    0.05
   3   3   9    0.16    0.06
  -3  -9   3    0.04    0.04
   5  -3   9    0.10    0.07
  -5   3   9    0.15    0.06
  -9   5   3    0.11    0.05
   5  -3   9    0.13    0.04
  -9   5   3    0.26    0.07
  -5   3   9    0.22    0.07
   3  -9   5    0.24    0.07
   3   9  -5    0.19    0.06
   9  -5   3    0.43    0.09
  -3   9   5    0.16    0.07
   5   3   9    0.29    0.07
  -3   9  -5    0.20    0.07
  -3  -9   5    0.17    0.06
  -9  -5   3    0.19    0.06
   3   9   5    0.14    0.04
   5   3   9    0.16    0.06
  -5  -3   9    0.26    0.08
  -9   5  -3    0.12    0.06
  -5  -3   9    0.20    0.06
   3   9   5    0.09    0.06
   9  -5  -3    0.13    0.06
   3  -9  -5    0.21    0.03
   9   5   3    0.16    0.06
  -9   7   3    0.08    0.06
   9  -7   3    0.13    0.07
  -9   7   3    0.14    0.06
  -3   9   7    0.28    0.09
  -7   3   9    0.11    0.06
   3   9  -7    0.14    0.06
  -7   3   9    0.16    0.06
   3  -9   7    0.28    0.09
   7  -3   9    0.08    0.05
   7  -3   9    0.48    0.11
  -7  -3   9    0.23    0.08
   9   7   3    0.10    0.06
  -3  -9   7    0.13    0.07
  -7  -3   9    0.08    0.06
  -9   7  -3    0.25    0.06
  -9   7  -3    0.11    0.07
   3   9   7    0.29    0.09
   9  -7  -3    0.25    0.07
   7   3   9    0.07    0.07
   3   9   7    0.15    0.05
  -9  -7   3    0.16    0.07
  -3   9  -7    0.20    0.07
   7   3   9    0.15    0.07
  -5   9   1    1.04    0.11
   5   9  -1    0.91    0.10
  -9   1   5    1.06    0.12
  -9   1   5    0.74    0.10
  -1   5   9    0.74    0.09
   5  -9   1    0.91    0.09
   1  -5   9    1.18    0.14
   1   5  -9    0.88    0.10
  -5   9   1    0.86    0.10
  -1   5   9    0.82    0.11
  -5  -9  -1    0.89    0.09
   9  -1   5    0.97    0.12
  -9  -1   5    0.58    0.09
  -5  -9   1    1.05    0.10
   9   1   5    0.75    0.11
   1   5   9    0.85    0.11
   1   5   9    1.31    0.12
  -9  -1   5    0.95    0.11
  -5   9  -1    1.09    0.09
   5  -9  -1    0.98    0.08
  -1   5  -9    1.11    0.11
  -5   9  -1    1.03    0.11
   5   9   1    1.25    0.10
  -1  -5   9    0.86    0.12
   5   9   1    1.00    0.11
   5  -9   3    0.09    0.05
  -5   9   3    0.08    0.05
  -9   3   5    0.26    0.07
  -3   5   9    0.20    0.07
  -5   9   3    0.11    0.06
   9  -3   5    0.14    0.07
   3   5  -9    0.09    0.05
   3  -5   9    0.38    0.10
  -3   5   9    0.20    0.05
  -5   9  -3    0.23    0.04
   5  -9  -3    0.10    0.04
  -5  -9   3    0.13    0.05
  -9  -3   5    0.14    0.07
   9   3   5    0.22    0.07
   5   9   3    0.25    0.08
   3   5   9    0.27    0.08
   3   5   9    0.10    0.06
  -3  -5   9    0.25    0.08
   9  -3  -5    0.15    0.06
  -5   9  -3    0.14    0.06
  -3   5  -9    0.06    0.05
  -3  -5   9    0.14    0.04
   5   9   3    0.18    0.05
   5  -9   5    0.02    0.05
   9  -5   5   -0.01    0.06
  -9   5   5    0.04    0.04
  -9   5   5    0.03    0.05
   5  -5   9    0.04    0.06
  -5   5   9   -0.02    0.04
   5   9  -5   -0.03    0.04
   5   5  -9    0.02    0.04
  -5   9   5   -0.01    0.04
  -5   9   5    0.21    0.07
  -5   5   9    0.12    0.07
   5   5   9   -0.02    0.04
  -5   9  -5    0.02    0.05
  -5   5  -9    0.00    0.05
   9  -5  -5    0.08    0.05
   5  -9  -5    0.01    0.03
  -5  -5   9    0.06    0.05
   5   9   5    0.02    0.06
   5   5   9   -0.01    0.06
  -9  -5   5   -0.03    0.04
   5   9   5    0.05    0.04
  -9   5  -5    0.04    0.06
   9   5   5    0.03    0.05
  -5  -9   5   -0.01    0.04
  -5  -5   9   -0.01    0.04
  -7   5   9    2.01    0.17
   5  -9   7    2.74    0.20
   9  -7   5    2.08    0.17
  -7   5   9    2.21    0.16
   7   5  -9    2.19    0.13
  -5   9   7    2.44    0.19
   7  -5   9    2.03    0.12
  -9   7   5    2.00    0.13
   5   9  -7    2.09    0.16
   7  -5   9    2.14    0.19
  -9   7   5    2.44    0.18
   5  -9  -7    2.20    0.12
  -9  -7   5    1.84    0.17
   7   5   9    1.55    0.16
   5   9   7    2.25    0.19
  -7  -5   9    2.23    0.19
   9   7   5    2.06    0.17
   5   9   7    2.13    0.14
  -5   9  -7    1.58    0.16
   9   7   5    2.35    0.19
  -9   7  -5    1.88    0.17
  -5  -9   7    1.96    0.18
  -7   5  -9    1.95    0.18
   9  -7  -5    2.20    0.16
  -7  -5   9    2.26    0.16
   7   5   9    1.95    0.16
   9  -1   7   11.55    0.44
  -1   7   9   11.20    0.36
   7  -9   1   10.81    0.39
   1  -7   9   10.49    0.46
  -7   9   1   10.82    0.40
  -9   1   7   11.35    0.43
   1   7  -9   11.52    0.41
  -9   1   7   11.14    0.42
  -1   7   9   11.66    0.45
  -7   9   1   11.15    0.39
  -9  -1   7   10.83    0.42
   1   7   9   10.97    0.44
  -7   9  -1   10.59    0.41
   7  -9  -1   11.05    0.38
  -7   9  -1   11.67    0.37
  -9  -1   7   11.13    0.43
  -7  -9   1   11.78    0.41
   7   9   1   11.67    0.40
   1   7   9   10.77    0.37
   9   1   7   12.18    0.45
  -1   7  -9   10.55    0.41
   7   9   1   11.24    0.41
  -1  -7   9   11.52    0.47
  -9   3   7    0.06    0.06
   3   7  -9    0.16    0.07
   7  -9   3    0.14    0.06
  -3   7   9    0.21    0.05
  -3   7   9    0.11    0.07
   3  -7   9    0.12    0.08
   9  -3   7    0.09    0.07
  -9   3   7    0.16    0.06
  -7   9   3    0.20    0.06
  -7   9   3    0.25    0.07
  -3   7  -9    0.06    0.06
   3   7   9    0.22    0.07
   7   9   3    0.20    0.06
  -9  -3   7    0.26    0.08
   7  -9  -3    0.22    0.06
   9   3   7    0.16    0.07
  -3  -7   9    0.36    0.09
  -7   9  -3    0.19    0.05
  -9  -3   7    0.14    0.07
  -7  -9   3    0.27    0.07
   7   9   3    0.07    0.07
   9   3   7    0.17    0.07
  -7   9  -3    0.04    0.06
   3   7   9    0.09    0.07
   5  -7   9    2.03    0.19
  -7   9   5    2.41    0.16
   5   7  -9    2.13    0.15
  -5   7   9    1.56    0.16
  -9   5   7    2.19    0.18
  -9   5   7    2.18    0.11
   9  -5   7    2.26    0.19
   9   5  -7    1.87    0.12
  -7   9   5    1.98    0.16
   7  -9   5    1.92    0.17
  -9   5   7    2.23    0.17
  -5   7   9    2.26    0.14
   7   9   5    2.43    0.16
  -7   9  -5    1.96    0.17
   5   7   9    2.39    0.20
  -5   7  -9    1.92    0.17
   9   5   7    2.36    0.18
   7   9   5    1.82    0.17
  -9  -5   7    2.07    0.18
   7  -9  -5    2.14    0.14
  -9   5  -7    2.17    0.19
  -7   9  -5    1.92    0.12
  -7  -9   5    1.88    0.16
   9   5   7    2.21    0.17
   9  -5  -7    2.22    0.16
  -5  -7   9    2.20    0.19
   5   7   9    1.66    0.14
   7  -9   7   -0.06    0.06
  -7   9   7   -0.01    0.04
  -7   9   7    0.06    0.06
   7   7  -9    0.00    0.05
   7  -7   9    0.00    0.07
  -9   7   7    0.03    0.05
  -9   7   7   -0.08    0.06
   9   7  -7    0.01    0.05
  -7   7   9   -0.06    0.04
   7   9  -7    0.05    0.06
  -7   7   9    0.01    0.06
   9  -7   7    0.06    0.07
  -7   7   9    0.08    0.06
   7   7   9   -0.01    0.06
  -9  -7   7   -0.02    0.06
   7   7   9    0.05    0.07
   7  -9  -7    0.01    0.05
  -7   9  -7   -0.08    0.07
  -7   7  -9    0.07    0.08
   9  -7  -7    0.04    0.05
  -9   7  -7    0.04    0.07
  -7  -7   9    0.23    0.09
   9   7   7   -0.12    0.05
  -7  -9   7   -0.02    0.06
   7   9   7   -0.08    0.06
   9   7   7    0.05    0.06
   7   9   7    0.07    0.06
   9  -1   9    0.08    0.06
   9  -1   9   -0.02    0.06
  -1   9   9    0.07    0.03
  -9   1   9    0.01    0.06
  -1   9   9   -0.02    0.06
   1   9  -9   -0.02    0.05
  -9   9   1    0.05    0.05
  -9   9   1    0.01    0.05
  -9   1   9   -0.01    0.05
   1  -9   9    0.13    0.08
   9  -9   1   -0.01    0.05
   9   1   9   -0.03    0.07
   9   1   9    0.06    0.05
  -9  -1   9   -0.01    0.06
  -9  -1   9    0.06    0.06
   1   9   9   -0.01    0.06
  -9   9  -1    0.06    0.06
  -9  -9   1   -0.03    0.04
   9   9   1    0.05    0.06
   1   9   9    0.09    0.04
  -1   9  -9   -0.02    0.05
  -1  -9   9    0.07    0.07
   9  -9  -1    0.03    0.06
  -9   9  -1    0.00    0.05
  -9   3   9    0.03    0.06
   3   9  -9    0.03    0.06
   3  -9   9    0.07    0.07
  -9   9   3   -0.03    0.05
  -9   3   9   -0.03    0.05
  -3   9   9    0.04    0.07
   9  -9   3    0.00    0.06
  -9   9   3    0.02    0.05
   9  -3   9    0.12    0.08
  -3   9   9    0.02    0.03
  -9   9  -3    0.11    0.06
  -9   9  -3    0.01    0.05
   3   9   9    0.11    0.09
   9   3   9    0.07    0.08
   9   3   9    0.04    0.06
   9   9   3    0.02    0.05
  -9  -9   3    0.08    0.06
  -3   9  -9    0.03    0.07
  -3  -9   9    0.11    0.08
   9  -9  -3    0.06    0.05
   9   9   3    0.13    0.08
  -9  -3   9   -0.03    0.05
   3   9   9    0.01    0.05
  -9  -3   9    0.02    0.06
  -9   5   9   -0.02    0.06
   9  -9   5   -0.06    0.06
  -5   9   9    0.05    0.08
   9   5  -9    0.03    0.04
  -9   5   9    0.00    0.05
  -9   9   5    0.09    0.07
   5  -9   9    0.00    0.08
  -5   9   9   -0.04    0.04
  -9   9   5    0.06    0.05
   5   9  -9   -0.02    0.05
   9  -5   9   -0.11    0.06
   9   5   9    0.00    0.06
   5   9   9    0.07    0.06
   5   9   9   -0.02    0.08
  -9  -5   9    0.02    0.06
   9   5   9   -0.04    0.06
   9   9   5   -0.05    0.06
  -9   9  -5   -0.07    0.05
  -5   9  -9    0.01    0.07
   9  -9  -5    0.03    0.06
  -9  -9   5    0.09    0.07
  -5  -9   9    0.07    0.07
   9   9   5   -0.01    0.05
  -9   9   7   -0.06    0.06
  -7   9   9    0.07    0.07
  -9   7   9   -0.02    0.06
  -9   9   7    0.02    0.05
   7   9  -9    0.01    0.06
  -9   7   9    0.01    0.04
  -7   9   9   -0.02    0.05
   9  -7   9    0.09    0.08
   7  -9   9   -0.14    0.06
   9  -9   7   -0.06    0.07
   9   7  -9   -0.05    0.05
  -9   7   9    0.03    0.06
   9   9  -7   -0.03    0.05
   9   9   7    0.01    0.06
   7   9   9    0.06    0.07
   7  -9  -9   -0.03    0.05
   9   9   7    0.03    0.08
  -7   9  -9    0.01    0.07
   9  -9  -7   -0.01    0.06
   7   9   9    0.00    0.08
  -9   9  -7    0.04    0.07
   9   7   9    0.08    0.09
  -9  -7   9    0.04    0.07
  -9   7  -9   -0.11    0.07
  -7  -9   9   -0.04    0.05
  -9  -9   7   -0.04    0.05
   9   7   9   -0.01    0.07
  -9   9   9   -0.02    0.07
   9  -9   9   -0.05    0.07
  -9   9   9   -0.05    0.04
   9   9  -9    0.00    0.06
   9   9   9   -0.10    0.08
   9   9   9    0.08    0.07
  -9   9  -9   -0.09    0.06
  -9  -9   9   -0.01    0.07
   9  -9  -9   -0.03    0.06
   0  10   0    0.08    0.06
   0   0  10    0.09    0.06
   0  10   0    0.17    0.07
   0 -10   0    0.15    0.04
  10   0   0    0.11    0.06
   0   0  10    0.13    0.05
   0  10  -2   24.54    0.66
   0  10  -2   24.17    0.73
   0 -10   2   24.64    0.69
   2   0  10   24.56    0.78
   2   0  10   25.01    0.68
  10   2   0   24.49    0.76
  -2   0  10   24.84    0.68
   0 -10  -2   24.50    0.62
  -2   0  10   24.55    0.76
   0  10   2   24.43    0.72
  10  -2   0   25.49    0.75
 -10   4   0    0.16    0.06
   0  10  -4    0.15    0.06
   0 -10   4    0.20    0.06
   4   0  10    0.13    0.06
   0  10   4    0.16    0.08
  10  -4   0    0.23    0.07
 -10   4   0    0.18    0.06
   4   0  10    0.10    0.06
  10   4   0    0.17    0.07
  -4   0  10    0.14    0.06
  -4   0  10    0.23    0.06
 -10   6   0   40.01    1.05
  -6   0  10   39.54    1.12
  -6   0  10   39.32    1.04
   0  10   6   35.00    1.08
 -10   6   0   40.12    1.06
  10   6   0   41.00    1.13
   6   0  10   37.42    1.11
  10  -6   0   41.95    1.11
   6   0  10   38.96    1.03
   0  10  -6   39.62    1.09
   0 -10   6   39.60    1.12
 -10   8   0    0.23    0.07
   8   0  10    0.19    0.08
   8   0  10    0.18    0.06
  10  -8   0    0.11    0.07
   0  10   8    0.28    0.11
   0 -10   8    0.06    0.07
  10   8   0    0.22    0.08
   0  10   8    0.07    0.03
  -8   0  10    0.07    0.07
 -10   8   0    0.12    0.06
   0  10  -8    0.15    0.07
  -8   0  10    0.14    0.06
   0  -2  10   25.25    0.65
  10   0  -2   25.03    0.75
  -2  10   0   23.78    0.68
   0   2  10   23.39    0.74
  10   0   2   24.79    0.75
   0  -2  10   24.62    0.79
   2 -10   0   23.97    0.66
   2  10   0   26.10    0.70
  -2 -10   0   23.71    0.65
   2  -2  10   57.36    1.34
  -2  10   2   54.47    1.41
  -2 -10  -2   54.47    1.36
   2  10  -2   56.04    1.44
  10   2  -2   55.64    1.49
  10  -2   2   57.10    1.50
   2 -10   2   55.18    1.43
   2  -2  10   56.65    1.53
   2  10  -2   58.30    1.37
  -2   2  10   55.60    1.39
 -10   2   2   56.45    1.42
  -2   2  10   55.16    1.48
  -2  10   2   57.67    1.45
   2 -10  -2   55.93    1.36
  10   2   2   55.19    1.49
   2   2  10   56.08    1.40
  -2  -2  10   55.99    1.35
  -2  10  -2   54.89    1.34
  -2  -2  10   53.62    1.51
  10  -2  -2   56.59    1.49
   2   2  10   53.54    1.49
  -2  10  -2   55.37    1.45
  -2 -10   2   58.39    1.43
   2  10   2   56.75    1.42
   2  10  -4    3.38    0.16
   4  -2  10    3.40    0.23
  -4   2  10    3.17    0.20
   4  -2  10    3.20    0.16
 -10   4   2    3.33    0.20
  -4   2  10    3.36    0.20
  10  -4   2    3.27    0.21
 -10   4   2    3.33    0.17
   2 -10   4    3.26    0.20
  10   4  -2    3.21    0.21
  -2  10   4    3.17    0.21
   2  10  -4    3.36    0.20
  10  -4  -2    3.66    0.21
  -4  -2  10    3.01    0.17
  -2  10  -4    3.30    0.20
  -4  -2  10    3.41    0.22
  -2 -10   4    3.57    0.20
 -10   4  -2    3.37    0.20
   4   2  10    3.10    0.21
   2  10   4    3.48    0.22
   4   2  10    3.54    0.20
  10   4   2    3.52    0.21
  10  -6   2   54.38    1.44
  -6   2  10   51.98    1.37
  -2  10   6   51.74    1.41
 -10   6   2   56.25    1.37
   6  -2  10   51.88    1.46
  -6   2  10   53.61    1.44
 -10   6   2   53.90    1.37
   2  10  -6   53.38    1.27
  10   6  -2   56.03    1.47
   6  -2  10   53.56    1.32
   2 -10   6   53.15    1.46
   2  10  -6   53.50    1.41
  -6  -2  10   54.09    1.35
   6   2  10   52.94    1.45
  10  -6  -2   52.57    1.42
 -10  -6   2   53.87    1.46
  -6  -2  10   53.26    1.48
 -10   6  -2   54.86    1.41
  -2 -10   6   52.29    1.45
  -2  10  -6   52.64    1.42
 -10   6  -2   55.70    1.36
   2  10   6   54.43    1.43
   6   2  10   53.71    1.37
   2  10   6   55.86    1.31
  10   6   2   54.85    1.45
  -2  10   8   12.85    0.35
   8  -2  10   12.88    0.42
  -8   2  10   12.58    0.48
  10  -8   2   12.60    0.47
   2 -10   8   13.33    0.52
  -2  10   8   12.73    0.50
   8  -2  10   12.36    0.49
 -10   8   2   12.98    0.44
   2  10  -8   12.38    0.46
  -8   2  10   11.84    0.46
 -10   8   2   12.83    0.46
 -10   8  -2   12.53    0.47
   2  10   8   12.11    0.50
  -8  -2  10   11.76    0.49
 -10  -8   2   12.45    0.48
 -10   8  -2   13.19    0.44
   8   2  10   12.07    0.45
  10  -8  -2   13.04    0.46
  10   8   2   12.71    0.48
  -8  -2  10   13.12    0.46
  -2  10  -8   12.95    0.49
   2  10   8   13.05    0.38
   8   2  10   12.38    0.48
  -2 -10   8   13.25    0.51
   4  10   0    0.10    0.06
 -10   0   4    0.16    0.06
  -4 -10   0    0.07    0.04
   0   4  10    0.07    0.05
  10   0   4    0.28    0.08
  10   0  -4    0.10    0.06
   4 -10   0    0.19    0.05
   0   4  10    0.19    0.07
   0  -4  10    0.05    0.04
  -4  10   0    0.23    0.07
   0   4 -10    0.18    0.06
   0  -4  10    0.12    0.06
  -4  10   0    0.19    0.06
  -2   4  10    3.35    0.21
   2   4 -10    3.43    0.18
  -4  10   2    3.36    0.20
  -4  10   2    3.70    0.20
  10  -2   4    3.47    0.22
   4 -10   2    3.27    0.18
  -2   4  10    3.61    0.20
   4  10  -2    3.70    0.19
   2  -4  10    3.14    0.23
 -10   2   4    3.24    0.20
  -2  -4  10    3.25    0.23
   4  10   2    3.26    0.15
  -2   4 -10    3.58    0.21
   4 -10  -2    3.44    0.14
 -10  -2   4    3.33    0.21
  10   2   4    3.65    0.22
   2   4  10    3.23    0.20
  -4  10  -2    3.50    0.21
   2   4  10    3.37    0.21
  -4 -10   2    3.23    0.18
   4  10   2    3.43    0.20
  -2  -4  10    3.28    0.15
  -4  10  -2    3.25    0.16
  10  -2  -4    3.62    0.21
  10  -4   4    0.85    0.12
  -4   4  10    0.63    0.10
   4  -4  10    0.66    0.07
  -4  10   4    0.60    0.10
  -4   4  10    0.78    0.10
  -4  10   4    0.61    0.09
 -10   4   4    0.92    0.08
 -10   4   4    0.54    0.10
   4  10  -4    0.60    0.08
   4  -4  10    0.76    0.12
   4   4 -10    0.72    0.08
   4  10  -4    0.66    0.10
   4 -10   4    0.80    0.10
  10   4   4    0.71    0.10
   4   4  10    0.54    0.10
 -10  -4   4    0.78    0.11
  -4 -10   4    0.77    0.10
   4   4  10    0.45    0.10
   4  10   4    0.76    0.11
  -4  -4  10    0.62    0.11
  -4  10  -4    0.67    0.10
  -4  -4  10    0.74    0.09
   4 -10  -4    0.59    0.06
   4  10   4    0.66    0.07
  10  -4  -4    0.62    0.10
  -6   4  10    2.68    0.19
  -4  10   6    2.87    0.21
   6   4 -10    3.00    0.15
 -10   6   4    2.94    0.20
   6  -4  10    2.82    0.21
   4  10  -6    2.77    0.19
 -10   6   4    2.99    0.16
   4 -10   6    3.51    0.22
  -6   4  10    2.86    0.18
   6  -4  10    2.83    0.14
  10  -6   4    2.65    0.20
  10  -6  -4    2.86    0.19
   6   4  10    3.03    0.20
  -4  10  -6    2.35    0.19
   4 -10  -6    2.78    0.12
  -4 -10   6    2.57    0.19
 -10  -6   4    2.59    0.19
   4  10   6    2.85    0.14
  -6  -4  10    3.08    0.18
  10   6   4    2.68    0.19
  -6  -4  10    2.73    0.21
   6   4  10    3.15    0.21
 -10   6  -4    3.13    0.21
   4  10   6    3.03    0.22
 -10   8   4    0.18    0.06
 -10   8   4    0.22    0.08
  -4  10   8    0.08    0.08
   4 -10   8    0.25    0.09
  10  -8   4    0.11    0.07
  -8   4  10    0.13    0.07
   8  -4  10    0.22    0.06
  -8   4  10    0.08    0.06
   8  -4  10    0.14    0.08
   4  10  -8    0.19    0.08
 -10   8  -4    0.31    0.09
   4 -10  -8    0.19    0.05
   4  10   8    0.09    0.09
  10  -8  -4    0.25    0.08
 -10  -8   4    0.23    0.09
   8   4  10    0.08    0.07
  -4  10  -8    0.13    0.08
  10   8   4    0.32    0.08
  -4 -10   8    0.20    0.08
  10   8   4    0.09    0.07
  -8  -4  10    0.26    0.08
   8   4  10    0.31    0.09
   4  10   8    0.15    0.06
  -8  -4  10    0.13    0.08
 -10   0   6   38.90    1.07
  10   0   6   40.13    1.13
  -6 -10   0   39.16    1.05
   6  10   0   38.42    1.04
   0   6  10   39.12    1.06
  -6  10   0   40.31    1.02
   6 -10   0   39.42    1.03
  -6  10   0   38.55    1.07
   0   6 -10   39.72    1.07
 -10   0   6   38.26    1.11
   0  -6  10   39.01    1.16
   0   6  10   40.03    1.10
  -6  10   2   51.39    1.39
 -10   2   6   56.58    1.46
   2   6 -10   54.96    1.38
 -10   2   6   51.97    1.39
   2  -6  10   55.23    1.52
   6 -10   2   52.96    1.39
  10  -2   6   53.76    1.46
   6  10  -2   52.92    1.35
  -6  10   2   55.36    1.37
  -2   6  10   53.83    1.39
  -6  10  -2   57.07    1.31
 -10  -2   6   52.64    1.46
   2   6  10   55.03    1.42
   6  10   2   52.55    1.38
   2   6  10   52.28    1.41
  -2   6 -10   50.50    1.40
  -6  10  -2   52.48    1.41
  -2  -6  10   51.44    1.50
   6 -10  -2   56.79    1.36
  10   2   6   54.40    1.46
  -6 -10   2   52.80    1.41
 -10  -2   6   54.75    1.40
  -2  -6  10   55.51    1.28
   6  10   2   53.43    1.38
   4   6 -10    2.63    0.16
  -4   6  10    2.71    0.20
  -6  10   4    2.66    0.18
  10  -4   6    2.68    0.21
   6 -10   4    2.91    0.19
  -4   6  10    2.99    0.17
  -6  10   4    2.80    0.20
 -10   4   6    2.77    0.19
   4  -6  10    2.55    0.21
  -6  10  -4    2.91    0.14
   6  10   4    2.79    0.15
  -6  10  -4    3.02    0.20
   4   6  10    2.85    0.19
 -10  -4   6    2.71    0.20
  -4   6 -10    2.86    0.21
  -4  -6  10    2.82    0.22
   6 -10  -4    2.97    0.15
  10  -4  -6    2.78    0.19
   4   6  10    2.78    0.21
   6  10   4    2.68    0.20
  10   4   6    3.02    0.21
  -4  -6  10    2.97    0.16
  -6 -10   4    3.13    0.20
  -6   6  10  103.36    2.51
   6 -10   6  101.41    2.57
  -6  10   6  102.13    2.47
  10  -6   6   99.03    2.57
   6  -6  10  101.47    2.61
   6   6 -10  100.18    2.41
   6  10  -6  103.86    2.48
  -6  10   6   98.28    2.46
  -6   6  10  101.33    2.47
 -10   6   6  103.51    2.39
 -10   6   6   99.30    2.45
  -6   6 -10  104.53    2.55
   6 -10  -6  102.72    2.45
  10   6   6  100.54    2.56
   6  10   6  102.25    2.49
  10  -6  -6  104.39    2.54
  -6  -6  10  101.83    2.62
   6   6  10   96.92    2.52
  -6  -6  10  102.98    2.40
   6   6  10   99.75    2.48
  10   6   6  101.32    2.47
  -6 -10   6  101.33    2.57
 -10   6  -6  101.65    2.54
  -6  10  -6  101.52    2.53
   6  10   6   99.01    2.46
 -10  -6   6  100.04    2.59
  -8   6  10    0.75    0.11
  -8   6  10    0.97    0.14
  -8   6  10    0.75    0.08
 -10   8   6    0.82    0.10
   8  -6  10    0.70    0.13
   8  -6  10    0.82    0.08
   6  10  -8    0.66    0.10
   6 -10   8    0.62    0.13
 -10   8   6    0.75    0.12
  10  -8   6    0.74    0.12
  -6  10   8    0.64    0.12
   8   6 -10    0.81    0.09
  -6  10   8    0.55    0.10
   6  10   8    0.68    0.10
  -6 -10   8    0.65    0.12
  10   8   6    0.63    0.11
   8   6  10    0.67    0.12
  -8   6 -10    0.82    0.14
   6  10   8    0.63    0.13
  -8  -6  10    0.78    0.13
 -10  -8   6    0.46    0.11
  10   8   6    0.59    0.11
 -10   8  -6    0.72    0.12
   6 -10  -8    0.73    0.09
  -6  10  -8    0.64    0.12
  10  -8  -6    1.00    0.12
   8   6  10    0.65    0.11
   8 -10   0    0.05    0.05
   0   8  10    0.12    0.05
   0   8 -10    0.20    0.08
 -10   0   8    0.13    0.07
 -10   0   8    0.12    0.06
   8  10   0    0.26    0.08
   8  10   0    0.16    0.06
   0   8  10    0.14    0.09
  -8  10   0    0.13    0.07
  10   0   8    0.15    0.09
  -8  10   0    0.25    0.07
   0  -8  10    0.28    0.11
 -10   2   8   13.09    0.48
   8 -10   2   12.53    0.45
  -2   8  10   12.57    0.40
 -10   2   8   12.50    0.48
  -2   8  10   12.82    0.50
   2   8 -10   13.31    0.46
  -8  10   2   12.86    0.45
  10  -2   8   13.36    0.51
   2  -8  10   12.23    0.52
  -8  10   2   13.19    0.46
  10   2   8   13.54    0.51
   2   8  10   13.02    0.43
   2   8  10   13.45    0.52
  -8  10  -2   12.79    0.42
  -2   8 -10   13.00    0.48
  -8  10  -2   13.07    0.48
 -10  -2   8   12.38    0.47
   8  10   2   11.96    0.45
  -8 -10   2   12.61    0.46
 -10  -2   8   12.24    0.50
  10   2   8   12.72    0.46
  -2  -8  10   12.42    0.52
   8  10   2   12.31    0.47
   8 -10  -2   12.91    0.43
   4   8 -10    0.25    0.08
   8 -10   4    0.10    0.06
  -8  10   4    0.24    0.08
   4  -8  10    0.13    0.08
 -10   4   8    0.10    0.06
  -4   8  10    0.23    0.09
  -8  10   4    0.18    0.07
  10  -4   8    0.19    0.08
 -10   4   8    0.14    0.08
  -4   8  10    0.18    0.05
  -8  10  -4    0.15    0.06
  -4  -8  10    0.22    0.09
 -10  -4   8    0.11    0.07
  -8 -10   4    0.19    0.07
  -8  10  -4    0.06    0.07
   8  10   4    0.19    0.08
   8  10   4    0.17    0.07
   4   8  10    0.16    0.09
  10   4   8    0.12    0.08
   8 -10  -4    0.21    0.06
 -10  -4   8    0.09    0.07
  10   4   8    0.22    0.08
   4   8  10    0.40    0.08
  -4   8 -10    0.29    0.09
   8 -10   6    0.80    0.12
  -6   8  10    0.80    0.13
   8  10  -6    0.67    0.11
  10  -6   8    0.76    0.13
 -10   6   8    0.79    0.08
 -10   6   8    0.72    0.12
  -8  10   6    0.55    0.10
  10   6  -8    0.77    0.09
   6  -8  10    0.73    0.13
  -8  10   6    0.64    0.11
  -6   8  10    0.82    0.10
   6   8 -10    0.44    0.09
  -8  10  -6    0.77    0.13
  10  -6  -8    0.69    0.11
 -10   6  -8    0.95    0.15
  10   6   8    0.66    0.12
   8  10   6    0.74    0.11
   6   8  10    0.74    0.11
   8  10   6    0.80    0.13
 -10  -6   8    0.62    0.12
  -6  -8  10    0.49    0.11
  -8 -10   6    0.48    0.10
  10   6   8    0.59    0.12
  -6   8 -10    0.68    0.13
   8 -10  -6    0.58    0.09
   6   8  10    0.48    0.12
  10   8  -8    0.67    0.10
   8  10  -8    1.05    0.12
  -8   8  10    0.97    0.14
  -8   8  10    0.86    0.10
  -8  10   8    1.18    0.15
 -10   8   8    0.85    0.14
  10  -8   8    0.58    0.12
   8  -8  10    1.38    0.18
   8 -10   8    1.04    0.15
  -8   8  10    1.06    0.12
   8   8 -10    0.91    0.11
  -8  10   8    1.08    0.12
 -10   8   8    0.88    0.10
   8  10   8    0.90    0.14
   8 -10  -8    0.94    0.11
 -10   8  -8    0.87    0.14
  -8   8 -10    1.08    0.16
  -8 -10   8    0.93    0.14
  -8  -8  10    0.78    0.14
   8  10   8    0.88    0.12
 -10  -8   8    1.07    0.15
   8   8  10    0.85    0.14
  -8  10  -8    1.02    0.15
   8   8  10    1.00    0.13
  10  -8  -8    1.04    0.13
  10   8   8    1.13    0.14
  10   8   8    0.90    0.14
   0  10 -10    0.05    0.07
  10   0  10    0.06    0.07
 -10  10   0    0.09    0.07
   0 -10  10    0.17    0.09
 -10   0  10    0.09    0.08
   0  10  10    0.04    0.04
  10 -10   0    0.17    0.08
 -10   0  10    0.09    0.07
  10   0  10    0.07    0.09
   0  10  10    0.47    0.12
 -10  10   0    0.00    0.06
  10  10   0    0.10    0.07
  10 -10   2   32.46    0.97
  -2  10  10   33.58    0.87
  10  -2  10   32.40    1.02
   2  10 -10   34.07    0.97
  -2  10  10   32.54    1.01
 -10  10   2   33.94    0.95
  10  -2  10   33.17    0.91
 -10   2  10   33.91    1.01
   2 -10  10   34.14    1.06
 -10   2  10   33.30    0.97
 -10  10   2   32.70    0.94
  -2 -10  10   34.07    1.06
  -2  10 -10   33.54    1.00
 -10  10  -2   32.34    0.97
  10  10   2   34.20    0.99
 -10  10  -2   34.47    0.92
  10   2  10   34.30    0.96
 -10  -2  10   34.93    0.98
  10  10   2   32.96    0.98
  10   2  10   34.67    1.03
 -10 -10   2   32.69    1.00
   2  10  10   33.64    0.89
 -10  -2  10   32.65    1.03
   2  10  10   32.48    1.01
  10 -10  -2   34.04    0.96
 -10   4  10    9.19    0.40
  10 -10   4    9.17    0.40
 -10   4  10    8.99    0.41
  -4  10  10    9.56    0.32
   4  10 -10    9.77    0.39
  -4  10  10    8.90    0.43
 -10  10   4    9.48    0.40
  10  -4  10    9.62    0.44
   4 -10  10    9.93    0.46
 -10  10   4    9.14    0.37
   4  10  10    9.74    0.35
 -10  -4  10    9.35    0.40
 -10 -10   4    8.85    0.41
  10  10   4    9.44    0.42
  10   4  10    9.55    0.42
  10  10   4    8.93    0.39
 -10  10  -4    8.86    0.35
 -10  -4  10    9.01    0.43
   4  10  10    9.38    0.44
  -4  10 -10    8.86    0.42
  10 -10  -4    9.82    0.38
  10   4  10    9.70    0.41
 -10  10  -4    9.99    0.42
  -4 -10  10    9.59    0.45
  -6  10  10   55.43    1.34
 -10  10   6   51.70    1.34
  -6  10  10   50.18    1.42
   6  10 -10   51.87    1.36
 -10   6  10   48.78    1.39
   6 -10  10   51.15    1.48
 -10  10   6   51.01    1.40
 -10   6  10   53.68    1.42
  10  -6  10   47.86    1.45
  10 -10   6   50.55    1.43
  10   6 -10   52.08    1.28
   6  10  10   50.59    1.44
  -6 -10  10   53.64    1.50
 -10  10  -6   51.38    1.44
 -10 -10   6   51.67    1.47
 -10  -6  10   49.88    1.48
  10 -10  -6   53.03    1.38
  10  10   6   51.60    1.40
  10   6  10   51.85    1.44
  10   6  10   52.31    1.41
  -6  10 -10   50.79    1.44
   6  10  10   50.29    1.35
  10  10   6   52.83    1.43
   8  10 -10    1.17    0.14
   8 -10  10    0.78    0.15
  10   8 -10    1.19    0.12
 -10  10   8    1.27    0.16
  -8  10  10    1.34    0.13
 -10   8  10    1.35    0.18
 -10  10   8    1.37    0.13
  -8  10  10    1.07    0.16
  10 -10   8    1.41    0.17
  10  -8  10    1.16    0.17
  10  10  -8    1.27    0.14
  10   8  10    1.13    0.17
 -10  10  -8    1.45    0.18
   8 -10 -10    1.39    0.13
 -10 -10   8    1.35    0.17
  -8 -10  10    1.01    0.16
 -10   8 -10    0.96    0.16
  10  10   8    1.08    0.16
  -8  10 -10    1.48    0.18
 -10  -8  10    1.20    0.18
  10   8  10    1.01    0.14
  10  10   8    1.24    0.15
  10  -8 -10    1.11    0.13
   8  10  10    1.25    0.18
  10 -10  -8    1.25    0.14
   8  10  10    1.50    0.15
 -10  10  10   21.42    0.75
 -10  10  10   22.36    0.66
  10  10 -10   21.87    0.67
  10 -10  10   21.39    0.77
  10 -10 -10   22.36    0.69
  10  10  10   20.41    0.71
  10  10  10   20.77    0.76
 -10 -10  10   21.19    0.78
 -10  10 -10   20.13    0.77
   1  -1  11    0.04    0.05
  -1 -11  -1    0.04    0.03
  11   1  -1    0.03    0.06
  -1  11   1    0.00    0.05
   1 -11   1    0.25    0.06
  -1   1  11   -0.03    0.05
  11  -1   1    0.08    0.06
  -1  11   1    0.46    0.09
  -1   1  11    0.07    0.05
   1  11  -1    0.03    0.05
   1  -1  11   -0.08    0.05
   1  11  -1    0.05    0.06
   1 -11  -1    0.05    0.03
  -1  -1  11    0.39    0.10
  -1 -11   1    0.00    0.04
   1   1  11    0.06    0.06
  -1  11  -1    0.11    0.06
  11  -1  -1    0.14    0.07
   1   1  11    0.06    0.05
  11   1   1    0.03    0.06
  -1  11  -1    0.00    0.05
   1  11   1    0.16    0.07
  -1  -1  11    0.00    0.05
   1  11  -3   46.70    1.16
  -3   1  11   47.26    1.20
  11  -3   1   46.85    1.29
   3  -1  11   46.45    1.32
  -1  11   3   45.08    1.23
  -3   1  11   46.40    1.29
   1  11  -3   47.90    1.27
  11   3  -1   48.40    1.30
 -11   3   1   46.56    1.23
   3  -1  11   48.34    1.17
   1 -11   3   45.03    1.24
  -3  -1  11   45.60    1.31
  11  -3  -1   45.34    1.28
   3   1  11   47.82    1.20
  11   3   1   47.56    1.30
   3   1  11   46.59    1.31
  -3  -1  11   46.20    1.18
  -1  11  -3   44.31    1.25
  -1  11  -3   46.34    1.15
  -1 -11   3   49.13    1.24
   1  11   3   46.73    1.24
   1  11  -5    3.77    0.23
   5  -1  11    3.96    0.20
 -11   5   1    3.74    0.20
  -5   1  11    3.74    0.23
  -5   1  11    3.82    0.22
   5  -1  11    3.79    0.25
  11   5  -1    3.86    0.24
  -1  11   5    3.90    0.24
   1  11  -5    4.17    0.18
   1 -11   5    3.99    0.23
  11  -5   1    4.12    0.24
 -11   5   1    3.79    0.22
 -11   5  -1    3.76    0.22
 -11   5  -1    3.67    0.22
   5   1  11    4.08    0.22
   1  11   5    3.72    0.24
   5   1  11    3.84    0.25
  -5  -1  11    3.58    0.21
  -5  -1  11    3.76    0.25
  11   5   1    3.42    0.23
  -1 -11   5    3.67    0.22
  -1  11  -5    3.89    0.24
  11  -5  -1    4.14    0.24
  -7   1  11    4.62    0.25
   1 -11   7    6.95    0.33
  11  -7   1    5.55    0.28
 -11   7   1    4.72    0.24
  -7   1  11    5.18    0.28
   1  11  -7    5.20    0.28
   7  -1  11    4.85    0.24
  11   7  -1    4.89    0.28
  -1  11   7    4.69    0.29
 -11   7   1    4.99    0.26
   7  -1  11    5.03    0.29
   1  11   7    5.17    0.30
  -7  -1  11    4.99    0.29
  11  -7  -1    4.97    0.27
   7   1  11    5.06    0.29
  -7  -1  11    4.77    0.25
  11   7   1    5.21    0.29
  -1 -11   7    5.80    0.30
 -11   7  -1    5.13    0.27
 -11   7  -1    5.40    0.26
   7   1  11    5.12    0.26
  -1  11  -7    5.15    0.28
  11  -9   1    4.09    0.25
   1  11  -9    3.95    0.25
 -11   9   1    3.91    0.23
  -9   1  11    3.77    0.25
   9  -1  11    4.00    0.26
  -9   1  11    4.17    0.25
  -1  11   9    3.93    0.28
   1 -11   9    4.54    0.29
 -11   9   1    3.86    0.24
   9  -1  11    4.04    0.23
  11   9  -1    4.14    0.26
  -1  11   9    4.06    0.14
   1  11   9    4.11    0.29
 -11   9  -1    4.21    0.23
  11   9   1    4.53    0.27
   9   1  11    3.92    0.26
  11  -9  -1    4.14    0.24
  -1 -11   9    3.58    0.26
  -1  11  -9    3.95    0.26
   1  11   9    4.02    0.15
  -9  -1  11    4.12    0.27
 -11   9  -1    4.31    0.25
  -9  -1  11    4.16    0.25
   9   1  11    4.26    0.24
   1  -3  11   46.94    1.11
  11  -1   3   46.81    1.28
  -3  11   1   44.88    1.23
   1  -3  11   45.39    1.32
   3 -11   1   46.28    1.19
  -3  11   1   44.56    1.18
  -3 -11  -1   44.43    1.15
 -11   1   3   45.01    1.22
  11   1  -3   46.72    1.28
  -1   3  11   45.24    1.26
  -1   3  11   46.54    1.20
   3  11  -1   46.71    1.17
  -3 -11   1   46.49    1.18
   3 -11  -1   46.92    1.16
  -3  11  -1   44.49    1.23
  -1  -3  11   46.04    1.12
   1   3  11   44.79    1.27
  11  -1  -3   48.20    1.28
  -3  11  -1   46.28    1.15
  -1  -3  11   45.38    1.31
   1   3  11   45.63    1.20
   3  11   1   47.37    1.20
  11   1   3   43.60    1.26
   3  -3  11    0.02    0.04
   3 -11   3    0.00    0.05
  11   3  -3    0.02    0.06
  -3  11   3    0.02    0.07
   3  11  -3    0.01    0.05
   3  -3  11    0.04    0.08
  -3   3  11    0.08    0.06
  -3   3  11    0.33    0.08
   3  11  -3    0.13    0.07
 -11   3   3    0.04    0.05
  11  -3   3    0.10    0.08
  -3  11   3    0.09    0.07
  -3  -3  11   -0.01    0.06
  -3  11  -3   -0.01    0.06
  -3  11  -3    0.03    0.04
   3  11   3    0.08    0.04
   3 -11  -3    0.13    0.03
  11  -3  -3    0.05    0.06
  11   3   3    0.04    0.06
   3   3  11   -0.02    0.05
   3  11   3    0.03    0.06
   3   3  11    0.08    0.07
  -3 -11   3    0.02    0.05
  -3  -3  11    0.11    0.05
   5  -3  11    7.68    0.38
   5  -3  11    7.32    0.27
  11  -5   3    7.93    0.36
 -11   5   3    7.42    0.29
   5   3 -11    7.32    0.27
  11   5  -3    7.80    0.37
  -3  11   5    7.11    0.35
   3  11  -5    7.61    0.33
   3  11  -5    7.97    0.28
 -11   5   3    7.96    0.34
  -5   3  11    7.51    0.33
   3 -11   5    7.59    0.34
  -5   3  11    7.81    0.34
   5   3  11    7.37    0.34
  -3  11  -5    7.41    0.34
   3  11   5    7.31    0.23
  -5  -3  11    7.69    0.38
  -3 -11   5    7.60    0.33
  -5  -3  11    7.36    0.30
  11   5   3    7.25    0.34
   5   3  11    7.13    0.33
 -11  -5   3    7.88    0.36
   3  11   5    8.08    0.37
  11  -5  -3    7.96    0.34
 -11   5  -3    7.66    0.34
 -11   7   3   -0.01    0.05
  -3  11   7    0.10    0.08
   3 -11   7    0.09    0.08
  11  -7   3    0.14    0.09
   7  -3  11    0.14    0.06
  -7   3  11   -0.07    0.05
   7  -3  11   -0.01    0.06
  -7   3  11   -0.06    0.05
 -11   7   3    0.00    0.06
   3  11  -7    0.02    0.04
   3  11  -7    0.06    0.06
  11  -7  -3    0.03    0.06
   3  11   7    0.03    0.04
   7   3  11    0.04    0.07
  -3  11  -7   -0.06    0.06
  -3 -11   7    0.01    0.06
   7   3  11    0.09    0.07
   3 -11  -7    0.02    0.02
 -11   7  -3    0.04    0.06
  11   7   3    0.08    0.06
  -7  -3  11    0.02    0.06
   3  11   7    0.03    0.08
  -7  -3  11    0.09    0.07
 -11  -7   3    0.02    0.06
  -3  11   9    1.49    0.18
   3  11  -9    1.33    0.15
  11  -9   3    1.05    0.14
 -11   9   3    1.24    0.15
  -9   3  11    1.29    0.15
   3 -11   9    1.43    0.18
  -9   3  11    1.07    0.14
 -11   9   3    1.56    0.14
   9  -3  11    1.11    0.12
   9  -3  11    1.39    0.18
  11   9   3    1.52    0.16
   3  11   9    1.26    0.11
  -9  -3  11    1.25    0.16
 -11   9  -3    1.39    0.16
   9   3  11    1.60    0.17
 -11   9  -3    1.55    0.14
  11  -9  -3    1.26    0.14
  -9  -3  11    1.45    0.15
   9   3  11    1.12    0.14
  -3 -11   9    1.32    0.17
  -3  11  -9    1.29    0.16
 -11  -9   3    1.48    0.16
   3  11   9    1.06    0.16
  -5  11   1    3.87    0.23
  -1   5  11    3.95    0.22
   1   5 -11    3.88    0.22
  -5  11   1    3.86    0.21
 -11   1   5    4.06    0.24
   5  11  -1    3.37    0.20
   5 -11   1    4.03    0.20
  11  -1   5    3.97    0.25
   1  -5  11    3.73    0.26
  -1   5  11    4.50    0.25
  -5 -11  -1    3.88    0.19
  11   1   5    4.00    0.25
 -11  -1   5    3.77    0.23
   1   5  11    4.37    0.25
  -1   5 -11    3.46    0.22
  -1  -5  11    3.89    0.16
 -11  -1   5    4.11    0.25
  -5 -11   1    3.72    0.20
  -5  11  -1    3.78    0.23
   5  11   1    4.09    0.23
  -5  11  -1    3.55    0.19
  11  -1  -5    4.18    0.24
  -1  -5  11    3.48    0.26
   1   5  11    3.90    0.23
   5 -11  -1    3.69    0.17
   5 -11   3    7.41    0.31
  11  -3   5    7.34    0.35
  -5  11   3    7.76    0.33
   3   5 -11    7.34    0.30
  -3   5  11    7.65    0.32
  -5  11   3    6.94    0.32
  -3   5  11    7.06    0.33
 -11   3   5    8.43    0.35
   5  11  -3    7.15    0.29
   3  -5  11    7.82    0.38
   3   5  11    7.44    0.33
   5  11   3    6.90    0.27
  11   3   5    7.72    0.36
  -5  11  -3    7.72    0.27
   5  11   3    7.47    0.34
  -3  -5  11    7.79    0.28
  -3  -5  11    7.16    0.37
  -5 -11   3    8.05    0.32
  -3   5 -11    7.29    0.35
  -5  11  -3    6.84    0.33
   5 -11  -3    7.34    0.25
  11  -3  -5    7.51    0.34
   3   5  11    7.32    0.34
 -11  -3   5    7.15    0.35
   5  -5  11    0.06    0.08
   5  -5  11   -0.04    0.04
  -5   5  11    0.04    0.05
  -5  11   5   -0.04    0.05
 -11   5   5   -0.05    0.06
  -5  11   5    0.00    0.05
   5 -11   5   -0.02    0.06
  11  -5   5    0.10    0.09
   5  11  -5    0.02    0.06
  -5   5  11    0.01    0.06
 -11   5   5   -0.03    0.04
   5   5 -11   -0.04    0.05
   5 -11  -5   -0.02    0.03
  -5  -5  11   -0.01    0.05
  11  -5  -5    0.02    0.06
   5  11   5    0.49    0.11
 -11  -5   5    0.04    0.06
  -5   5 -11    0.03    0.06
  -5  11  -5    0.00    0.07
   5   5  11   -0.08    0.04
  11   5   5   -0.05    0.05
  -5  -5  11   -0.04    0.05
   5  11   5    0.02    0.04
  -5  11  -5    0.02    0.03
  -5 -11   5    0.07    0.06
   5   5  11   -0.08    0.05
  -7   5  11    1.52    0.14
   7  -5  11    1.16    0.16
  11  -7   5    1.41    0.16
   7  -5  11    1.50    0.11
  -7   5  11    1.47    0.16
 -11   7   5    1.53    0.16
   5  11  -7    1.21    0.14
   7   5 -11    1.68    0.12
   5 -11   7    1.38    0.16
  -5  11   7    1.05    0.15
 -11   7   5    1.32    0.12
  11   7   5    1.54    0.16
  11  -7  -5    1.45    0.15
 -11  -7   5    1.41    0.16
   7   5  11    1.35    0.15
  11   7   5    1.44    0.16
   5 -11  -7    1.44    0.10
  -7  -5  11    1.49    0.14
   5  11   7    1.50    0.18
  -5 -11   7    1.38    0.16
  -5  11  -7    1.31    0.15
 -11   7  -5    1.36    0.16
   7   5  11    1.52    0.16
  -7  -5  11    1.54    0.18
   5  11   7    1.42    0.11
  -9   5  11   -0.14    0.06
   9  -5  11   -0.15    0.05
  -5  11   9    0.11    0.09
   9  -5  11   -0.08    0.08
 -11   9   5    0.01    0.05
 -11   9   5   -0.01    0.06
  -9   5  11    0.09    0.07
  11  -9   5   -0.13    0.07
   5  11  -9   -0.03    0.06
   5 -11   9   -0.05    0.07
   9   5 -11    0.03    0.05
 -11   9  -5    0.01    0.07
  11  -9  -5    0.00    0.07
   9   5  11    0.08    0.08
  -9  -5  11    0.06    0.08
  11   9   5    0.06    0.08
  -9  -5  11    0.00    0.08
   9   5  11    0.09    0.09
   5  11   9    0.02    0.08
   5  11   9    0.00    0.05
  -5 -11   9    0.04    0.07
 -11  -9   5   -0.01    0.07
  11   9   5    0.14    0.08
  -5  11  -9   -0.16    0.06
   5 -11  -9    0.01    0.05
  -1   7  11    4.89    0.29
 -11   1   7    5.36    0.28
  -7  11   1    5.26    0.26
 -11   1   7    5.28    0.29
   1   7 -11    5.11    0.26
   7 -11   1    5.29    0.24
  -1   7  11    5.30    0.24
  -7  11   1    5.39    0.28
  11  -1   7    4.99    0.29
   1  -7  11    6.21    0.34
   7  11  -1    5.07    0.26
 -11  -1   7    5.47    0.29
   7  11   1    4.97    0.27
  -7  11  -1    4.94    0.24
   1   7  11    5.43    0.25
   1   7  11    5.25    0.31
 -11  -1   7    5.33    0.29
  11   1   7    5.24    0.30
   7  11   1    5.40    0.25
  -1   7 -11    4.97    0.27
   7 -11  -1    4.84    0.22
  -1  -7  11    5.18    0.31
  -7  11  -1    5.25    0.28
  -7 -11   1    4.84    0.25
 -11   3   7    0.02    0.05
  -7  11   3   -0.03    0.05
  -3   7  11   -0.01    0.06
   3   7 -11    0.12    0.07
   7 -11   3    0.00    0.06
   3  -7  11   -0.04    0.07
 -11   3   7    0.08    0.07
  11  -3   7    0.00    0.08
  -7  11   3   -0.04    0.05
  -3   7  11    0.12    0.05
  -3   7 -11   -0.03    0.06
  -7 -11   3    0.06    0.06
  -3  -7  11    0.05    0.07
  -7  11  -3   -0.01    0.05
  11  -3  -7   -0.12    0.06
   3   7  11    0.01    0.06
   7  11   3    0.13    0.08
  -7  11  -3   -0.08    0.06
  -3  -7  11    0.05    0.05
 -11  -3   7   -0.05    0.05
 -11  -3   7    0.07    0.07
   3   7  11    0.12    0.09
   7 -11  -3   -0.04    0.04
  11   3   7    0.05    0.07
   7  11   3    0.08    0.05
  -5   7  11    1.63    0.17
  -7  11   5    1.51    0.16
 -11   5   7    1.48    0.16
 -11   5   7    1.33    0.10
   7 -11   5    1.21    0.14
  11  -5   7    1.28    0.16
   5   7 -11    1.47    0.13
   5  -7  11    1.71    0.19
  -5   7  11    1.57    0.13
   7  11  -5    1.44    0.15
  -7  11   5    1.13    0.14
   7  11   5    1.25    0.15
  11   5   7    1.42    0.16
   7  11   5    1.38    0.12
  -7  11  -5    1.59    0.17
   5   7  11    1.29    0.16
  11   5   7    1.31    0.15
  -5  -7  11    1.39    0.17
   5   7  11    1.62    0.15
 -11  -5   7    1.15    0.15
  11  -5  -7    1.56    0.15
  -5   7 -11    1.63    0.17
  -7  11  -5    1.25    0.10
  -7 -11   5    1.55    0.16
   7 -11  -5    1.52    0.12
   7  -7  11   -0.06    0.07
  -7  11   7    0.00    0.07
   7   7 -11    0.08    0.06
  -7  11   7    0.01    0.06
   7  -7  11    0.03    0.04
  -7   7  11    0.01    0.05
   7 -11   7   -0.04    0.06
  -7   7  11   -0.06    0.06
  11  -7   7   -0.04    0.07
 -11   7   7   -0.02    0.05
 -11   7   7    0.03    0.07
   7  11  -7    0.01    0.06
 -11   7  -7    0.04    0.08
   7 -11  -7    0.03    0.05
  11  -7  -7    0.04    0.07
   7   7  11   -0.03    0.07
  -7  11  -7    0.01    0.07
  -7  -7  11   -0.06    0.07
  11   7   7   -0.02    0.06
   7   7  11   -0.02    0.07
  -7 -11   7    0.00    0.06
   7  11   7    0.01    0.06
  11   7   7   -0.05    0.07
 -11  -7   7   -0.10    0.06
  -7   7 -11    0.01    0.08
   7  11   7   -0.04    0.07
  -7  11   9    1.26    0.14
  -9   7  11    1.32    0.17
 -11   9   7    1.41    0.13
   9   7 -11    1.23    0.11
   9  -7  11    0.81    0.15
  11  -9   7    1.44    0.18
   9  -7  11    1.15    0.10
 -11   9   7    1.00    0.15
   7 -11   9    1.42    0.17
   7  11  -9    1.03    0.13
  -7  11   9    1.22    0.17
  -9   7  11    0.91    0.13
   9   7  11    0.91    0.16
  11   9   7    1.28    0.16
  -7  11  -9    1.06    0.16
  -9  -7  11    1.20    0.18
   7  11   9    1.12    0.17
   9   7  11    1.14    0.15
   7  11   9    1.20    0.13
  -7 -11   9    0.93    0.14
 -11   9  -7    1.14    0.17
   7 -11  -9    1.14    0.11
  -9   7 -11    1.19    0.17
  11   9   7    1.08    0.16
 -11  -9   7    1.08    0.16
  11  -9  -7    1.41    0.14
 -11   1   9    3.61    0.25
  -9  11   1    3.69    0.23
  -9  11   1    3.91    0.23
   1   9 -11    3.84    0.24
  -1   9  11    4.37    0.29
   1  -9  11    4.26    0.29
 -11   1   9    3.84    0.25
  -1   9  11    4.32    0.19
   9 -11   1    4.84    0.24
  11  -1   9    4.22    0.28
  -1  -9  11    4.04    0.29
  -9  11  -1    4.13    0.26
   9  11   1    4.30    0.24
   1   9  11    3.77    0.20
   9 -11  -1    3.84    0.22
   1   9  11    3.76    0.27
  11   1   9    3.66    0.23
  -9  11  -1    4.00    0.22
 -11  -1   9    3.89    0.25
  11   1   9    4.25    0.27
   9  11   1    4.13    0.25
  -9 -11   1    3.74    0.24
 -11  -1   9    3.74    0.26
  -1   9 -11    3.97    0.25
   3   9 -11    1.46    0.15
  -3   9  11    1.31    0.11
 -11   3   9    1.05    0.15
  -9  11   3    1.24    0.15
   3  -9  11    1.04    0.16
 -11   3   9    1.47    0.16
  -3   9  11    1.46    0.17
  11  -3   9    1.41    0.17
  -9  11   3    1.09    0.14
   9 -11   3    1.19    0.14
  -3   9 -11    1.33    0.16
 -11  -3   9    1.38    0.17
  -9  11  -3    1.29    0.15
   9 -11  -3    1.55    0.13
   3   9  11    1.44    0.13
  11   3   9    1.24    0.15
   9  11   3    1.20    0.13
   9  11   3    1.28    0.16
  -3  -9  11    1.06    0.16
  -9 -11   3    1.21    0.15
   3   9  11    1.54    0.18
 -11  -3   9    1.32    0.16
  -9  11  -3    1.49    0.13
  11   3   9    1.25    0.17
  11  -5   9   -0.16    0.07
  -5   9  11    0.00    0.07
 -11   5   9   -0.03    0.06
   5   9 -11    0.04    0.07
  -9  11   5    0.10    0.07
  -9  11   5    0.08    0.07
  -5   9  11    0.04    0.06
  11   5  -9   -0.03    0.04
   5  -9  11    0.01    0.08
   9 -11   5    0.08    0.07
 -11   5   9    0.02    0.08
   5   9  11   -0.07    0.06
  -9  11  -5   -0.07    0.06
  11   5   9   -0.09    0.07
   5   9  11    0.10    0.07
  11   5   9    0.04    0.07
   9  11   5   -0.03    0.07
  -9  11  -5    0.08    0.09
  -5  -9  11    0.20    0.10
  -5   9 -11    0.08    0.09
 -11  -5   9   -0.03    0.06
   9 -11  -5    0.03    0.05
   9  11   5    0.03    0.06
  -9 -11   5   -0.03    0.06
  11  -7   9    1.08    0.17
   7   9 -11    1.04    0.12
   7  -9  11    1.26    0.18
  -9  11   7    0.85    0.15
   9 -11   7    1.11    0.16
  -7   9  11    0.92    0.15
  -9  11   7    1.11    0.13
  -7   9  11    1.48    0.14
   9  11  -7    1.28    0.14
  11   7  -9    1.14    0.11
 -11   7   9    0.92    0.14
   7   9  11    1.31    0.18
   9  11   7    1.40    0.18
 -11  -7   9    1.39    0.18
 -11   7  -9    1.26    0.17
  11   7   9    1.27    0.17
   7   9  11    1.39    0.14
  11  -7  -9    0.82    0.13
  -9 -11   7    1.00    0.15
   9  11   7    1.23    0.14
  11   7   9    1.11    0.15
  -7  -9  11    1.21    0.18
  -9  11  -7    1.30    0.17
  -7   9 -11    1.05    0.17
   9 -11  -7    1.06    0.12
  -9   9  11   -0.03    0.07
  11   9  -9   -0.02    0.07
   9  -9  11    0.03    0.10
   9  11  -9    0.04    0.07
  -9   9  11   -0.16    0.06
  -9  11   9    0.00    0.09
  -9   9  11   -0.08    0.06
   9   9 -11    0.09    0.06
  11  -9   9   -0.09    0.08
  -9  11   9    0.04    0.06
 -11   9   9   -0.02    0.08
   9 -11   9    0.10    0.09
 -11   9   9    0.04    0.06
  11   9   9   -0.15    0.07
  -9 -11   9    0.07    0.09
   9  11   9    0.06    0.09
   9   9  11    0.06    0.08
  -9   9 -11    0.11    0.09
   9 -11  -9    0.07    0.07
  -9  -9  11    0.08    0.09
  11  -9  -9    0.07    0.08
  -9  11  -9   -0.09    0.07
 -11   9  -9    0.11    0.09
   9  11   9   -0.01    0.08
   9   9  11   -0.04    0.08
 -11  -9   9   -0.01    0.07
  11   9   9    0.03    0.08
  11 -11   1   -0.03    0.07
 -11   1  11   -0.09    0.05
 -11  11   1   -0.01    0.07
  11  11  -1   -0.02    0.07
  -1  11  11    0.07    0.09
 -11  11   1   -0.08    0.06
  11  -1  11    0.00    0.08
 -11   1  11    0.06    0.08
   1  11 -11   -0.05    0.06
   1 -11  11    0.04    0.08
  -1  11  11   -0.01    0.04
  11  -1  11    0.07    0.07
  -1 -11  11   -0.04    0.07
  11  11   1    0.05    0.07
  11   1  11   -0.04    0.06
  -1  11 -11    0.10    0.08
  11   1  11    0.08    0.09
 -11  11  -1    0.05    0.07
  11 -11  -1    0.02    0.06
   1  11  11   -0.06    0.08
 -11  11  -1   -0.03    0.06
   1  11  11    0.07    0.05
 -11  -1  11    0.01    0.08
 -11  -1  11    0.03    0.07
  11 -11   3    0.06    0.08
 -11   3  11    0.16    0.08
  -3  11  11    0.04    0.05
  11  -3  11   -0.03    0.06
 -11   3  11   -0.06    0.07
   3  11 -11   -0.01    0.07
  -3  11  11    0.07    0.10
 -11  11   3    0.04    0.07
 -11  11   3   -0.01    0.06
  11  -3  11    0.02    0.09
   3 -11  11    0.00    0.09
  -3  11 -11    0.05    0.08
   3  11  11    0.01    0.05
  11   3  11   -0.02    0.09
  11  11   3    0.01    0.08
 -11  11  -3   -0.02    0.07
 -11  -3  11    0.01    0.07
  -3 -11  11    0.06    0.08
   3  11  11    0.19    0.11
 -11  -3  11    0.06    0.07
 -11 -11   3    0.04    0.08
  11   3  11    0.02    0.07
  11  11   3    0.04    0.08
 -11  11  -3    0.06    0.06
  11 -11  -3    0.02    0.07
  11 -11   5   -0.01    0.07
  11  -5  11    0.01    0.05
  11  -5  11    0.00    0.09
 -11   5  11    0.00    0.07
 -11  11   5   -0.03    0.06
  -5  11  11    0.01    0.04
  -5  11  11   -0.04    0.08
   5  11 -11   -0.07    0.06
   5 -11  11    0.05    0.09
 -11   5  11   -0.04    0.08
 -11  11   5   -0.02    0.06
  -5 -11  11    0.06    0.09
  11 -11  -5    0.07    0.08
  11  11   5    0.00    0.07
 -11  -5  11    0.00    0.08
  -5  11 -11   -0.07    0.07
   5  11  11    0.02    0.06
 -11  11  -5    0.03    0.07
  11   5  11    0.05    0.09
 -11  -5  11    0.04    0.08
 -11  11  -5    0.06    0.07
  11   5  11   -0.07    0.07
 -11 -11   5   -0.06    0.06
  11  11   5   -0.04    0.08
   5  11  11   -0.04    0.08
  11  -7  11   -0.03    0.08
 -11   7  11   -0.10    0.08
  11  11  -7    0.08    0.07
   7  11 -11    0.04    0.07
  11 -11   7    0.00    0.09
 -11  11   7    0.05    0.07
  -7  11  11    0.03    0.08
 -11  11   7   -0.08    0.07
 -11   7  11    0.00    0.07
   7 -11  11    0.12    0.10
   7  11  11    0.12    0.10
  11   7  11    0.06    0.08
  11  11   7    0.10    0.08
   7  11  11   -0.07    0.07
  -7  11 -11    0.06    0.09
 -11  11  -7    0.03    0.07
  11 -11  -7    0.05    0.07
 -11  -7  11   -0.07    0.08
  11   7  11    0.04    0.10
  -7 -11  11   -0.09    0.07
  11  11   7    0.18    0.11
 -11 -11   7   -0.03    0.07
   7 -11 -11    0.01    0.06
  -9  11  11   -0.05    0.07
 -11   9  11   -0.08    0.09
   9 -11  11    0.00    0.11
 -11  11   9   -0.07    0.06
  11  11  -9   -0.12    0.06
  11  -9  11    0.04    0.11
   9  11 -11   -0.09    0.07
  11 -11   9   -0.04    0.09
  -9  11  11   -0.15    0.07
 -11  11   9   -0.07    0.08
 -11  -9  11   -0.03    0.09
  11   9  11    0.12    0.10
  11  11   9   -0.09    0.09
  -9  11 -11   -0.19    0.08
 -11 -11   9   -0.01    0.08
   9  11  11    0.07    0.09
  11   9  11   -0.16    0.07
  11  11   9   -0.13    0.08
  11  -9 -11    0.05    0.08
 -11  11  -9   -0.01    0.08
  -9 -11  11    0.03    0.10
  11 -11  -9   -0.01    0.07
   9 -11 -11    0.01    0.06
 -11   9 -11   -0.06    0.09
   9  11  11   -0.08    0.10
 -11  11  11   -0.01    0.10
  11 -11  11    0.04    0.11
  11  11  11   -0.02    0.09
  11  11  11   -0.19    0.09
 -11 -11  11    0.03    0.10
 -11  11 -11    0.14    0.11
  11 -11 -11   -0.11    0.07
   0 -12   0  336.60    7.59
   0  12   0  315.20    7.49
  12   0   0  322.07    7.71
   0   0  12  320.88    7.74
   0  12   0  323.09    7.27
   0   0  12  325.29    7.24
   2   0  12    0.36    0.11
   2   0  12    0.11    0.07
   0  12   2    0.17    0.08
   0 -12   2    0.22    0.07
   0  12  -2    0.23    0.07
  12   2   0    0.26    0.09
  -2   0  12   -0.06    0.09
   0  12  -2    0.26    0.09
   0 -12  -2    0.18    0.04
  -2   0  12    0.12    0.07
  12  -2   0    0.13    0.08
   0  12  -4  405.84    9.70
 -12   4   0  431.05    9.47
  -4   0  12  433.28   10.01
   4   0  12  424.12   10.01
   0  12  -4  430.58    9.36
   0  12   4  421.54    9.48
  12   4   0  427.20   10.00
   4   0  12  423.23    9.40
   0 -12   4  420.08    9.93
  12  -4   0  408.29    9.96
  -4   0  12  418.73    9.41
  -6   0  12    0.11    0.07
  12  -6   0    0.13    0.08
   6   0  12    0.18    0.10
   0  12   6    0.29    0.11
   0 -12   6    0.08    0.07
  12   6   0    0.16    0.08
 -12   6   0    0.05    0.07
 -12   6   0    0.13    0.06
   0  12  -6    0.17    0.08
  -6   0  12    0.06    0.08
   6   0  12    0.11    0.07
 -12   8   0  169.19    3.92
  12   8   0  168.34    4.16
  -8   0  12  166.91    3.92
   0  12  -8  165.99    4.04
 -12   8   0  170.00    4.01
   8   0  12  166.30    4.17
  -8   0  12  173.15    4.18
   0  12   8  167.85    4.01
  12  -8   0  168.66    4.13
   0 -12   8  170.15    4.18
   8   0  12  168.22    3.90
 -10   0  12    0.05    0.07
  12 -10   0    0.18    0.09
   0  12  10    0.01    0.10
 -12  10   0    0.07    0.07
   0  12 -10    0.20    0.09
 -12  10   0    0.14    0.09
 -10   0  12    0.02    0.06
  10   0  12    0.12    0.08
  12  10   0    0.13    0.09
  10   0  12    0.01    0.09
   0 -12  10    0.12    0.09
   0  -2  12    0.21    0.06
   2 -12   0    0.16    0.06
  -2  12   0    0.28    0.09
   0   2  12    0.17    0.07
  -2 -12   0    0.19    0.06
   0  -2  12    0.28    0.10
   2  12   0    0.21    0.08
  12   0  -2    0.09    0.08
  12   0   2    0.19    0.10
  -2  12   0    0.18    0.08
   0   2  12    0.30    0.10
  -2   2  12   12.14    0.44
   2  12  -2   11.22    0.45
 -12   2   2   12.58    0.47
  -2 -12  -2   11.95    0.35
  -2  12   2   12.42    0.47
   2  12  -2   12.37    0.42
  12   2  -2   12.57    0.49
  12  -2   2   12.20    0.48
   2  -2  12   12.61    0.39
  -2  12   2   12.23    0.45
   2 -12   2   11.92    0.42
   2  -2  12   11.50    0.50
  -2   2  12   12.19    0.48
  -2  12  -2   11.42    0.46
   2  12   2   12.96    0.47
  -2  12  -2   12.06    0.40
   2   2  12   11.92    0.44
  -2  -2  12   12.07    0.40
  -2 -12   2   13.06    0.42
  -2  -2  12   11.31    0.49
  12   2   2   12.48    0.49
  12  -2  -2   11.97    0.47
   2 -12  -2   11.99    0.35
   2   2  12   11.75    0.48
  12  -4   2    2.77    0.21
  -4   2  12    2.31    0.18
 -12   4   2    2.66    0.20
   4  -2  12    2.70    0.16
   2 -12   4    2.58    0.19
   2  12  -4    2.60    0.20
   4  -2  12    2.19    0.21
  -4   2  12    2.76    0.20
   2  12  -4    2.45    0.15
  12   4  -2    2.75    0.22
  -2  12   4    2.17    0.20
   4   2  12    2.62    0.21
   4   2  12    2.77    0.19
  -2  12  -4    2.21    0.14
  12   4   2    1.78    0.18
  -4  -2  12    2.52    0.17
  -2  12  -4    2.33    0.19
  -4  -2  12    2.48    0.21
   2  12   4    2.84    0.22
  12  -4  -2    2.64    0.20
  -2 -12   4    2.31    0.18
   2  12  -6    2.86    0.21
   2 -12   6    3.53    0.23
  12  -6   2    3.33    0.23
  -2  12   6    3.16    0.24
 -12   6   2    3.10    0.21
   2  12  -6    3.15    0.16
  -6   2  12    2.88    0.21
 -12   6   2    2.86    0.19
   6  -2  12    3.39    0.19
  12   6  -2    3.22    0.23
   6  -2  12    2.80    0.23
  -6   2  12    2.96    0.20
   6   2  12    2.77    0.21
  12  -6  -2    3.06    0.22
  -2 -12   6    3.08    0.22
 -12   6  -2    2.93    0.21
   6   2  12    2.81    0.22
  -6  -2  12    2.98    0.23
   2  12   6    2.91    0.24
  -2  12  -6    2.98    0.22
  12   6   2    3.07    0.22
  -6  -2  12    2.97    0.19
   8  -2  12    0.42    0.09
 -12   8   2    0.22    0.08
  -2  12   8    0.34    0.11
  -8   2  12    0.12    0.08
  -8   2  12    0.31    0.09
   2  12  -8    0.27    0.09
  12   8  -2    0.31    0.10
   2  12  -8    0.27    0.05
   8  -2  12    0.27    0.11
 -12   8   2    0.28    0.09
  12  -8   2    0.26    0.10
   2 -12   8    0.24    0.11
 -12   8  -2    0.44    0.10
   8   2  12    0.44    0.11
   2  12   8    0.22    0.12
   8   2  12    0.26    0.11
  12  -8  -2    0.07    0.08
  -8  -2  12    0.23    0.08
  12   8   2    0.36    0.10
  -2  12  -8    0.37    0.11
  -2 -12   8    0.10    0.10
 -12   8  -2    0.21    0.09
  -8  -2  12    0.26    0.09
 -10   2  12    5.39    0.31
  12  10  -2    5.09    0.31
  12 -10   2    5.47    0.30
  -2  12  10    5.00    0.33
 -12  10   2    5.09    0.27
  10  -2  12    5.20    0.33
   2 -12  10    4.51    0.31
   2  12 -10    4.87    0.29
  10  -2  12    4.80    0.25
 -10   2  12    4.91    0.29
 -12  10   2    5.06    0.28
 -12  10  -2    4.79    0.26
  -2 -12  10    4.89    0.32
  10   2  12    4.80    0.28
  10   2  12    5.20    0.32
  -2  12 -10    4.73    0.30
 -10  -2  12    4.84    0.31
   2  12  10    5.20    0.34
  12  10   2    5.20    0.30
  12 -10  -2    5.04    0.28
 -12  10  -2    4.88    0.29
 -10  -2  12    4.74    0.28
   0   4  12  429.74    9.91
   0  -4  12  411.38    9.98
  -4  12   0  416.20    9.34
  -4  12   0  400.86    9.64
   0   4  12  433.14    9.41
   4 -12   0  423.42    9.81
   0  -4  12  420.08    9.28
  12   0  -4  422.69    9.92
  -4 -12   0  422.73    9.81
  12   0   4  425.23    9.93
   4  12   0  412.94    9.36
 -12   0   4  414.67    9.42
   4 -12   2    2.83    0.18
   2  -4  12    2.19    0.22
  -4  12   2    2.38    0.19
 -12   2   4    2.60    0.20
   2  -4  12    2.42    0.14
   4  12  -2    2.55    0.17
  -4  12   2    2.31    0.18
  12  -2   4    2.84    0.21
  -2   4  12    2.12    0.19
  12   2  -4    2.56    0.21
  -2   4  12    2.55    0.21
   2   4 -12    2.50    0.18
   4  12   2    2.76    0.20
  -2  -4  12    2.22    0.22
   2   4  12    2.21    0.19
  -4  12  -2    2.65    0.20
  12  -2  -4    2.93    0.21
  -4 -12   2    2.52    0.17
   2   4  12    2.17    0.19
   4 -12  -2    2.60    0.13
  -4  12  -2    2.67    0.16
   4  12   2    2.50    0.14
  -2  -4  12    2.43    0.15
  12   2   4    2.06    0.20
   4  12  -4  170.45    3.88
 -12   4   4  170.38    3.97
   4 -12   4  173.31    4.14
   4   4 -12  166.33    3.97
  12   4  -4  172.34    4.19
  -4   4  12  169.20    3.96
   4  -4  12  175.17    3.83
  12  -4   4  169.59    4.18
  -4  12   4  163.92    3.96
  -4  12   4  171.98    4.05
   4  -4  12  176.05    4.24
  -4   4  12  171.76    4.14
   4  12  -4  170.12    4.05
  -4  -4  12  163.99    4.22
  -4 -12   4  172.31    4.12
   4  12   4  160.88    4.01
  -4  -4  12  173.43    3.88
   4 -12  -4  172.49    4.00
  12   4   4  170.59    4.18
   4   4  12  166.14    4.16
  -4  12  -4  172.66    3.83
 -12  -4   4  167.46    4.19
  -4  12  -4  169.99    4.07
   4  12   4  170.57    3.99
   4   4  12  165.71    3.96
  12  -4  -4  174.47    4.17
  -4  12   6    1.24    0.15
   4  12  -6    1.36    0.15
   4  12  -6    1.50    0.12
   6  -4  12    1.28    0.11
  -6   4  12    1.18    0.15
  12  -6   4    1.32    0.16
 -12   6   4    1.47    0.15
   6  -4  12    1.41    0.17
   6   4 -12    1.32    0.11
   4 -12   6    1.25    0.15
  -6   4  12    1.70    0.16
 -12   6   4    1.58    0.13
   4  12   6    1.50    0.10
  -6  -4  12    1.43    0.17
 -12   6  -4    1.39    0.15
  -4 -12   6    1.17    0.14
  -6  -4  12    1.26    0.13
   6   4  12    1.20    0.15
   4  12   6    1.32    0.17
   4 -12  -6    1.27    0.08
 -12  -6   4    1.62    0.17
   6   4  12    1.29    0.15
  -4  12  -6    1.29    0.15
  12   6   4    1.41    0.16
  12  -6  -4    1.11    0.14
   8   4 -12  275.06    6.47
   4 -12   8  285.96    6.84
  12  -8   4  294.57    6.82
 -12   8   4  281.34    6.46
   8  -4  12  283.29    6.35
   4  12  -8  284.42    6.61
  -8   4  12  274.30    6.46
  -8   4  12  286.72    6.78
 -12   8   4  289.91    6.54
   8  -4  12  278.11    6.84
  -4  12   8  268.12    6.50
   4  12   8  286.06    6.65
  -8  -4  12  291.88    6.87
   4 -12  -8  289.05    6.63
  -4  12  -8  287.80    6.66
  -8  -4  12  289.54    6.43
 -12  -8   4  275.17    6.82
  12  -8  -4  289.91    6.77
  12   8   4  269.57    6.79
   4  12   8  289.53    6.53
 -12   8  -4  290.94    6.65
   8   4  12  280.31    6.47
   8   4  12  274.50    6.79
  -4 -12   8  287.64    6.82
 -10   4  12    1.33    0.16
 -12  10   4    0.90    0.14
   4  12 -10    1.01    0.14
 -12  10   4    1.12    0.13
  12 -10   4    0.94    0.14
 -10   4  12    0.85    0.14
  10  -4  12    1.25    0.18
  10  -4  12    1.14    0.12
  -4  12  10    1.23    0.18
   4 -12  10    0.97    0.16
 -10  -4  12    0.97    0.14
  12 -10  -4    1.03    0.14
  10   4  12    1.07    0.16
 -12 -10   4    1.27    0.16
  12  10   4    0.75    0.14
  12  10   4    0.61    0.12
   4  12  10    1.00    0.18
 -12  10  -4    1.27    0.16
  -4 -12  10    1.16    0.17
  -4  12 -10    0.92    0.15
 -10  -4  12    1.01    0.16
  10   4  12    1.12    0.15
 -12  10  -4    0.74    0.11
   0   6  12    0.00    0.06
   6 -12   0    0.12    0.06
   0   6 -12    0.17    0.08
   0   6  12    0.11    0.07
 -12   0   6    0.06    0.07
  -6  12   0   -0.01    0.05
   0  -6  12    0.04    0.04
   0  -6  12    0.05    0.08
  -6  12   0    0.10    0.07
 -12   0   6    0.03    0.07
  12   0   6    0.19    0.09
   6  12   0    0.14    0.07
  -6 -12   0    0.20    0.07
  12   0  -6    0.13    0.08
  -2   6  12    2.97    0.22
 -12   2   6    2.83    0.21
  -6  12   2    2.98    0.21
  -6  12   2    3.22    0.21
  12  -2   6    3.27    0.24
   6  12  -2    3.14    0.20
   2  -6  12    2.79    0.24
  -2   6  12    2.75    0.19
   6 -12   2    3.15    0.19
   2   6 -12    3.17    0.20
   2   6  12    3.20    0.21
  -6  12  -2    2.68    0.16
  -2   6 -12    3.43    0.23
   6 -12  -2    3.07    0.16
   6  12   2    2.77    0.17
  12   2   6    3.08    0.24
  12  -2  -6    3.18    0.22
  -2  -6  12    3.41    0.26
 -12  -2   6    3.18    0.23
   6  12   2    2.94    0.21
   2   6  12    3.32    0.24
  -6 -12   2    2.78    0.18
  -2  -6  12    3.28    0.16
  -6  12  -2    2.80    0.21
 -12   4   6    1.45    0.16
   6  12  -4    1.42    0.13
  -6  12   4    1.17    0.14
  -4   6  12    1.42    0.16
  -6  12   4    1.18    0.14
   4  -6  12    1.15    0.17
   6 -12   4    1.47    0.15
  12  -4   6    0.95    0.14
   4   6 -12    1.35    0.13
   6  12  -4    1.06    0.14
  -4   6  12    1.60    0.14
  -4  -6  12    1.35    0.12
  -6  12  -4    1.48    0.12
 -12  -4   6    1.56    0.17
  -4  -6  12    1.60    0.19
   6  12   4    1.29    0.11
  12  -4  -6    1.36    0.15
  -6  12  -4    1.36    0.16
   6 -12  -4    1.53    0.11
  12   4   6    1.40    0.17
  -4   6 -12    1.29    0.16
   6  12   4    1.53    0.17
   4   6  12    1.42    0.15
  -6 -12   4    1.42    0.15
   4   6  12    1.51    0.17
   6 -12   6    1.34    0.16
  12  -6   6    1.51    0.17
   6  -6  12    1.71    0.11
 -12   6   6    1.44    0.16
  -6   6  12    1.53    0.17
  -6  12   6    1.53    0.16
  -6   6  12    1.72    0.15
   6  12  -6    1.30    0.15
   6  -6  12    1.67    0.19
  -6  12   6    1.14    0.15
   6   6 -12    1.72    0.14
 -12   6   6    1.58    0.12
  -6 -12   6    1.63    0.16
   6 -12  -6    1.73    0.11
   6   6  12    1.47    0.17
   6  12   6    1.39    0.12
  12   6   6    1.46    0.17
  -6  12  -6    1.46    0.10
  -6   6 -12    1.44    0.18
 -12  -6   6    1.37    0.17
   6  12   6    1.40    0.17
  -6  -6  12    1.46    0.14
  -6  12  -6    1.23    0.16
   6   6  12    1.82    0.17
  12  -6  -6    1.61    0.16
  -6  -6  12    1.46    0.18
  -8   6  12    0.22    0.08
 -12   8   6    0.08    0.06
  12  -8   6    0.02    0.08
   8  -6  12    0.29    0.10
 -12   8   6    0.30    0.09
  -6  12   8    0.09    0.08
   6  12  -8    0.26    0.09
  -6  12   8    0.31    0.09
   8  -6  12    0.07    0.05
  -8   6  12    0.24    0.10
   6 -12   8    0.04    0.08
   8   6 -12    0.24    0.07
   8   6  12    0.28    0.10
  12   8   6    0.20    0.11
  -8  -6  12    0.14    0.08
 -12  -8   6    0.40    0.11
  12   8   6    0.03    0.09
   6  12   8    0.22    0.07
  -6  12  -8    0.07    0.08
  -6 -12   8    0.01    0.08
   6 -12  -8    0.16    0.05
  -8  -6  12    0.09    0.08
 -12   8  -6    0.32    0.10
   6  12   8    0.17    0.11
  12  -8  -6    0.09    0.09
   8   6  12    0.21    0.10
 -12  10   6    0.07    0.08
 -10   6  12    0.07    0.08
  12 -10   6   -0.01    0.08
   6 -12  10   -0.04    0.08
 -12  10   6    0.09    0.07
  10  -6  12    0.08    0.06
 -10   6  12    0.19    0.08
  -6  12  10   -0.12    0.08
   6  12 -10   -0.01    0.07
  10  -6  12    0.09    0.08
  10   6  12    0.07    0.09
   6  12  10    0.18    0.07
  -6 -12  10    0.04    0.09
  12  10   6    0.04    0.08
 -12 -10   6   -0.02    0.07
 -12  10  -6    0.01    0.08
  12 -10  -6    0.05    0.08
   6  12  10    0.22    0.12
 -10  -6  12    0.07    0.08
  -6  12 -10    0.02    0.09
  12  10   6   -0.01    0.09
  10   6  12    0.04    0.08
  -8  12   0  165.71    4.03
  -8  12   0  175.43    3.90
   0  -8  12  169.48    4.23
  12   0   8  174.76    4.19
   8 -12   0  164.69    4.06
   8  12   0  165.78    3.93
   0   8  12  165.40    4.06
   0   8 -12  163.77    4.02
 -12   0   8  172.94    3.97
   0   8  12  166.29    4.00
 -12   0   8  167.89    4.17
  -8 -12   0  171.40    4.10
   8  12   0  170.73    4.10
   8 -12   2    0.34    0.09
   2  -8  12    0.20    0.11
  -8  12   2    0.40    0.09
   8  12  -2    0.22    0.08
 -12   2   8    0.27    0.10
  -8  12   2    0.31    0.10
  12  -2   8    0.44    0.12
  -2   8  12    0.09    0.07
  -2   8  12    0.13    0.11
   2   8 -12    0.15    0.08
 -12   2   8    0.32    0.10
   2   8  12    0.16    0.08
  -8  12  -2    0.26    0.07
  -2  -8  12    0.04    0.10
 -12  -2   8    0.30    0.10
   8  12   2    0.27    0.08
   8 -12  -2    0.19    0.07
   2   8  12    0.16    0.11
  12   2   8    0.26    0.10
  -8  12  -2    0.24    0.09
  -8 -12   2    0.26    0.08
   8  12   2    0.26    0.10
 -12  -2   8    0.26    0.10
  -2   8 -12    0.11    0.08
   4   8 -12  285.58    6.56
   8 -12   4  289.91    6.76
 -12   4   8  287.95    6.47
  -8  12   4  288.77    6.45
  -8  12   4  275.73    6.58
  -4   8  12  286.01    6.70
   4  -8  12  284.89    6.88
  -4   8  12  276.13    6.49
  12  -4   8  283.01    6.83
  12  -4  -8  285.84    6.78
  -8  12  -4  289.29    6.34
   4   8  12  288.53    6.52
  12   4   8  291.53    6.82
  -8  12  -4  271.67    6.63
  -8 -12   4  278.79    6.77
  12   4   8  281.60    6.47
 -12  -4   8  283.86    6.84
   8 -12  -4  292.10    6.68
   4   8  12  295.08    6.75
   8  12   4  257.64    6.69
  -4  -8  12  275.23    6.87
  -4   8 -12  279.75    6.65
   8  12   4  284.13    6.48
  -6   8  12    0.23    0.11
   6   8 -12    0.08    0.07
  -6   8  12    0.25    0.08
  12   6  -8    0.15    0.06
  -8  12   6    0.11    0.08
  12  -6   8    0.11    0.09
   8 -12   6    0.02    0.08
  -8  12   6    0.13    0.08
 -12   6   8    0.23    0.09
   6  -8  12    0.13    0.10
   8  12  -6    0.31    0.09
 -12  -6   8    0.19    0.10
   6   8  12    0.02    0.09
  -6  -8  12    0.17    0.10
  -6   8 -12    0.27    0.11
   8 -12  -6    0.12    0.07
  -8  12  -6    0.14    0.06
   6   8  12    0.22    0.09
  12   6   8    0.33    0.11
   8  12   6    0.16    0.08
  12   6   8    0.19    0.09
  -8 -12   6    0.16    0.08
  -8  12  -6    0.23    0.09
  12  -6  -8    0.31    0.09
   8  12   6    0.06    0.09
  12  -8   8  191.16    4.60
 -12   8   8  188.65    4.38
  12   8  -8  180.97    4.34
  -8  12   8  187.74    4.39
  -8   8  12  184.24    4.39
   8  -8  12  183.60    4.63
   8   8 -12  192.99    4.35
  -8   8  12  192.79    4.50
   8 -12   8  182.44    4.58
  -8  12   8  182.67    4.40
   8  12  -8  183.77    4.42
   8   8  12  185.79    4.40
 -12  -8   8  187.03    4.62
   8  12   8  180.31    4.40
 -12   8  -8  187.97    4.51
  12   8   8  185.98    4.40
  -8 -12   8  179.15    4.59
   8  12   8  179.67    4.46
  12  -8  -8  192.51    4.53
   8   8  12  177.88    4.52
   8 -12  -8  189.16    4.44
  -8  -8  12  190.76    4.66
  -8   8 -12  186.54    4.52
  12   8   8  187.22    4.57
  -8  12  -8  184.65    4.50
 -10   8  12    0.27    0.10
  10  -8  12    0.09    0.11
  12  10  -8    0.11    0.08
  12 -10   8    0.28    0.12
  -8  12  10    0.15    0.10
 -10   8  12    0.11    0.10
   8  12 -10    0.06    0.09
  -8  12  10    0.16    0.09
 -12  10   8    0.35    0.12
   8 -12  10    0.17    0.11
 -12  10   8    0.19    0.08
  12  10   8    0.12    0.10
 -12  10  -8    0.18    0.11
 -12 -10   8    0.06    0.09
  -8  12 -10    0.15    0.10
 -10  -8  12    0.12    0.11
  12 -10  -8    0.06    0.07
  12  10   8    0.13    0.09
  10   8  12    0.21    0.11
   8  12  10    0.20    0.12
  10   8  12    0.22    0.10
  -8 -12  10    0.23    0.11
   8  12  10    0.15    0.09
  10  12   0    0.14    0.08
   0  10  12    0.13    0.06
  10  12   0    0.05    0.08
   0  10 -12    0.07    0.08
  12   0  10    0.09    0.10
 -12   0  10    0.05    0.07
   0 -10  12    0.16    0.11
  10 -12   0    0.04    0.07
   0  10  12    0.19    0.10
  12   0  10    0.25    0.09
 -12   0  10    0.12    0.09
 -10  12   0    0.17    0.07
 -10  12   0    0.09    0.08
  12  -2  10    4.90    0.31
   2  10 -12    4.99    0.29
 -10  12   2    4.43    0.27
  -2  10  12    4.73    0.32
 -12   2  10    5.40    0.31
   2 -10  12    4.96    0.34
  10 -12   2    4.87    0.27
 -10  12   2    4.99    0.28
  -2  10  12    4.50    0.21
 -12   2  10    5.49    0.31
 -10  12  -2    4.82    0.29
  12   2  10    5.28    0.32
 -12  -2  10    5.50    0.31
 -12  -2  10    4.63    0.30
   2  10  12    5.05    0.34
 -10  12  -2    5.03    0.25
  10  12   2    5.16    0.30
  10  12   2    4.55    0.27
   2  10  12    4.96    0.24
 -10 -12   2    4.49    0.28
  -2  10 -12    4.33    0.29
  10 -12  -2    5.35    0.26
  12   2  10    5.55    0.30
  -2 -10  12    5.26    0.34
   4 -10  12    1.46    0.19
 -10  12   4    1.15    0.15
  -4  10  12    1.32    0.18
  -4  10  12    1.18    0.11
 -12   4  10    1.04    0.16
  12  -4  10    1.01    0.17
 -10  12   4    0.84    0.13
 -12   4  10    0.92    0.14
  10 -12   4    1.04    0.14
   4  10 -12    1.11    0.14
  -4  10 -12    1.08    0.16
 -12  -4  10    0.65    0.14
 -10 -12   4    0.96    0.14
  -4 -10  12    0.88    0.16
  10 -12  -4    1.25    0.13
 -10  12  -4    1.05    0.15
  10  12   4    1.26    0.14
  10  12   4    0.81    0.15
  12   4  10    1.06    0.16
 -10  12  -4    1.20    0.12
   4  10  12    1.17    0.18
  12   4  10    0.97    0.15
   4  10  12    1.20    0.13
 -12  -4  10    1.16    0.16
 -10  12   6    0.42    0.11
 -12   6  10    0.04    0.09
   6  10 -12    0.22    0.08
 -10  12   6   -0.07    0.06
  -6  10  12    0.00    0.09
  10 -12   6   -0.05    0.08
  12  -6  10    0.14    0.11
  -6  10  12    0.22    0.07
   6 -10  12   -0.03    0.08
  10  12   6    0.19    0.10
  12  -6 -10    0.00    0.07
  12   6  10    0.32    0.12
   6  10  12    0.00    0.08
  12   6  10    0.08    0.10
   6  10  12    0.00    0.09
  -6 -10  12    0.13    0.10
  10 -12  -6    0.10    0.06
 -10  12  -6    0.15    0.09
  10  12   6    0.18    0.08
 -10 -12   6    0.08    0.08
  -6  10 -12    0.06    0.10
 -12  -6  10    0.17    0.10
  10 -12   8    0.15    0.10
  -8  10  12    0.00    0.07
   8  10 -12    0.28    0.09
  -8  10  12    0.36    0.12
  12  -8  10    0.00    0.10
  10  12  -8    0.10    0.09
 -10  12   8    0.21    0.09
  -8  10  12    0.10    0.07
   8 -10  12    0.14    0.12
 -10  12   8    0.03    0.09
 -12   8  10    0.17    0.10
 -10  12  -8    0.19    0.11
  10  12   8    0.16    0.09
 -12  -8  10    0.25    0.11
  -8 -10  12    0.23    0.12
  10 -12  -8    0.11    0.07
 -10 -12   8    0.06    0.10
  12   8  10    0.09    0.10
  10  12   8    0.08    0.11
  12   8  10    0.10    0.10
   8  10  12    0.17    0.10
  12  -8 -10    0.18    0.10
   8  10  12    0.06    0.11
  -8  10 -12    0.02    0.08
  10 -12  10   27.84    0.96
 -12  10  10   29.30    0.95
  10  12 -10   28.83    0.87
  12 -10  10   27.34    0.96
 -10  12  10   29.66    0.96
  10 -10  12   27.99    0.98
 -10  10  12   28.77    0.95
 -10  12  10   28.39    0.85
  10  10  12   27.27    0.95
 -12  10 -10   27.53    0.96
  10 -10 -12   29.52    0.86
 -10  12 -10   27.53    0.95
  10  12  10   27.13    0.87
 -12 -10  10   28.51    0.98
 -10 -12  10   28.18    0.97
  12  10  10   28.21    0.91
 -10 -10  12   27.17    0.99
  10  10  12   27.87    0.89
  12 -10 -10   28.21    0.88
  10  12  10   30.31    0.98
  12  10  10   28.59    0.96
 -10  10 -12   29.07    0.98
 -12   0  12  217.42    5.37
  12   0  12  226.00    5.39
  12   0  12  218.42    5.04
  12  12   0  218.35    5.34
   0 -12  12  217.09    5.41
 -12  12   0  217.21    5.19
  12 -12   0  223.48    5.29
 -12   0  12  214.19    5.08
 -12  12   0  218.43    5.02
   0  12  12  208.47    5.15
   0  12 -12  223.49    5.22
  12  12  -2    0.07    0.09
  12 -12   2    0.18    0.09
   2  12 -12    0.30    0.11
 -12   2  12    0.22    0.10
 -12   2  12    0.19    0.09
  12  -2  12    0.27    0.09
  -2  12  12    0.24    0.14
  12  -2  12    0.21    0.10
   2 -12  12    0.06    0.12
 -12  12   2    0.32    0.10
 -12  12   2    0.49    0.12
  12   2  12    0.28    0.11
 -12  12  -2    0.30    0.10
  12 -12  -2    0.07    0.09
 -12  -2  12    0.25    0.10
  12  12   2    0.15    0.10
  -2 -12  12   -0.18    0.13
  12  12   2    0.21    0.11
  -2  12 -12    0.35    0.11
 -12  -2  12    0.29    0.11
   2  12  12    0.12    0.12
 -12  12  -2    0.17    0.09
  12   2  12    0.18    0.10
  12  -4  12  106.63    2.75
 -12  12   4  103.14    2.56
 -12   4  12  104.57    2.60
 -12   4  12  100.95    2.68
  -4  12  12  100.46    2.64
   4 -12  12  107.18    2.78
   4  12 -12  103.12    2.60
  12 -12   4  106.90    2.68
 -12  12   4  102.86    2.58
  12  -4  12  106.35    2.49
  -4 -12  12  100.96    2.76
  12   4  12  103.50    2.72
 -12  12  -4  105.12    2.50
 -12  -4  12  105.74    2.59
  12  12   4   99.65    2.66
  -4  12 -12  102.44    2.66
  12  12   4  106.04    2.62
  12 -12  -4  103.31    2.62
  12   4  12  105.74    2.60
 -12  12  -4  102.51    2.65
   4  12  12  102.70    2.65
 -12 -12   4  102.91    2.70
 -12   6  12    0.15    0.09
   6 -12  12    0.20    0.12
 -12   6  12    0.13    0.09
  12  -6  12    0.01    0.10
 -12  12   6    0.10    0.09
 -12  12   6    0.17    0.09
   6  12 -12    0.11    0.09
  -6  12  12    0.14    0.12
  12 -12   6    0.07    0.11
 -12 -12   6    0.14    0.11
  -6 -12  12    0.06    0.11
  12 -12  -6    0.02    0.09
  12   6  12    0.20    0.11
  12  12   6    0.34    0.13
  12  12   6    0.10    0.10
  12   6  12    0.26    0.12
   6  12  12    0.01    0.12
  -6  12 -12    0.14    0.09
 -12  -6  12    0.13    0.11
 -12  12  -6    0.25    0.11
  12  12  -8  160.07    3.92
  12 -12   8  160.66    4.11
  -8  12  12  164.34    3.99
 -12   8  12  164.36    3.95
 -12  12   8  164.97    3.95
  -8  12  12  174.78    3.93
   8  12 -12  162.35    3.93
 -12  12   8  165.43    3.91
   8 -12  12  154.86    4.13
  12  -8  12  161.11    4.15
  12   8  12  161.89    4.09
  12  -8 -12  169.31    4.06
  -8  12 -12  158.66    4.05
 -12 -12   8  163.95    4.15
 -12  -8  12  166.39    4.19
  -8 -12  12  163.76    4.17
   8  12  12  161.80    3.98
  12   8  12  165.34    3.97
  12  12   8  167.46    3.98
 -12  12  -8  160.07    4.04
  12 -12  -8  174.55    4.02
  12  12   8  157.18    4.04
 -10  12  12    0.37    0.13
  12  12 -10    0.42    0.11
  10 -12  12    0.52    0.16
 -12  12  10    0.53    0.15
  10  12 -12    0.41    0.11
  12 -10  12    0.49    0.16
  12 -12  10    0.29    0.13
 -12  10  12    0.33    0.13
  12  10  12    0.13    0.13
 -12 -12  10    0.34    0.13
  12  12  10    0.25    0.12
  10  12  12    0.43    0.16
 -10  12 -12    0.29    0.13
  12  10  12    0.33    0.13
 -12  12 -10    0.44    0.14
 -12 -10  12    0.23    0.13
 -10 -12  12    0.37    0.14
  12 -10 -12    0.29    0.11
  12  12  10    0.63    0.16
 -12  10 -12    0.16    0.13
  12 -12  12   48.64    1.50
 -12  12  12   48.84    1.46
 -12 -12  12   47.90    1.51
 -12  12 -12   47.68    1.49
  12  12  12   48.61    1.47
  13  -1   1    0.04    0.07
  13   1  -1    0.00    0.06
   1  13  -1    0.01    0.05
   1  13  -1    0.16    0.07
  -1  13   1    0.04    0.07
  -1   1  13    0.03    0.07
  -1 -13  -1    0.18    0.04
   1  -1  13   -0.03    0.06
   1  -1  13    0.10    0.06
   1 -13   1    0.01    0.04
  -1  13   1    0.04    0.06
  -1   1  13    0.07    0.06
  13   1   1    0.06    0.06
   1   1  13   -0.03    0.05
  13  -1  -1   -0.02    0.07
   1   1  13    0.15    0.09
  -1  13  -1    0.37    0.10
  -1 -13   1   -0.01    0.04
   1  13   1    0.15    0.08
  -1  -1  13   -0.02    0.07
  -1  13  -1   -0.06    0.05
  -1  -1  13    0.01    0.05
   1 -13  -1   -0.01    0.03
  -3   1  13    0.56    0.10
  13   3  -1    1.01    0.14
  13  -3   1    0.59    0.12
   3  -1  13    0.62    0.13
   1  13  -3    0.54    0.11
   1 -13   3    0.58    0.09
   3  -1  13    0.57    0.09
  -1  13   3    0.52    0.11
  -3   1  13    0.59    0.11
   1  13  -3    0.73    0.10
  -1 -13   3    0.65    0.09
  -3  -1  13    0.56    0.09
  -3  -1  13    0.65    0.12
  13  -3  -1    0.59    0.11
   3   1  13    0.50    0.12
  -1  13  -3    0.61    0.09
   1  13   3    0.44    0.11
   3   1  13    0.61    0.11
  -1  13  -3    0.98    0.14
  13   3   1    0.41    0.10
  13   5  -1    4.11    0.27
  13  -5   1    4.52    0.28
 -13   5   1    4.49    0.26
  -5   1  13    4.50    0.25
   1  13  -5    4.57    0.21
   5  -1  13    4.02    0.28
   1  13  -5    4.50    0.27
   1 -13   5    4.57    0.26
  -5   1  13    4.66    0.28
   5  -1  13    4.21    0.23
  -1  13   5    4.28    0.28
  -1 -13   5    4.39    0.25
   1  13   5    4.57    0.28
   5   1  13    4.51    0.25
  -5  -1  13    4.50    0.29
  13   5   1    4.42    0.28
  -1  13  -5    4.43    0.28
  -1  13  -5    4.68    0.20
   5   1  13    4.45    0.29
  -5  -1  13    4.73    0.25
  13  -5  -1    4.35    0.26
  13   7  -1    0.77    0.14
   7  -1  13    0.69    0.14
   1 -13   7    1.04    0.14
   1  13  -7    0.84    0.09
   7  -1  13    0.73    0.11
 -13   7   1    0.95    0.12
  -1  13   7    0.77    0.15
  13  -7   1    1.08    0.15
  -7   1  13    0.79    0.12
  -7   1  13    0.77    0.13
   1  13  -7    0.82    0.13
 -13   7   1    0.80    0.12
 -13   7  -1    0.58    0.12
  -7  -1  13    0.91    0.13
  -1  13  -7    0.85    0.14
  -1 -13   7    0.79    0.13
   1  13   7    0.60    0.14
  13   7   1    0.84    0.14
  -7  -1  13    0.90    0.14
  13  -7  -1    0.98    0.14
   7   1  13    0.81    0.13
 -13   7  -1    0.64    0.12
   7   1  13    0.55    0.13
   1  13  -9    0.70    0.13
   9  -1  13    0.69    0.11
 -13   9   1    0.45    0.10
 -13   9   1    0.59    0.11
   1 -13   9    0.52    0.13
   9  -1  13    0.66    0.14
  13  -9   1    0.59    0.12
  13   9  -1    0.51    0.12
  -1  13   9    0.51    0.14
  -9   1  13    0.51    0.12
  -9   1  13    0.47    0.11
  -1 -13   9    0.60    0.14
 -13   9  -1    0.52    0.11
  13   9   1    0.44    0.11
  13  -9  -1    0.43    0.11
   9   1  13    0.83    0.15
   9   1  13    0.49    0.11
  -9  -1  13    0.35    0.11
 -13   9  -1    0.51    0.11
  -9  -1  13    0.60    0.12
  -1  13  -9    0.44    0.12
   1  13   9    0.62    0.14
  -1  13  11    0.11    0.10
  13  11  -1    0.11    0.09
 -11   1  13   -0.11    0.07
  11  -1  13   -0.07    0.09
   1  13 -11    0.14    0.10
 -13  11   1    0.02    0.07
  11  -1  13    0.10    0.08
  13 -11   1    0.05    0.09
 -13  11   1    0.02    0.08
   1 -13  11    0.05    0.09
 -11   1  13   -0.08    0.07
  11   1  13   -0.15    0.08
 -11  -1  13   -0.03    0.08
 -13  11  -1   -0.02    0.08
  -1 -13  11    0.01    0.08
  -1  13 -11    0.05    0.09
   1  13  11    0.15    0.12
  11   1  13   -0.06    0.09
  13  11   1    0.02    0.09
 -13  11  -1   -0.09    0.09
  13 -11  -1    0.05    0.07
 -11  -1  13    0.13    0.10
  13  -1   3    0.55    0.12
   3 -13   1    0.66    0.09
  -3 -13  -1    0.71    0.08
  -3  13   1    0.49    0.10
  -1   3  13    0.59    0.11
   3  13  -1    0.59    0.10
   1  -3  13    0.68    0.14
  -3  13   1    0.53    0.11
  -1   3  13    0.50    0.11
  13   1  -3    0.79    0.13
   1  -3  13    0.77    0.08
  -1  -3  13    0.58    0.08
   3  13   1    0.37    0.10
   1   3  13    0.65    0.11
  -3 -13   1    0.66    0.09
   3 -13  -1    0.69    0.08
   1   3  13    0.89    0.13
  -3  13  -1    0.59    0.10
  13  -1  -3    0.43    0.11
  -3  13  -1    0.38    0.10
  -1  -3  13    0.40    0.12
  13   1   3    0.69    0.12
  -3   3  13    0.02    0.06
   3  -3  13    0.00    0.04
  -3   3  13    0.01    0.05
  -3  13   3    0.08    0.07
  13   3  -3   -0.04    0.06
   3  13  -3    0.02    0.06
  -3  13   3    0.00    0.05
   3  13  -3    0.05    0.06
  13  -3   3   -0.04    0.06
   3 -13   3    0.16    0.07
 -13   3   3   -0.07    0.05
   3  -3  13    0.10    0.09
  13  -3  -3   -0.04    0.06
   3 -13  -3    0.05    0.04
   3  13   3   -0.02    0.07
  -3  -3  13    0.22    0.10
  -3 -13   3    0.07    0.05
  13   3   3    0.03    0.07
  -3  13  -3    0.05    0.07
  -3  -3  13    0.07    0.05
  -3  13  -3   -0.01    0.05
   3  13   3    0.04    0.04
   3   3  13   -0.05    0.07
   3   3  13   -0.05    0.06
 -13   5   3    0.08    0.06
   3  13  -5    0.20    0.07
 -13   5   3    0.14    0.08
  13   5  -3    0.10    0.08
  -3  13   5    0.13    0.09
  -5   3  13    0.18    0.08
   3  13  -5    0.05    0.07
   5  -3  13    0.17    0.10
   5  -3  13    0.10    0.06
  13  -5   3    0.12    0.08
  -5   3  13    0.06    0.06
   3 -13   5    0.14    0.08
  -3  13  -5    0.10    0.08
  -3 -13   5    0.13    0.08
  -3  13  -5    0.13    0.04
  13   5   3    0.28    0.09
   5   3  13    0.10    0.09
   3  13   5    0.05    0.08
  13  -5  -3    0.21    0.09
  -5  -3  13    0.04    0.06
  -5  -3  13    0.18    0.07
   5   3  13    0.15    0.08
   3  13  -7    1.03    0.14
   3  13  -7    1.00    0.10
  -3  13   7    1.02    0.15
  -7   3  13    0.94    0.13
  13   7  -3    1.03    0.15
   3 -13   7    1.10    0.15
  13  -7   3    0.96    0.15
   7  -3  13    0.82    0.12
  -7   3  13    0.93    0.14
 -13   7   3    1.09    0.13
   7  -3  13    0.95    0.16
 -13   7   3    0.75    0.13
 -13   7  -3    0.98    0.14
  13   7   3    1.17    0.16
   7   3  13    0.76    0.14
  -7  -3  13    0.95    0.15
   7   3  13    0.77    0.13
  13  -7  -3    1.10    0.14
   3  13   7    1.27    0.18
  -3  13  -7    1.08    0.15
  -3 -13   7    1.15    0.15
  -7  -3  13    1.07    0.13
  13  -9   3    0.15    0.09
 -13   9   3    0.18    0.09
  13   9  -3    0.15    0.09
   9  -3  13    0.40    0.13
  -9   3  13    0.19    0.08
  -3  13   9    0.42    0.14
   3 -13   9    0.21    0.11
   9  -3  13    0.19    0.07
 -13   9   3    0.27    0.09
  -9   3  13    0.07    0.07
   3  13  -9    0.17    0.08
   9   3  13    0.15    0.10
   3  13   9    0.22    0.12
  -9  -3  13    0.24    0.11
  -9  -3  13    0.27    0.09
  -3  13  -9    0.18    0.10
 -13   9  -3    0.12    0.08
  13  -9  -3    0.12    0.08
 -13   9  -3    0.37    0.10
  13   9   3    0.24    0.10
  -3 -13   9    0.17    0.10
   9   3  13    0.37    0.11
 -13  11   3    2.46    0.22
   3  13 -11    2.97    0.24
  11  -3  13    2.32    0.19
 -11   3  13    2.98    0.24
 -11   3  13    2.60    0.23
  13  11  -3    2.62    0.24
 -13  11   3    2.23    0.20
  -3  13  11    2.41    0.25
  11  -3  13    2.72    0.26
  13 -11   3    2.61    0.23
   3 -13  11    2.43    0.25
  -3  13 -11    1.97    0.22
  13  11   3    2.02    0.22
  11   3  13    2.91    0.23
 -11  -3  13    2.63    0.22
 -11  -3  13    2.60    0.24
 -13  11  -3    2.50    0.20
  13  11   3    2.11    0.22
 -13  11  -3    2.18    0.21
  11   3  13    2.47    0.23
   3  13  11    2.87    0.26
  -3 -13  11    3.23    0.27
  13 -11  -3    2.73    0.21
  -1   5  13    4.69    0.28
   5 -13   1    4.61    0.23
  -5  13   1    4.83    0.25
 -13   1   5    4.54    0.28
  13   1  -5    4.60    0.28
  -5 -13  -1    4.57    0.21
  13  -1   5    4.15    0.28
   1   5 -13    4.32    0.25
   1  -5  13    4.13    0.30
   5  13  -1    4.60    0.25
  -1   5  13    4.64    0.26
   1  -5  13    4.60    0.18
  -5  13   1    4.79    0.28
   5 -13  -1    4.44    0.20
  -1  -5  13    4.21    0.30
  13  -1  -5    3.97    0.26
  -5  13  -1    4.43    0.27
  -1   5 -13    4.07    0.26
  13   1   5    4.26    0.28
  -5  13  -1    4.44    0.23
   1   5  13    4.84    0.27
   5  13   1    4.91    0.27
  -5 -13   1    4.75    0.23
   1   5  13    4.83    0.28
  -1  -5  13    4.38    0.19
   3   5 -13    0.01    0.06
 -13   3   5    0.12    0.07
   5 -13   3    0.09    0.07
   3  -5  13    0.05    0.05
  13  -3   5    0.04    0.08
   5  13  -3    0.14    0.06
  -5  13   3    0.13    0.07
  13   3  -5   -0.03    0.08
   3  -5  13    0.11    0.09
  -3   5  13    0.05    0.06
  -3   5  13   -0.01    0.07
  -5  13   3    0.09    0.07
   5  13  -3   -0.01    0.06
  -3  -5  13    0.22    0.06
   5  13   3    0.21    0.09
   5  13   3    0.09    0.05
  -5  13  -3    0.19    0.06
  -5  13  -3    0.09    0.08
   5 -13  -3    0.08    0.05
  -5 -13   3    0.13    0.07
  -3  -5  13    0.16    0.09
  13  -3  -5    0.12    0.08
  13   3   5    0.15    0.08
   3   5  13    0.15    0.08
   3   5  13    0.16    0.09
  -5   5  13    0.01    0.05
   5  13  -5   -0.06    0.05
 -13   5   5    0.01    0.07
   5 -13   5    0.02    0.07
   5  -5  13   -0.04    0.04
 -13   5   5   -0.04    0.04
  -5   5  13   -0.03    0.06
   5  13  -5    0.04    0.06
  -5  13   5    0.02    0.07
  -5  13   5    0.02    0.06
   5   5 -13   -0.03    0.06
   5  -5  13   -0.06    0.07
  13  -5   5    0.00    0.07
  -5  -5  13   -0.04    0.06
   5 -13  -5   -0.05    0.03
 -13  -5   5    0.15    0.07
  -5  -5  13   -0.03    0.05
   5  13   5   -0.01    0.08
   5  13   5    0.03    0.04
   5   5  13   -0.03    0.06
   5   5  13   -0.07    0.06
  -5  13  -5    0.10    0.08
  13  -5  -5   -0.03    0.07
  -5  13  -5    0.04    0.04
  -5 -13   5    0.01    0.06
  13   5   5   -0.02    0.08
   5  13  -7    0.69    0.13
   7  -5  13    0.61    0.14
   5 -13   7    0.71    0.13
  13  -7   5    0.42    0.12
   5  13  -7    0.60    0.09
  -5  13   7    0.82    0.15
  -7   5  13    0.63    0.12
   7   5 -13    0.61    0.09
  -5  13   7    0.61    0.12
 -13   7   5    0.65    0.12
 -13   7   5    0.71    0.10
  -7   5  13    0.64    0.12
   7  -5  13    0.54    0.08
  13  -7  -5    0.77    0.12
   7   5  13    0.60    0.13
   7   5  13    0.62    0.13
 -13  -7   5    0.73    0.14
   5  13   7    0.65    0.08
  -7  -5  13    0.88    0.12
  -5 -13   7    0.62    0.12
 -13   7  -5    0.55    0.14
   5  13   7    0.80    0.14
  13   7   5    0.54    0.12
  -7  -5  13    0.40    0.12
  -5  13  -7    0.66    0.13
 -13   9   5   -0.01    0.06
   9  -5  13   -0.04    0.09
  -9   5  13    0.37    0.11
   5 -13   9   -0.02    0.08
  -9   5  13    0.11    0.08
 -13   9   5   -0.01    0.08
   9  -5  13    0.14    0.07
  -5  13   9   -0.05    0.08
   5  13  -9    0.20    0.09
  13  -9   5   -0.05    0.07
  -9  -5  13    0.08    0.09
  -5 -13   9    0.04    0.08
  13   9   5   -0.01    0.08
  -9  -5  13    0.01    0.07
  13  -9  -5    0.00    0.07
  -5  13  -9    0.01    0.08
   9   5  13    0.02    0.08
   5  13   9   -0.06    0.09
 -13  -9   5    0.12    0.09
   9   5  13    0.12    0.10
  13   9   5    0.06    0.09
 -13   9  -5   -0.03    0.08
   5 -13  11    3.20    0.28
 -11   5  13    2.35    0.23
 -13  11   5    2.19    0.22
  11  -5  13    2.46    0.18
  13 -11   5    2.85    0.25
 -13  11   5    2.68    0.20
   5  13 -11    2.71    0.23
  11  -5  13    2.42    0.25
  -5  13  11    2.34    0.24
 -11   5  13    2.59    0.22
   5  13  11    2.46    0.25
 -13  11  -5    2.57    0.23
  11   5  13    2.91    0.25
 -11  -5  13    2.86    0.23
 -11  -5  13    2.76    0.25
  13  11   5    2.72    0.25
 -13 -11   5    2.38    0.23
  -5 -13  11    2.49    0.25
  -5  13 -11    2.46    0.24
  13  11   5    2.51    0.23
  13 -11  -5    2.13    0.19
  11   5  13    2.64    0.24
 -13   1   7    0.51    0.12
   7  13  -1    0.97    0.13
   7 -13   1    0.71    0.11
  -7  13   1    0.83    0.11
   1  -7  13    1.11    0.17
   1   7 -13    0.69    0.12
  -7  13   1    1.08    0.14
  -1   7  13    0.82    0.14
  13  -1   7    0.84    0.15
  -1   7  13    0.77    0.11
  13   1   7    0.92    0.15
  -7 -13   1    0.90    0.11
  13  -1  -7    0.65    0.12
   7  13   1    0.84    0.11
   1   7  13    0.66    0.11
  -1   7 -13    0.60    0.13
   7 -13  -1    0.92    0.10
  -1  -7  13    0.82    0.16
 -13  -1   7    0.70    0.13
 -13  -1   7    0.66    0.13
   1   7  13    0.83    0.15
  -1  -7  13    1.10    0.09
   7  13   1    0.65    0.12
  -7  13  -1    0.71    0.12
  -7  13  -1    0.75    0.10
  13  -3   7    1.21    0.17
 -13   3   7    0.93    0.14
   7  13  -3    0.88    0.12
  -7  13   3    1.14    0.14
   3  -7  13    1.17    0.18
   7 -13   3    0.94    0.12
  -3   7  13    1.35    0.13
  -3   7  13    1.21    0.16
  -7  13   3    0.97    0.13
   3   7 -13    0.72    0.13
  -7 -13   3    1.22    0.14
   7  13   3    0.99    0.11
  -3  -7  13    1.10    0.17
  -3   7 -13    0.78    0.14
  -3  -7  13    0.97    0.10
  -7  13  -3    0.90    0.14
   7 -13  -3    0.92    0.10
   3   7  13    1.02    0.14
   3   7  13    1.02    0.16
 -13  -3   7    0.47    0.12
  -7  13  -3    1.17    0.11
   7  13   3    0.86    0.14
  13   3   7    1.07    0.16
  13  -3  -7    1.29    0.16
  -7  13   5    0.54    0.11
  -5   7  13    0.82    0.11
   7 -13   5    0.50    0.12
   5  -7  13    0.82    0.17
   5   7 -13    0.47    0.10
 -13   5   7    0.46    0.11
   7  13  -5    0.52    0.12
  13  -5   7    0.70    0.14
   7  13  -5    0.52    0.10
  -5   7  13    0.91    0.15
  -7  13   5    0.77    0.13
   5   7  13    0.54    0.12
   7  13   5    0.68    0.09
  -7 -13   5    0.63    0.12
   5   7  13    0.59    0.12
  13  -5  -7    0.67    0.13
 -13  -5   7    0.49    0.12
  -5   7 -13    0.32    0.12
   7  13   5    0.35    0.13
  -7  13  -5    0.78    0.09
   7 -13  -5    0.65    0.08
  -5  -7  13    0.56    0.10
  -7  13  -5    0.54    0.12
  -5  -7  13    0.60    0.14
  13   5   7    0.54    0.13
   7 -13   7    0.02    0.08
   7  13  -7    0.12    0.09
 -13   7   7   -0.08    0.08
  -7   7  13    0.07    0.08
  -7  13   7   -0.01    0.07
  13  -7   7   -0.09    0.08
   7  -7  13   -0.05    0.08
  -7  13   7    0.00    0.08
  -7   7  13    0.02    0.07
   7   7 -13   -0.17    0.06
  -7 -13   7   -0.06    0.07
  -7  13  -7   -0.13    0.08
   7  13   7    0.13    0.10
   7   7  13   -0.02    0.08
  13  -7  -7   -0.04    0.07
  13   7   7   -0.04    0.07
   7   7  13   -0.04    0.07
   7  13   7   -0.02    0.06
  13   7   7    0.03    0.08
 -13  -7   7   -0.08    0.07
  -7   7 -13   -0.03    0.08
  -7  -7  13   -0.10    0.07
  -7  -7  13   -0.01    0.07
  -7  13   9    0.32    0.10
  -7  13   9    0.35    0.12
   9  -7  13    0.25    0.12
  13  -9   7    0.12    0.10
   7  13  -9    0.13    0.10
 -13   9   7    0.45    0.10
   7 -13   9    0.21    0.12
  -9   7  13    0.25    0.09
  -9   7  13    0.22    0.10
 -13   9   7    0.36    0.11
  13   9   7    0.42    0.13
 -13   9  -7    0.12    0.10
   7  13   9    0.11    0.12
   9   7  13    0.55    0.14
   9   7  13    0.25    0.11
  -9  -7  13    0.33    0.14
  13   9   7    0.02    0.08
 -13  -9   7    0.31    0.12
  -7 -13   9    0.21    0.10
  -7  13  -9    0.05    0.10
  13  -9  -7    0.24    0.10
 -13  11   7    0.04    0.10
  11  -7  13    0.19    0.12
 -11   7  13    0.13    0.10
   7  13 -11    0.25    0.10
 -13  11   7   -0.01    0.08
  -7  13  11    0.12    0.09
  13 -11   7    0.30    0.13
   7 -13  11    0.14    0.12
  -7  13  11    0.23    0.11
 -11   7  13    0.31    0.10
  11   7  13    0.18    0.11
  13  11   7    0.16    0.12
  -7 -13  11    0.20    0.11
  13  11   7    0.13    0.10
 -13 -11   7    0.02    0.12
  -7  13 -11    0.15    0.12
  13 -11  -7    0.17    0.10
   7  13  11   -0.09    0.09
 -11  -7  13    0.11    0.10
  11   7  13   -0.19    0.10
 -13  11  -7    0.27    0.12
   1   9 -13    0.71    0.13
  -1   9  13    0.50    0.13
 -13   1   9    0.41    0.12
  13  -1   9    0.56    0.14
  -1   9  13    0.58    0.09
 -13   1   9    0.62    0.13
  -9  13   1    0.43    0.11
   1  -9  13    0.81    0.16
   9 -13   1    0.61    0.11
  -9  13   1    0.47    0.10
   9  13  -1    0.40    0.11
   1   9  13    0.61    0.10
 -13  -1   9    0.54    0.12
  -1  -9  13    0.44    0.13
 -13  -1   9    0.29    0.11
  -9  13  -1    0.65    0.10
   9  13   1    0.68    0.11
  -9 -13   1    0.51    0.10
  13   1   9    0.60    0.14
  -9  13  -1    0.60    0.12
  -1   9 -13    0.87    0.14
   9 -13  -1    0.46    0.10
   1   9  13    0.68    0.15
   9  13   1    0.56    0.12
 -13   3   9    0.32    0.11
  -3   9  13    0.08    0.09
  13  -3   9    0.32    0.13
   9 -13   3    0.23    0.09
  -9  13   3    0.21    0.09
   3   9 -13    0.18    0.09
  -3   9  13    0.24    0.07
  -9  13   3    0.25    0.09
   9  13  -3    0.01    0.07
 -13   3   9    0.21    0.10
   3  -9  13    0.25    0.12
   3   9  13    0.11    0.11
   9 -13  -3    0.28    0.08
  -3  -9  13    0.31    0.12
   3   9  13    0.32    0.09
  13   3   9    0.30    0.11
 -13  -3   9    0.23    0.11
 -13  -3   9    0.22    0.11
  -9  13  -3    0.14    0.08
  -9  13  -3    0.34    0.08
  13   3   9    0.13    0.09
   9  13   3    0.21    0.08
  -3   9 -13    0.28    0.10
   9  13   3    0.13    0.10
  -9 -13   3    0.17    0.08
 -13   5   9    0.02    0.07
  -5   9  13    0.03    0.07
   5  -9  13    0.09    0.11
  -5   9  13    0.02    0.05
  -9  13   5    0.19    0.09
  13  -5   9    0.10    0.10
   9 -13   5    0.09    0.08
  -9  13   5    0.06    0.07
   5   9 -13   -0.04    0.07
  -9  13  -5    0.06    0.09
  13  -5  -9   -0.05    0.08
  -9  13  -5    0.04    0.06
  -5  -9  13   -0.07    0.07
   9 -13  -5    0.02    0.06
  -5   9 -13    0.19    0.10
  13   5   9    0.03    0.10
   9  13   5    0.06    0.08
 -13  -5   9    0.07    0.07
   9  13   5    0.03    0.07
  13   5   9    0.09    0.08
   5   9  13    0.00    0.09
   5   9  13    0.01    0.07
  -9 -13   5    0.19    0.09
   9  13  -7    0.50    0.12
   7   9 -13    0.33    0.10
  -7   9  13    0.24    0.12
  -7   9  13    0.32    0.08
  -9  13   7    0.28    0.12
 -13   7   9    0.11    0.10
   7  -9  13    0.51    0.14
  13  -7   9    0.10    0.10
  -9  13   7    0.41    0.11
   9 -13   7    0.29    0.11
  13  -7  -9    0.45    0.11
  -7  -9  13    0.25    0.12
  13   7   9    0.24    0.11
  13   7   9    0.40    0.13
  -9  13  -7    0.38    0.12
   9  13   7    0.24    0.12
   9 -13  -7    0.29    0.08
   9  13   7    0.27    0.08
  -7   9 -13    0.38    0.13
   7   9  13    0.25    0.10
 -13  -7   9    0.40    0.13
   7   9  13    0.19    0.10
  -9 -13   7    0.35    0.11
   9 -13   9    0.01    0.09
  -9  13   9    0.00    0.07
  -9   9  13   -0.03    0.08
   9  -9  13    0.01    0.10
  -9  13   9    0.03    0.09
 -13   9   9   -0.02    0.09
  -9   9  13    0.04    0.07
  13  -9   9   -0.06    0.10
   9  13  -9    0.04    0.08
  -9  -9  13    0.04    0.10
   9  13   9   -0.14    0.08
 -13  -9   9    0.03    0.10
  13  -9  -9   -0.09    0.07
  -9   9 -13   -0.01    0.10
  -9 -13   9    0.01    0.08
   9   9  13    0.15    0.12
   9   9  13    0.01    0.10
 -13   9  -9   -0.13    0.08
  -9  13  -9   -0.08    0.08
  13   9   9    0.01    0.10
  13   9   9   -0.06    0.08
  -9  13  11    0.29    0.11
  11  -9  13    0.26    0.14
 -11   9  13    0.44    0.14
  -9  13  11    0.36    0.14
   9 -13  11    0.02    0.11
 -13  11   9    0.36    0.14
  13 -11   9    0.53    0.15
   9  13 -11    0.44    0.12
 -11   9  13    0.18    0.10
 -13 -11   9    0.51    0.15
   9  13  11    0.28    0.14
  13 -11  -9    0.57    0.13
  -9  13 -11    0.38    0.15
  13  11   9    0.33    0.12
  13  11   9    0.37    0.15
 -11  -9  13    0.48    0.15
  11   9  13    0.37    0.15
 -13  11  -9    0.36    0.15
  11   9  13    0.48    0.13
  -9 -13  11    0.33    0.13
  11 -13   1   -0.11    0.08
  13  -1  11    0.02    0.09
   1  11 -13    0.04    0.09
 -11  13   1   -0.02    0.07
   1 -11  13    0.12    0.10
 -13   1  11    0.06    0.08
 -11  13   1    0.13    0.09
  11  13  -1    0.03    0.08
  11  13  -1   -0.03    0.08
  13  -1  11   -0.04    0.08
 -13   1  11    0.05    0.11
  -1  11  13   -0.05    0.10
  13   1  11    0.00    0.10
  11  13   1    0.04    0.08
  11 -13  -1   -0.06    0.07
   1  11  13    0.09    0.11
  13   1  11   -0.05    0.07
  -1  11 -13   -0.14    0.08
  11  13   1   -0.07    0.07
  -1 -11  13   -0.02    0.08
 -11  13  -1   -0.01    0.08
 -13  -1  11   -0.01    0.08
 -11  13  -1   -0.01    0.07
 -13  -1  11   -0.03    0.09
 -11  13   3    2.32    0.21
   3  11 -13    2.51    0.22
 -13   3  11    2.15    0.22
 -13   3  11    2.66    0.22
   3 -11  13    2.60    0.26
  11 -13   3    2.60    0.22
  -3  11  13    1.72    0.21
 -11  13   3    2.67    0.22
  13  -3  11    2.21    0.23
  13   3  11    2.73    0.25
 -13  -3  11    2.09    0.21
  -3 -11  13    3.17    0.27
  11  13   3    2.37    0.21
  13   3  11    2.94    0.24
  -3  11 -13    2.34    0.23
 -13  -3  11    2.35    0.23
   3  11  13    1.76    0.22
 -11 -13   3    2.34    0.22
  11  13   3    2.02    0.22
 -11  13  -3    2.63    0.24
  11 -13  -3    2.78    0.20
 -11  13  -3    2.23    0.18
 -11  13   5    2.61    0.21
   5 -11  13    2.72    0.27
 -11  13   5    2.39    0.22
 -13   5  11    2.23    0.22
   5  11 -13    2.88    0.23
  11 -13   5    2.64    0.23
  -5  11  13    2.41    0.24
  13  -5  11    3.12    0.27
 -13   5  11    2.75    0.24
 -13  -5  11    2.82    0.26
  -5  11 -13    2.25    0.24
   5  11  13    2.28    0.24
 -11  13  -5    2.44    0.24
  11 -13  -5    2.73    0.20
 -11 -13   5    2.42    0.22
  -5 -11  13    2.33    0.25
  11  13   5    2.87    0.26
  13   5  11    2.85    0.25
  11  13   5    2.57    0.21
 -11  13  -5    2.93    0.19
  13   5  11    2.19    0.23
  -7  11  13    0.11    0.10
   7 -11  13    0.21    0.12
  13  -7  11    0.04    0.12
 -11  13   7    0.22    0.10
  11 -13   7    0.15    0.11
 -11  13   7    0.19    0.11
 -13   7  11    0.07    0.10
  11  13  -7    0.08    0.09
   7  11 -13    0.00    0.09
  11 -13  -7    0.17    0.09
  13   7  11    0.16    0.11
  -7  11 -13    0.14    0.11
 -11  13  -7    0.10    0.10
   7  11  13    0.15    0.12
  13  -7 -11    0.24    0.11
 -13  -7  11    0.14    0.12
  13   7  11    0.15    0.13
  11  13   7    0.17    0.12
  -7 -11  13    0.11    0.11
   7  11  13   -0.07    0.10
 -11 -13   7    0.23    0.11
  11  13   7    0.15    0.09
 -11  13   9    0.49    0.12
 -11  13   9    0.34    0.13
  11  13  -9    0.14    0.11
  -9  11  13    0.23    0.13
  13  -9  11    0.23    0.14
 -13   9  11    0.22    0.12
   9  11 -13    0.39    0.11
  11 -13   9    0.23    0.14
   9 -11  13    0.32    0.14
   9  11  13    0.21    0.14
 -11  13  -9    0.46    0.14
  13   9  11    0.11    0.11
  13  -9 -11    0.16    0.11
  -9 -11  13    0.17    0.12
  11  13   9    0.13    0.14
  -9  11 -13    0.23    0.14
   9  11  13    0.37    0.12
  11  13   9    0.32    0.12
  13   9  11    0.26    0.14
 -13  -9  11    0.31    0.14
 -11 -13   9    0.40    0.13
 -11  13  11   -0.06    0.09
  11  13 -11    0.08    0.09
  11 -13  11   -0.07    0.10
 -13  11  11   -0.08    0.10
  13 -11  11    0.12    0.13
 -11  11  13   -0.16    0.09
  11 -11  13   -0.12    0.11
 -13 -11  11   -0.05    0.09
 -11  13 -11   -0.07    0.10
  11  11  13   -0.01    0.10
 -13  11 -11    0.01    0.09
  13 -11 -11   -0.04    0.08
 -11  11 -13   -0.05    0.10
  11  13  11    0.06    0.11
  11  11  13    0.02    0.11
  13  11  11   -0.16    0.08
 -11 -11  13   -0.09    0.10
  13  11  11   -0.14    0.09
 -11 -13  11    0.07    0.12
 -13  13   1   -0.04    0.08
 -13  13   1   -0.02    0.08
  13  -1  13   -0.11    0.07
  -1  13  13    0.08    0.12
  13  13  -1    0.01    0.09
   1 -13  13   -0.01    0.10
  13 -13   1   -0.02    0.09
   1  13 -13    0.03    0.09
 -13   1  13    0.07    0.09
  13  -1  13    0.00    0.10
 -13   1  13    0.00    0.07
 -13  -1  13   -0.02    0.10
 -13  -1  13    0.03    0.08
  13 -13  -1    0.08    0.09
  -1 -13  13    0.05    0.10
  13  13   1    0.04    0.10
 -13  13  -1   -0.04    0.08
   1  13  13   -0.04    0.09
  13   1  13    0.01    0.08
  -1  13 -13   -0.12    0.08
  13  13   1    0.10    0.11
 -13  13  -1   -0.13    0.09
  13   1  13    0.02    0.10
 -13   3  13   -0.04    0.07
  13  -3  13   -0.05    0.09
  -3  13  13   -0.13    0.08
  13  -3  13   -0.01    0.07
 -13  13   3    0.04    0.09
   3  13 -13   -0.04    0.09
  13 -13   3   -0.07    0.08
  13  13  -3   -0.09    0.08
 -13  13   3   -0.01    0.08
   3 -13  13   -0.15    0.09
 -13   3  13   -0.06    0.07
 -13 -13   3   -0.03    0.08
 -13  -3  13    0.08    0.10
 -13  -3  13   -0.05    0.07
  -3  13 -13   -0.05    0.09
  13   3  13    0.12    0.12
  13  13   3   -0.02    0.08
 -13  13  -3   -0.07    0.08
  -3 -13  13    0.00    0.10
  13 -13  -3   -0.05    0.07
   3  13  13   -0.07    0.10
  13  13   3    0.20    0.12
 -13  13  -3   -0.01    0.07
  13   3  13    0.00    0.09
  -5  13  13    0.02    0.09
  13 -13   5    0.00    0.08
 -13   5  13    0.05    0.09
 -13  13   5    0.03    0.08
   5  13 -13    0.06    0.09
   5 -13  13   -0.16    0.10
  13  -5  13    0.02    0.10
 -13  13   5    0.00    0.08
 -13   5  13   -0.06    0.08
 -13  13  -5   -0.01    0.08
  13 -13  -5   -0.09    0.07
 -13  13  -5    0.07    0.08
 -13  -5  13   -0.07    0.09
  13   5  13   -0.05    0.08
  -5 -13  13    0.01    0.10
 -13 -13   5    0.28    0.12
  13  13   5   -0.04    0.08
  13  13   5   -0.09    0.09
 -13  -5  13    0.12    0.11
  13   5  13    0.12    0.10
  -5  13 -13    0.11    0.10
   5  13  13   -0.21    0.09
  13 -13   7   -0.09    0.09
   7 -13  13    0.02    0.11
 -13  13   7   -0.02    0.10
  13  -7  13    0.04    0.12
 -13   7  13   -0.04    0.08
 -13  13   7   -0.06    0.08
  -7  13  13   -0.17    0.09
 -13   7  13    0.02    0.08
   7  13 -13    0.00    0.09
   7  13  13   -0.09    0.10
  13   7  13    0.00    0.10
 -13  13  -7    0.03    0.10
  -7  13 -13   -0.08    0.10
  -7 -13  13    0.09    0.12
  13 -13  -7   -0.09    0.08
  13  13   7    0.03    0.10
  13  13   7   -0.04    0.09
 -13  -7  13    0.06    0.12
  13   7  13    0.00    0.11
 -13 -13   7   -0.13    0.07
 -13  13   9   -0.04    0.08
  -9  13  13    0.04    0.09
   9 -13  13    0.01    0.11
  13  13  -9    0.06    0.09
 -13   9  13   -0.03    0.09
  13  -9  13    0.05    0.11
   9  13 -13   -0.03    0.09
  13 -13   9    0.02    0.12
  13  13   9   -0.04    0.10
 -13  -9  13    0.07    0.11
  13   9  13   -0.07    0.10
  13   9  13    0.06    0.11
   9  13  13   -0.10    0.12
  -9  13 -13   -0.04    0.08
 -13  13  -9   -0.01    0.10
  13  13   9   -0.15    0.08
  13  -9 -13    0.03    0.08
 -13 -13   9    0.01    0.09
  -9 -13  13    0.08    0.12
 -11  13  13   -0.08    0.09
 -13  11  13   -0.08    0.08
  11 -13  13   -0.05    0.11
  13 -11  13   -0.14    0.11
 -13  13  11   -0.04    0.10
  13 -13  11   -0.11    0.11
  13  11  13   -0.01    0.10
  13  11  13   -0.12    0.12
 -13 -13  11    0.02    0.11
 -11 -13  13   -0.17    0.09
 -13 -11  13   -0.15    0.10
  13  13  11   -0.05    0.12
 -13  11 -13   -0.08    0.12
 -11  13 -13   -0.03    0.10
 -13  13 -11    0.12    0.12
  11  13  13    0.08    0.12
  13 -13  13    0.16    0.14
 -13  13  13    0.09    0.11
 -13  13 -13   -0.14    0.12
 -13 -13  13    0.01    0.12
  13  13  13   -0.13    0.10
  14   0   0    0.00    0.07
   0  14   0    0.03    0.06
   0 -14   0    0.09    0.05
   0   0  14    0.05    0.08
   0   0  14    0.08    0.07
   0  14   0    0.24    0.09
   0  14  -2    7.77    0.38
  -2   0  14    8.42    0.34
   0  14  -2    8.29    0.34
  -2   0  14    8.51    0.42
   0  14   2    8.17    0.38
   0 -14  -2    8.23    0.25
  14  -2   0    8.08    0.40
   2   0  14    8.34    0.34
  14   2   0    8.14    0.40
   2   0  14    8.50    0.43
   0 -14   2    8.24    0.32
   0  14   4    0.22    0.11
   0  14  -4    0.16    0.07
  -4   0  14    0.07    0.08
   0  14  -4    0.11    0.09
  14  -4   0    0.12    0.09
   4   0  14    0.09    0.10
  -4   0  14    0.19    0.08
  14   4   0   -0.04    0.07
   4   0  14    0.12    0.07
   0 -14   4    0.04    0.06
   0 -14   6    6.18    0.32
   6   0  14    6.58    0.31
   0  14  -6    6.25    0.35
  14   6   0    7.31    0.38
   0  14  -6    6.51    0.25
  14  -6   0    6.53    0.35
 -14   6   0    6.31    0.33
  -6   0  14    6.05    0.31
 -14   6   0    6.13    0.31
  -6   0  14    6.25    0.36
   6   0  14    7.07    0.38
   0  14   6    7.61    0.38
  14   8   0    0.14    0.10
   0 -14   8    0.02    0.07
  -8   0  14   -0.01    0.07
   8   0  14    0.01    0.07
   0  14   8   -0.01    0.10
   8   0  14   -0.05    0.08
  14  -8   0    0.07    0.08
 -14   8   0    0.09    0.07
   0  14  -8    0.00    0.07
 -14   8   0   -0.02    0.06
  -8   0  14   -0.04    0.06
 -10   0  14   14.81    0.57
 -14  10   0   15.57    0.57
  14 -10   0   14.68    0.58
 -10   0  14   15.82    0.62
  10   0  14   14.19    0.61
   0  14 -10   14.17    0.58
  10   0  14   15.39    0.55
   0 -14  10   14.80    0.61
   0  14  10   14.50    0.63
 -14  10   0   14.63    0.55
  14  10   0   15.11    0.62
   0  14 -12    0.17    0.11
 -14  12   0    0.13    0.09
 -12   0  14    0.07    0.09
 -14  12   0    0.01    0.08
   0 -14  12    0.18    0.12
   0  14  12   -0.08    0.11
  12   0  14    0.03    0.09
  12   0  14    0.08    0.10
  14 -12   0    0.15    0.11
 -12   0  14    0.04    0.10
  14  12   0    0.03    0.10
  14   0   2    8.33    0.40
   0  -2  14    7.60    0.42
   0   2  14    8.93    0.41
   0  -2  14    8.14    0.32
   2 -14   0    8.04    0.30
  -2  14   0    8.29    0.35
  -2 -14   0    8.33    0.30
  -2  14   0    8.77    0.39
   0   2  14    7.83    0.35
  14   0  -2    8.86    0.41
   2  14   0    8.12    0.36
  14  -2   2   44.40    1.33
  -2   2  14   46.59    1.34
  -2 -14  -2   44.54    1.15
  14   2  -2   47.95    1.36
   2  -2  14   47.80    1.18
  -2   2  14   46.44    1.24
  -2  14   2   48.39    1.31
   2  14  -2   46.06    1.22
   2  14  -2   45.69    1.30
   2  -2  14   45.82    1.39
  -2  14   2   44.56    1.26
   2 -14   2   45.37    1.24
   2   2  14   46.39    1.36
  -2 -14   2   47.83    1.23
  -2  -2  14   46.65    1.38
  -2  14  -2   47.14    1.32
  -2  14  -2   45.08    1.19
   2   2  14   48.99    1.25
  -2  -2  14   45.03    1.19
   2  14   2   48.06    1.28
   2 -14  -2   48.82    1.15
  14  -2  -2   46.74    1.34
  14   2   2   45.51    1.34
  -4   2  14   14.93    0.54
   2  14  -4   15.04    0.57
   2  14  -4   15.24    0.50
 -14   4   2   15.52    0.57
  14   4  -2   15.50    0.60
  -4   2  14   14.81    0.58
  -2  14   4   14.75    0.57
   2 -14   4   14.89    0.54
   4  -2  14   15.34    0.63
   4  -2  14   14.96    0.48
  14  -4   2   14.78    0.58
   2  14   4   15.51    0.58
  -4  -2  14   15.64    0.51
  14   4   2   15.27    0.59
  -4  -2  14   14.68    0.61
  -2  14  -4   15.06    0.46
  -2 -14   4   16.25    0.54
  -2  14  -4   14.60    0.57
  14  -4  -2   15.59    0.58
   4   2  14   14.76    0.60
   4   2  14   15.59    0.54
   2  14  -6   26.40    0.88
 -14   6   2   27.91    0.87
  -6   2  14   27.38    0.84
  14  -6   2   27.50    0.91
 -14   6   2   28.78    0.83
  -2  14   6   27.39    0.90
  14   6  -2   28.28    0.93
  -6   2  14   29.95    0.93
   2 -14   6   28.73    0.89
   6  -2  14   27.33    0.94
   2  14  -6   28.06    0.76
   6  -2  14   28.49    0.79
  -2 -14   6   29.06    0.88
  14  -6  -2   28.07    0.90
   6   2  14   28.57    0.93
  14   6   2   28.52    0.93
  -2  14  -6   28.24    0.90
  -6  -2  14   28.83    0.83
   6   2  14   27.38    0.84
  -6  -2  14   28.78    0.95
   2  14   6   29.61    0.92
  -2  14  -6   27.42    0.71
  -2  14   8    0.13    0.09
   2  14  -8    0.06    0.08
  -8   2  14    0.09    0.08
 -14   8   2    0.06    0.08
  -8   2  14    0.41    0.11
   2 -14   8    0.12    0.09
  14   8  -2    0.08    0.09
  14  -8   2    0.23    0.10
 -14   8   2    0.05    0.07
   8  -2  14    0.05    0.08
   8  -2  14    0.17    0.08
 -14   8  -2    0.10    0.08
 -14   8  -2    0.19    0.09
   8   2  14    0.28    0.12
  -8  -2  14    0.01    0.07
  14  -8  -2   -0.06    0.07
  14   8   2    0.21    0.10
   8   2  14    0.03    0.07
  -8  -2  14    0.02    0.07
  -2 -14   8    0.23    0.09
   2  14   8    0.04    0.09
  -2  14  -8    0.08    0.08
 -14  10   2   27.57    0.83
  -2  14  10   26.59    0.92
 -14  10   2   26.34    0.84
 -10   2  14   26.71    0.90
  14  10  -2   26.52    0.91
   2  14 -10   26.05    0.87
  14 -10   2   27.48    0.90
 -10   2  14   27.04    0.87
  10  -2  14   27.00    0.80
  10  -2  14   25.74    0.92
   2 -14  10   27.53    0.93
  14  10   2   25.80    0.89
  14 -10  -2   26.17    0.86
 -14  10  -2   27.68    0.87
  10   2  14   26.36    0.84
 -10  -2  14   27.23    0.94
  -2 -14  10   26.36    0.91
   2  14  10   26.50    0.92
  -2  14 -10   28.29    0.91
  10   2  14   26.06    0.91
 -10  -2  14   26.37    0.85
 -14  10  -2   27.62    0.84
  14 -12   2   10.82    0.48
  12  -2  14   11.01    0.44
  -2  14  12    9.49    0.51
 -12   2  14   10.78    0.51
  14  12  -2    9.56    0.49
 -12   2  14    9.94    0.48
 -14  12   2   10.35    0.46
   2 -14  12   10.37    0.53
 -14  12   2   11.14    0.46
  12  -2  14   10.72    0.52
   2  14 -12    9.87    0.47
  12   2  14   10.89    0.52
  -2 -14  12   10.47    0.53
  14  12   2   11.68    0.52
  12   2  14   10.44    0.47
 -12  -2  14   11.01    0.49
 -14  12  -2   10.02    0.47
   2  14  12   10.22    0.53
 -14  12  -2   10.64    0.45
  -2  14 -12   10.43    0.50
 -12  -2  14   10.24    0.51
  14  12   2    9.93    0.48
  14 -12  -2   11.01    0.47
   0  -4  14    0.10    0.09
  14   0   4    0.00    0.08
  -4  14   0    0.31    0.10
   4 -14   0    0.03    0.05
  -4 -14   0    0.07    0.05
   0   4  14    0.10    0.08
   0   4  14    0.16    0.08
   0  -4  14   -0.03    0.04
  14   0  -4    0.05    0.07
   4  14   0    0.11    0.07
  -4  14   0    0.13    0.07
  -2   4  14   15.77    0.58
  -4  14   2   16.80    0.59
   4  14  -2   16.01    0.57
  -4  14   2   14.24    0.53
   2  -4  14   15.92    0.46
  14  -2   4   15.53    0.60
   4 -14   2   15.41    0.52
   2  -4  14   15.73    0.64
  -2   4  14   16.24    0.56
  14   2  -4   14.81    0.59
   4  14  -2   15.28    0.52
 -14   2   4   15.55    0.58
   4  14   2   15.83    0.57
   2   4  14   16.09    0.60
  14   2   4   14.56    0.60
   4 -14  -2   15.38    0.46
   4  14   2   15.10    0.46
  -4  14  -2   13.97    0.56
   2   4  14   15.76    0.57
  -4 -14   2   15.19    0.51
  -2  -4  14   15.82    0.48
  -4  14  -2   15.07    0.49
  14  -2  -4   15.15    0.59
  -2  -4  14   14.47    0.62
  -4   4  14    0.00    0.06
  -4  14   4    0.10    0.08
   4  14  -4    0.29    0.08
  14  -4   4    0.22    0.10
   4  -4  14    0.24    0.06
   4  14  -4    0.14    0.09
 -14   4   4    0.17    0.08
   4 -14   4    0.17    0.08
   4  -4  14    0.19    0.10
  14   4  -4    0.19    0.09
  -4  14   4    0.06    0.08
  -4   4  14    0.17    0.09
  14   4   4    0.15    0.09
   4   4  14    0.17    0.09
  -4 -14   4    0.19    0.08
  -4  -4  14    0.07    0.06
  14  -4  -4    0.14    0.09
  -4  14  -4    0.25    0.06
   4  14   4    0.13    0.04
   4   4  14    0.14    0.09
   4  14   4    0.14    0.09
  -4  14  -4    0.13    0.08
  -4  -4  14    0.25    0.10
   6  -4  14    0.41    0.12
 -14   6   4    0.60    0.13
  14  -6   4    0.67    0.14
   4 -14   6    0.62    0.12
  -4  14   6    0.53    0.11
   4  14  -6    0.53    0.09
   6  -4  14    0.44    0.08
  -4  14   6    0.53    0.13
   4  14  -6    0.66    0.13
  -6   4  14    0.72    0.12
  -6   4  14    0.54    0.12
  14   6  -4    0.70    0.14
 -14   6   4    0.58    0.09
  14  -6  -4    0.49    0.12
   6   4  14    0.80    0.14
  14   6   4    0.68    0.14
   4  14   6    0.76    0.15
  -4 -14   6    0.55    0.11
  -6  -4  14    0.65    0.11
   6   4  14    0.58    0.12
  -4  14  -6    0.71    0.14
  -6  -4  14    0.37    0.12
  -8   4  14    0.04    0.08
   4  14  -8    0.15    0.06
  -8   4  14    0.13    0.09
   4 -14   8    0.26    0.11
 -14   8   4    0.24    0.10
   4  14  -8    0.01    0.08
   8  -4  14    0.25    0.11
   8  -4  14    0.15    0.07
  -4  14   8    0.20    0.10
  14  -8   4    0.23    0.11
 -14   8   4    0.13    0.07
  14   8  -4    0.19    0.10
   8   4  14    0.09    0.09
   8   4  14    0.25    0.11
 -14   8  -4    0.31    0.11
  -8  -4  14    0.12    0.10
  14  -8  -4    0.09    0.09
  14   8   4    0.10    0.09
  -4  14  -8    0.13    0.10
  -8  -4  14   -0.03    0.08
   4  14   8    0.21    0.11
  -4 -14   8    0.15    0.09
   4  14 -10   13.80    0.56
 -14  10   4   15.02    0.52
 -10   4  14   13.25    0.56
  14 -10   4   14.04    0.58
 -10   4  14   14.25    0.57
   4 -14  10   14.32    0.60
  14  10  -4   13.64    0.60
 -14  10   4   13.83    0.55
  10  -4  14   14.99    0.62
  -4  14  10   13.31    0.60
  10  -4  14   14.13    0.48
  10   4  14   13.47    0.58
  10   4  14   14.32    0.57
   4  14  10   14.97    0.63
  -4 -14  10   14.54    0.60
  -4  14 -10   13.95    0.59
 -14 -10   4   14.52    0.60
  14  10   4   14.56    0.60
  14 -10  -4   13.75    0.54
 -10  -4  14   15.23    0.56
 -10  -4  14   14.24    0.62
 -14  10  -4   13.09    0.56
  14  10   4   13.59    0.57
 -14  12   4    0.84    0.14
   4 -14  12    1.23    0.20
  14 -12   4    1.17    0.17
  14  12  -4    1.40    0.19
 -12   4  14    1.11    0.17
  -4  14  12    1.30    0.21
 -12   4  14    1.25    0.18
  12  -4  14    1.29    0.15
  12  -4  14    1.23    0.20
 -14  12   4    1.22    0.17
   4  14 -12    1.05    0.16
  14  12   4    1.17    0.18
  14 -12  -4    1.05    0.16
 -12  -4  14    0.90    0.16
   4  14  12    1.14    0.21
 -12  -4  14    1.29    0.19
  14  12   4    1.06    0.18
 -14 -12   4    1.37    0.19
  12   4  14    1.15    0.18
 -14  12  -4    1.38    0.18
  -4  14 -12    0.96    0.17
  -4 -14  12    1.44    0.21
 -14  12  -4    1.28    0.16
  12   4  14    1.10    0.19
   0   6 -14    6.12    0.32
  14   0   6    6.75    0.37
   0  -6  14    6.27    0.23
   0  -6  14    6.25    0.38
   6 -14   0    6.03    0.27
  -6  14   0    5.84    0.29
   0   6  14    6.65    0.33
  -6  14   0    6.14    0.33
   6  14   0    6.22    0.32
  -6 -14   0    6.50    0.28
  14   0  -6    5.95    0.34
 -14   0   6    6.95    0.36
   0   6  14    6.50    0.35
  -2   6  14   27.83    0.86
   6  14  -2   26.98    0.82
   6 -14   2   29.39    0.84
  -6  14   2   28.06    0.84
  14  -2   6   27.15    0.92
  14   2  -6   27.00    0.91
   2   6 -14   28.20    0.85
  -6  14   2   26.41    0.87
   2  -6  14   29.22    0.98
  -2   6  14   29.33    0.89
 -14   2   6   27.11    0.88
   6 -14  -2   28.10    0.77
   6  14   2   27.51    0.79
  -2  -6  14   28.41    0.75
  -2  -6  14   29.73    0.98
  -2   6 -14   27.57    0.88
   2   6  14   28.94    0.89
  14   2   6   27.62    0.92
  -6  14  -2   28.14    0.78
   2   6  14   29.24    0.89
  -6  14  -2   28.56    0.89
  14  -2  -6   28.00    0.90
  -6 -14   2   26.91    0.83
   6  14   2   26.77    0.85
  -4   6  14    0.50    0.12
  -6  14   4    0.75    0.12
 -14   4   6    0.77    0.14
  14  -4   6    0.60    0.14
  -4   6  14    0.94    0.13
  -6  14   4    0.51    0.12
   4   6 -14    0.88    0.12
   6  14  -4    0.45    0.11
   6 -14   4    0.78    0.12
   6  14  -4    0.74    0.11
   4  -6  14    0.50    0.14
  -4  -6  14    0.58    0.14
  -6  14  -4    0.60    0.08
  -6 -14   4    0.56    0.11
   6 -14  -4    0.54    0.07
   4   6  14    0.62    0.13
  14  -4  -6    0.58    0.12
  -6  14  -4    0.44    0.12
 -14  -4   6    0.50    0.12
   6  14   4    0.59    0.08
   4   6  14    0.81    0.14
  14   4   6    0.61    0.13
   6  14   4    0.53    0.12
  -4  -6  14    0.48    0.09
   6  14  -6   39.33    1.03
 -14   6   6   35.39    1.11
   6  14  -6   39.15    1.13
  14  -6   6   37.53    1.18
  -6   6  14   39.46    1.14
   6   6 -14   38.21    1.04
   6  -6  14   37.93    1.22
  -6  14   6   38.79    1.12
   6 -14   6   37.99    1.13
  -6   6  14   38.64    1.12
  -6  14   6   37.12    1.12
   6   6  14   38.75    1.15
  14  -6  -6   38.82    1.15
   6  14   6   35.78    1.13
  -6  -6  14   37.28    1.22
  -6  14  -6   38.77    1.16
   6   6  14   39.49    1.14
  -6  -6  14   39.44    1.04
 -14  -6   6   40.21    1.21
  -6 -14   6   40.57    1.15
  14   6   6   38.13    1.17
  -6  14   8    8.95    0.45
   6  14  -8    9.29    0.43
  -8   6  14    8.88    0.41
   6  14  -8    9.31    0.35
 -14   8   6    9.39    0.43
   8  -6  14    8.77    0.46
  14  -8   6    9.27    0.46
  -6  14   8    9.52    0.42
  -8   6  14    8.78    0.43
   6 -14   8    9.06    0.44
 -14   8   6    8.59    0.35
  14   8   6    8.35    0.43
   8   6  14    8.91    0.44
   6  14   8    8.47    0.44
  -8  -6  14    8.74    0.46
  -6 -14   8    9.24    0.44
 -14  -8   6    9.17    0.46
  14   8   6    8.73    0.44
  14  -8  -6    9.58    0.42
   8   6  14    8.18    0.41
 -14   8  -6    9.36    0.46
  -8  -6  14    8.91    0.39
  -6  14  -8    8.55    0.44
  14 -10   6   29.29    0.99
   6 -14  10   30.45    1.02
   6  14 -10   31.10    0.96
  10  -6  14   31.98    1.05
  -6  14  10   30.20    1.00
 -10   6  14   30.50    0.98
 -14  10   6   30.11    0.96
 -14  10   6   30.93    0.88
 -10   6  14   30.53    0.96
  -6 -14  10   30.71    1.02
  14  10   6   30.88    1.00
  -6  14 -10   29.48    1.00
 -10  -6  14   30.14    0.93
  10   6  14   29.37    0.98
  14 -10  -6   31.83    0.96
 -10  -6  14   31.49    1.06
 -14 -10   6   30.17    1.02
   6  14  10   31.09    1.02
 -14  10  -6   29.03    0.99
  14  10   6   28.17    0.97
  10   6  14   30.23    0.98
 -14  12   6    1.71    0.20
   6 -14  12    1.25    0.21
 -12   6  14    1.74    0.21
  -6  14  12    1.33    0.21
  14 -12   6    1.67    0.21
  12  -6  14    1.74    0.23
 -12   6  14    1.77    0.19
 -14  12   6    1.83    0.18
   6  14 -12    1.71    0.19
  14  12   6    1.50    0.21
  12   6  14    1.97    0.23
  12   6  14    1.84    0.22
 -12  -6  14    2.14    0.24
  -6  14 -12    1.41    0.21
 -14 -12   6    1.85    0.22
 -14  12  -6    1.60    0.21
  14  12   6    1.80    0.21
  14 -12  -6    1.39    0.17
 -12  -6  14    1.75    0.20
   6  14  12    1.81    0.23
  -6 -14  12    1.63    0.22
   8 -14   0    0.05    0.07
   0   8 -14    0.09    0.09
  -8 -14   0    0.12    0.07
  -8  14   0    0.14    0.08
   0   8  14    0.14    0.10
 -14   0   8    0.08    0.08
 -14   0   8    0.11    0.08
   0   8  14   -0.05    0.06
  -8  14   0    0.06    0.07
   0  -8  14   -0.05    0.08
   8  14   0    0.03    0.08
  14   0   8    0.03    0.09
   8 -14   2    0.02    0.07
  -8  14   2    0.06    0.08
  -2   8  14    0.11    0.09
  -8  14   2    0.05    0.07
   8  14  -2    0.07    0.07
   2  -8  14    0.03    0.09
   2   8 -14    0.12    0.09
 -14   2   8    0.46    0.11
  14  -2   8    0.07    0.10
  -2   8  14    0.14    0.07
  14  -2  -8    0.01    0.08
 -14  -2   8    0.14    0.09
  -2  -8  14    0.18    0.11
  14   2   8    0.36    0.12
  -8  14  -2    0.17    0.08
  -8 -14   2   -0.02    0.06
   2   8  14   -0.01    0.06
   2   8  14    0.13    0.10
  -8  14  -2    0.07    0.09
   8  14   2    0.10    0.07
   8 -14  -2    0.13    0.07
  -2   8 -14    0.04    0.08
 -14  -2   8    0.03    0.08
   8  14   2    0.11    0.08
  14  -4   8    0.14    0.10
   4  -8  14    0.11    0.10
  -4   8  14    0.17    0.07
   4   8 -14    0.15    0.08
  -8  14   4    0.19    0.09
   8  14  -4    0.11    0.07
  -8  14   4    0.17    0.09
 -14   4   8    0.09    0.08
  -4   8  14    0.18    0.11
   8 -14   4    0.05    0.07
  -4  -8  14    0.06    0.09
   8  14   4    0.09    0.09
   4   8  14    0.09    0.08
  -8 -14   4    0.20    0.08
   8 -14  -4    0.07    0.06
  -4   8 -14    0.21    0.11
  -8  14  -4    0.08    0.10
 -14  -4   8    0.29    0.10
  14  -4  -8    0.18    0.09
  14   4   8    0.26    0.12
   8  14   4    0.08    0.07
   4   8  14    0.15    0.11
  -8  14  -4    0.16    0.07
  -4  -8  14    0.24    0.08
  -8  14   6    8.80    0.41
 -14   6   8    9.07    0.43
   6  -8  14    9.23    0.48
  14  -6   8    9.17    0.46
   8  14  -6    9.29    0.42
   8 -14   6    8.99    0.42
  -8  14   6    7.92    0.41
   6   8 -14    8.44    0.37
  -6   8  14    8.78    0.37
  -6   8  14    8.31    0.43
 -14  -6   8    8.85    0.45
  -6  -8  14    8.63    0.47
   6   8  14    8.81    0.44
  14   6   8    8.86    0.43
  -8  14  -6    9.42    0.45
   6   8  14    8.46    0.41
   8  14   6    8.49    0.34
  -8 -14   6    9.58    0.43
  14   6   8    9.60    0.46
   8  14   6    9.01    0.44
  14  -6  -8    9.27    0.43
  -6   8 -14    8.80    0.45
  -8   8  14    0.15    0.09
 -14   8   8    0.24    0.11
   8  14  -8    0.11    0.09
  -8  14   8    0.07    0.08
   8  -8  14    0.10    0.10
  14  -8   8    0.15    0.11
  -8  14   8   -0.09    0.09
  -8   8  14    0.08    0.09
   8 -14   8    0.08    0.10
   8  14   8    0.30    0.13
  -8  14  -8    0.03    0.09
 -14  -8   8    0.09    0.10
  14   8   8    0.17    0.11
  14   8   8    0.14    0.10
  -8  -8  14    0.15    0.11
  -8 -14   8    0.05    0.10
  14  -8  -8    0.19    0.09
   8   8  14    0.13    0.10
   8   8  14    0.07    0.10
 -14  10   8    0.07    0.09
 -10   8  14    0.05    0.08
  -8  14  10    0.12    0.10
   8 -14  10    0.23    0.12
  10  -8  14    0.03    0.11
 -10   8  14    0.33    0.12
  -8  14  10    0.08    0.11
   8  14 -10    0.18    0.09
  14 -10   8   -0.05    0.10
 -14  10  -8    0.13    0.11
   8  14  10    0.08    0.13
  14  10   8    0.14    0.11
  14 -10  -8    0.12    0.10
  10   8  14    0.11    0.12
  14  10   8    0.04    0.10
  10   8  14    0.01    0.09
 -10  -8  14    0.05    0.11
  -8 -14  10    0.14    0.12
  -8  14 -10    0.18    0.12
 -14 -10   8    0.04    0.10
   8 -14  12    0.22    0.13
 -14  12   8    0.34    0.13
 -12   8  14    0.29    0.12
  14 -12   8    0.33    0.14
  14  12  -8    0.28    0.10
  12  -8  14    0.34    0.15
   8  14 -12    0.15    0.10
  -8  14  12    0.41    0.12
  -8  14  12    0.36    0.14
 -12   8  14    0.12    0.10
  14 -12  -8    0.14    0.10
  14  12   8    0.30    0.13
  -8 -14  12    0.17    0.12
 -14  12  -8    0.25    0.14
  -8  14 -12    0.17    0.12
   8  14  12    0.29    0.13
 -14 -12   8    0.06    0.11
  14  12   8    0.39    0.15
 -12  -8  14    0.22    0.13
  12   8  14    0.31    0.13
  12   8  14    0.12    0.11
   0  10  14   14.31    0.50
   0 -10  14   15.61    0.67
  10 -14   0   15.28    0.53
   0  10  14   14.94    0.63
   0  10 -14   15.16    0.58
  10  14   0   14.72    0.57
 -14   0  10   15.12    0.61
 -10  14   0   14.41    0.58
  14   0  10   14.63    0.62
  10  14   0   15.07    0.57
 -10  14   0   15.24    0.54
 -14   0  10   14.80    0.59
   2  10 -14   27.77    0.87
  -2  10  14   27.88    0.93
   2 -10  14   27.86    0.98
  -2  10  14   27.13    0.79
 -10  14   2   26.42    0.86
  10  14  -2   26.67    0.85
 -10  14   2   26.42    0.83
  14  -2  10   28.34    0.95
 -14   2  10   25.75    0.88
  10 -14   2   27.51    0.84
 -14   2  10   26.38    0.90
  14   2  10   28.75    0.95
  10  14   2   26.62    0.88
  14   2  10   28.14    0.88
 -10 -14   2   27.59    0.87
  -2 -10  14   26.61    0.96
  10 -14  -2   26.91    0.81
 -14  -2  10   25.92    0.92
 -14  -2  10   27.35    0.89
 -10  14  -2   26.02    0.88
 -10  14  -2   26.95    0.79
  -2  10 -14   25.80    0.88
   2  10  14   28.62    0.94
  10  14   2   26.26    0.85
   2  10  14   26.82    0.81
   4  10 -14   14.60    0.54
  -4  10  14   14.36    0.49
 -14   4  10   14.75    0.58
 -10  14   4   14.32    0.55
  10 -14   4   14.83    0.55
  14  -4  10   13.96    0.60
  -4  10  14   12.73    0.58
 -10  14   4   13.96    0.55
   4 -10  14   14.21    0.64
   4  10  14   14.34    0.53
 -10 -14   4   14.05    0.56
  -4  10 -14   13.90    0.59
  14   4  10   14.83    0.61
  14   4  10   14.00    0.57
  -4 -10  14   14.28    0.64
  10 -14  -4   14.90    0.49
 -14  -4  10   13.96    0.60
  10  14   4   13.77    0.58
  10  14   4   13.02    0.51
  14  -4 -10   13.53    0.56
   4  10  14   14.35    0.61
 -10  14  -4   14.76    0.48
 -10  14  -4   13.43    0.57
  10 -14   6   30.33    0.97
 -10  14   6   30.31    0.94
  -6  10  14   31.72    1.02
  10  14  -6   31.33    0.96
 -14   6  10   29.83    0.97
   6  10 -14   30.31    0.91
  -6  10  14   30.14    0.89
  14  -6  10   31.45    1.04
 -10  14   6   30.25    0.96
   6 -10  14   30.69    1.06
 -10  14  -6   30.02    1.00
   6  10  14   28.41    0.99
 -10 -14   6   29.98    0.99
  -6 -10  14   30.51    1.06
  14   6  10   31.01    0.99
  14   6  10   31.54    1.02
  10  14   6   30.44    0.99
  14  -6 -10   31.24    0.98
   6  10  14   31.73    0.94
  10  14   6   28.99    0.90
  -6  10 -14   30.21    1.01
 -14  -6  10   29.77    1.03
  -8  10  14    0.08    0.10
  10 -14   8    0.09    0.10
 -10  14   8    0.15    0.10
  10  14  -8    0.19    0.09
 -14   8  10    0.10    0.10
   8  10 -14    0.23    0.09
   8 -10  14    0.31    0.15
  14  -8  10    0.05    0.11
 -10  14   8    0.21    0.12
  -8  10  14    0.06    0.08
  10  14   8    0.12    0.13
  -8 -10  14    0.20    0.13
  14  -8 -10    0.12    0.10
  -8  10 -14    0.22    0.12
   8  10  14    0.12    0.10
 -10  14  -8    0.09    0.09
   8  10  14    0.25    0.13
  14   8  10    0.34    0.12
  14   8  10    0.00    0.09
 -10 -14   8    0.12    0.10
 -14  -8  10   -0.01    0.09
 -14  10  10   18.20    0.71
  14 -10  10   17.62    0.72
 -10  10  14   17.10    0.62
 -10  14  10   16.18    0.62
 -10  10  14   17.68    0.71
  10  14 -10   16.51    0.64
 -10  14  10   18.58    0.72
  10 -10  14   16.79    0.73
  10 -14  10   17.59    0.70
 -14  10 -10   17.85    0.73
  10  10  14   18.12    0.67
 -14 -10  10   17.59    0.74
 -10 -10  14   17.65    0.75
  14  10  10   16.67    0.70
  10  14  10   17.78    0.73
  14 -10 -10   17.95    0.66
 -10  10 -14   17.26    0.73
  14  10  10   17.16    0.68
 -10  14 -10   19.39    0.75
  10  10  14   17.42    0.72
 -10 -14  10   17.53    0.71
 -14  12  10    1.23    0.19
  10  14 -12    1.65    0.18
  14 -12  10    1.46    0.23
 -12  10  14    1.56    0.23
  12 -10  14    1.35    0.22
  10 -14  12    1.59    0.22
 -10  14  12    1.10    0.20
  12  10  14    1.67    0.23
  12 -10 -14    1.76    0.19
 -10  14 -12    2.02    0.24
 -10 -14  12    1.47    0.22
 -12 -10  14    1.72    0.24
 -14 -12  10    1.82    0.24
  12  10  14    1.84    0.22
  10  14  12    1.38    0.23
 -14  12 -10    1.76    0.24
  14 -12 -10    1.56    0.18
  14  12  10    1.65    0.24
  14  12  10    1.93    0.22
  12  14   0    0.04    0.11
   0  12  14   -0.12    0.09
 -12  14   0    0.23    0.09
 -14   0  12    0.20    0.11
 -12  14   0   -0.09    0.09
  12  14   0    0.33    0.11
  14   0  12    0.17    0.11
  14   0  12    0.07    0.09
   0  12 -14    0.06    0.10
 -14   0  12    0.24    0.11
   0 -12  14   -0.09    0.11
  12 -14   0    0.13    0.09
  14  -2  12   11.13    0.45
   2  12 -14   10.52    0.47
 -14   2  12   10.71    0.50
  12 -14   2   10.66    0.46
  12  14  -2    9.98    0.48
   2 -12  14    9.99    0.53
 -12  14   2    9.68    0.46
 -14   2  12   10.78    0.50
 -12  14   2   10.31    0.45
  -2  12  14   10.43    0.53
  14  -2  12   10.53    0.51
  12  14   2   10.43    0.47
  14   2  12   10.31    0.51
  12 -14  -2   10.58    0.43
   2  12  14   10.38    0.52
 -12  14  -2   11.38    0.50
  12  14   2   10.23    0.49
 -14  -2  12    9.73    0.48
  -2  12 -14    9.74    0.48
  14   2  12   10.23    0.47
 -14  -2  12   10.43    0.51
  -2 -12  14    9.92    0.53
 -12  14  -2   10.48    0.43
 -12  14   4    1.13    0.16
 -14   4  12    1.07    0.17
  -4  12  14    0.75    0.17
   4  12 -14    1.10    0.16
   4 -12  14    1.17    0.21
 -12  14   4    1.22    0.17
 -14   4  12    0.92    0.17
  12 -14   4    1.20    0.17
  14  -4  12    1.43    0.16
  14  -4  12    1.21    0.19
  -4  12 -14    0.86    0.17
  12  14   4    1.49    0.18
 -12  14  -4    1.10    0.17
 -12 -14   4    1.33    0.18
   4  12  14    0.65    0.16
 -14  -4  12    1.03    0.17
  12  14   4    1.21    0.18
 -12  14  -4    1.20    0.14
 -14  -4  12    0.97    0.17
  14   4  12    0.91    0.16
  12 -14  -4    1.14    0.15
  14   4  12    1.61    0.21
  -4 -12  14    1.43    0.22
   6  12 -14    1.81    0.19
  -6  12  14    1.31    0.20
  14  -6  12    1.70    0.22
   6 -12  14    1.58    0.23
 -12  14   6    1.75    0.20
 -14   6  12    1.78    0.22
 -12  14   6    1.78    0.19
  12 -14   6    1.93    0.21
  14  -6 -12    1.25    0.19
  -6  12 -14    1.37    0.20
 -12  14  -6    1.75    0.21
 -14  -6  12    1.70    0.23
   6  12  14    1.73    0.24
  12  14   6    1.58    0.19
  -6 -12  14    1.92    0.25
  14   6  12    2.15    0.23
 -12 -14   6    1.96    0.22
  14   6  12    1.38    0.20
  12  14   6    1.62    0.22
  14  -8  12    0.30    0.15
 -12  14   8    0.36    0.14
 -12  14   8    0.23    0.10
  -8  12  14    0.27    0.14
   8 -12  14    0.20    0.14
  12 -14   8    0.46    0.15
  12  14  -8    0.37    0.12
   8  12 -14    0.09    0.10
 -14   8  12    0.04    0.11
 -12  14  -8    0.12    0.12
 -14  -8  12    0.40    0.14
  -8 -12  14    0.14    0.12
  14   8  12    0.20    0.13
  12  14   8    0.19    0.13
 -12 -14   8    0.29    0.13
   8  12  14    0.21    0.13
  14  -8 -12    0.28    0.12
  14   8  12    0.28    0.14
  -8  12 -14    0.11    0.12
  12  14 -10    1.77    0.19
  10 -12  14    1.75    0.24
 -10  12  14    1.46    0.22
 -12  14  10    1.79    0.23
  14 -10  12    1.19    0.21
  12 -14  10    1.76    0.23
 -14  10  12    1.84    0.23
  10  12  14    1.99    0.26
  14 -10 -12    1.98    0.21
  14  10  12    1.80    0.23
 -14 -10  12    1.73    0.25
 -12  14 -10    1.83    0.24
 -12 -14  10    1.61    0.23
  14  10  12    1.98    0.25
  12  14  10    1.89    0.25
 -10  12 -14    2.02    0.25
 -10 -12  14    1.46    0.23
 -12  12  14    0.94    0.19
  12 -12  14    0.80    0.19
 -12  14  12    1.10    0.20
  12 -14  12    1.13    0.21
 -14  12  12    1.09    0.20
  14 -12  12    0.84    0.20
  12  14  12    0.75    0.19
 -14  12 -12    0.95    0.20
 -12  12 -14    1.08    0.21
  14  12  12    1.30    0.19
 -12 -14  12    0.68    0.18
 -12 -12  14    0.82    0.19
  14  12  12    1.01    0.21
 -12  14 -12    1.02    0.21
 -14 -12  12    0.84    0.20
  12  12  14    1.25    0.22
 -14   0  14    1.11    0.18
 -14   0  14    0.97    0.17
   0 -14  14    1.25    0.21
  14   0  14    0.76    0.15
  14  14   0    1.08    0.18
  14 -14   0    1.32    0.18
 -14  14   0    1.16    0.17
   0  14  14    0.98    0.21
  14  14   0    0.99    0.18
   0  14 -14    1.15    0.18
 -14  14   0    0.91    0.16
  14   0  14    1.54    0.21
   2 -14  14   37.71    1.29
 -14   2  14   40.58    1.27
  14  -2  14   41.95    1.31
   2  14 -14   39.50    1.21
  -2  14  14   35.62    1.25
  14  14  -2   40.98    1.27
 -14  14   2   39.17    1.17
 -14  14   2   39.96    1.20
  14  -2  14   41.37    1.16
  14 -14   2   40.04    1.21
 -14   2  14   38.33    1.21
 -14  -2  14   39.80    1.22
  14  14   2   38.86    1.23
  14 -14  -2   40.28    1.19
   2  14  14   41.02    1.29
  -2 -14  14   40.87    1.32
 -14  14  -2   39.29    1.14
  14   2  14   39.25    1.28
 -14  -2  14   38.73    1.28
  14  14   2   41.24    1.24
  -2  14 -14   37.37    1.23
 -14  14  -2   40.03    1.22
  14   2  14   41.91    1.21
  14 -14   4    0.54    0.15
  14  -4  14    0.67    0.17
 -14  14   4    0.71    0.15
 -14   4  14    0.44    0.14
 -14  14   4    0.80    0.16
 -14   4  14    0.60    0.16
   4  14 -14    1.05    0.17
  -4  14  14    0.50    0.18
   4 -14  14    0.70    0.19
  14 -14  -4    0.81    0.15
 -14  -4  14    0.52    0.15
 -14  14  -4    0.94    0.17
  14  14   4    0.71    0.17
  14   4  14    0.46    0.14
  -4 -14  14    0.46    0.17
  14  14   4    0.69    0.16
   4  14  14    0.56    0.17
 -14  -4  14    0.54    0.15
  14   4  14    0.55    0.16
  -4  14 -14    0.77    0.16
 -14 -14   4    0.70    0.16
 -14  14   6   32.37    1.05
  14 -14   6   32.51    1.06
   6  14 -14   32.15    1.02
 -14   6  14   31.04    1.06
   6 -14  14   34.16    1.16
  14  -6  14   31.67    1.12
  -6  14  14   31.72    1.10
 -14  14   6   31.13    0.99
 -14   6  14   31.72    1.06
  -6  14 -14   33.16    1.11
 -14  -6  14   34.27    1.16
   6  14  14   30.40    1.09
  14  14   6   32.07    1.09
  14   6  14   33.05    1.07
  14  14   6   29.93    1.03
 -14  14  -6   33.06    1.09
  14   6  14   34.09    1.10
  -6 -14  14   32.22    1.13
 -14 -14   6   33.16    1.10
  14  -8  14    5.54    0.41
 -14   8  14    5.36    0.38
 -14  14   8    5.57    0.38
   8 -14  14    5.61    0.40
  14  14  -8    5.04    0.32
  -8  14  14    5.77    0.41
   8  14 -14    4.71    0.32
  14 -14   8    5.63    0.38
 -14  -8  14    5.41    0.41
  -8  14 -14    5.60    0.39
   8  14  14    4.86    0.38
  14  -8 -14    5.49    0.34
 -14 -14   8    5.49    0.38
  14   8  14    4.91    0.36
 -14  14  -8    5.82    0.40
  14  14   8    5.99    0.40
  -8 -14  14    5.18    0.39
  14   8  14    5.70    0.37
 -10  14  14   24.25    0.93
  10 -14  14   23.01    0.92
 -14  14  10   25.19    0.91
 -14  10  14   22.50    0.88
  14 -14  10   23.81    0.90
  14 -10  14   23.05    0.92
 -14  14 -10   23.95    0.93
  14 -10 -14   25.19    0.85
 -10 -14  14   23.62    0.94
  14  14  10   23.79    0.92
 -14 -14  10   23.43    0.92
  14  10  14   24.14    0.92
 -10  14 -14   23.85    0.93
  10  14  14   24.37    0.93
  14  10  14   24.36    0.88
 -14 -10  14   24.62    0.96
  12 -14  14    1.14    0.23
  14 -12  14    1.79    0.26
 -12  14  14    1.08    0.21
 -14  12  14    1.13    0.21
 -14  14  12    1.43    0.23
  14 -14  12    1.58    0.24
 -12 -14  14    1.46    0.25
 -14  14 -12    1.42    0.24
  14  14  12    1.60    0.26
  14  12  14    1.09    0.23
  12  14  14    1.25    0.24
 -12  14 -14    1.51    0.24
 -14 -14  12    1.42    0.25
 -14 -12  14    1.49    0.25
 -14  14  14   32.55    1.14
  14 -14  14   30.98    1.15
 -14 -14  14   32.34    1.18
  14  14  14   29.02    1.12
 -14  14 -14   32.81    1.18
  -1  15   1   -0.03    0.07
   1  15  -1    0.22    0.09
  15  -1   1   -0.05    0.07
  -1 -15  -1    0.06    0.04
  -1   1  15   -0.01    0.08
  15   1  -1   -0.07    0.06
   1 -15   1    0.22    0.06
   1  -1  15    0.06    0.06
  -1   1  15    0.14    0.07
   1  15  -1    0.04    0.07
  -1  15   1    0.04    0.08
   1  -1  15    0.08    0.10
  15   1   1   -0.05    0.07
   1  15   1    0.06    0.07
   1   1  15    0.02    0.06
  -1  -1  15    0.00    0.08
   1 -15  -1   -0.02    0.04
  -1  15  -1    0.07    0.07
  -1 -15   1    0.05    0.05
  15  -1  -1    0.19    0.09
  -1  15  -1    0.08    0.09
  -1  -1  15    0.01    0.06
   1   1  15    0.12    0.09
   1  15   1    0.13    0.08
   3  -1  15    5.19    0.25
  -1  15   3    4.71    0.30
   1  15  -3    5.56    0.27
  15  -3   1    4.82    0.30
   1  15  -3    5.14    0.31
  -3   1  15    4.54    0.31
   1 -15   3    5.27    0.26
  -3   1  15    4.80    0.27
  15   3  -1    5.09    0.32
   3  -1  15    4.72    0.33
  -1  15   3    5.34    0.31
  -1  15  -3    4.44    0.30
  -1 -15   3    4.80    0.25
  -3  -1  15    4.18    0.30
  -3  -1  15    4.79    0.25
   3   1  15    4.90    0.27
  15  -3  -1    4.98    0.31
   3   1  15    4.63    0.32
  -1  15  -3    4.97    0.25
   1  15   3    5.10    0.31
  15   3   1    5.00    0.32
 -15   5   1    3.33    0.25
  15  -5   1    2.87    0.24
  -1  15   5    3.09    0.25
  -5   1  15    3.07    0.22
  15   5  -1    3.40    0.27
   1 -15   5    3.56    0.23
  -5   1  15    3.63    0.28
   1  15  -5    3.58    0.20
   5  -1  15    2.81    0.26
   5  -1  15    3.63    0.22
   1  15  -5    3.54    0.26
  -5  -1  15    3.22    0.23
   1  15   5    3.66    0.28
  -1 -15   5    3.06    0.22
  15  -5  -1    3.42    0.26
  -1  15  -5    3.53    0.26
  -1  15  -5    3.51    0.19
   5   1  15    3.57    0.28
   5   1  15    3.20    0.22
  -5  -1  15    2.89    0.25
  15   5   1    3.42    0.26
  15   7  -1    0.09    0.09
  15  -7   1    1.00    0.16
   7  -1  15    0.29    0.09
  -7   1  15    0.00    0.07
  -1  15   7    0.31    0.12
 -15   7   1    0.39    0.09
   7  -1  15    0.16    0.11
  -7   1  15    0.05    0.08
 -15   7   1    0.17    0.09
   1 -15   7    0.12    0.09
   1  15  -7    0.25    0.11
  -7  -1  15    0.07    0.09
  -1 -15   7    0.24    0.10
   7   1  15    0.09    0.11
 -15   7  -1    0.30    0.10
  -7  -1  15    0.24    0.10
  15  -7  -1    0.19    0.10
  -1  15  -7    0.11    0.10
   1  15   7    0.30    0.12
  15   7   1    0.07    0.09
   7   1  15    0.10    0.09
   1 -15   9    4.00    0.29
  -9   1  15    4.11    0.30
 -15   9   1    3.74    0.27
  15  -9   1    3.53    0.28
  -1  15   9    4.22    0.33
  -9   1  15    4.24    0.28
   9  -1  15    4.59    0.33
   1  15  -9    4.08    0.30
   9  -1  15    3.80    0.25
 -15   9   1    4.13    0.27
  15   9  -1    4.50    0.32
 -15   9  -1    3.71    0.26
  -1 -15   9    3.91    0.28
   9   1  15    3.54    0.29
   9   1  15    4.37    0.28
   1  15   9    4.08    0.32
  -9  -1  15    3.76    0.27
  15   9   1    4.45    0.30
 -15   9  -1    3.91    0.27
  15  -9  -1    4.12    0.28
  -1  15  -9    3.88    0.30
  -9  -1  15    4.22    0.31
 -11   1  15    1.78    0.20
  11  -1  15    1.21    0.16
  15  11  -1    1.54    0.21
  15 -11   1    1.36    0.19
 -15  11   1    1.48    0.18
 -15  11   1    1.47    0.18
   1 -15  11    1.48    0.21
 -11   1  15    1.31    0.19
  -1  15  11    1.98    0.25
  11  -1  15    1.53    0.21
   1  15 -11    1.18    0.19
  -1 -15  11    1.65    0.20
  15 -11  -1    1.70    0.20
  -1  15 -11    1.76    0.21
 -11  -1  15    1.44    0.18
  11   1  15    1.43    0.20
  11   1  15    1.79    0.19
 -11  -1  15    1.95    0.22
 -15  11  -1    1.34    0.18
   1  15  11    1.71    0.23
 -15  11  -1    1.57    0.19
  15  11   1    1.29    0.19
   1 -15  13    0.04    0.11
  -1  15  13   -0.10    0.11
 -15  13   1   -0.02    0.09
 -13   1  15    0.07    0.10
 -13   1  15    0.07    0.10
  13  -1  15   -0.09    0.09
  15  13  -1    0.02    0.10
  13  -1  15    0.11    0.11
 -15  13   1    0.00    0.10
  15 -13   1   -0.03    0.10
   1  15 -13   -0.07    0.10
  -1  15 -13   -0.02    0.12
  13   1  15    0.01    0.11
  13   1  15    0.01    0.10
  15 -13  -1   -0.18    0.09
 -15  13  -1   -0.08    0.09
 -15  13  -1   -0.07    0.08
 -13  -1  15   -0.09    0.09
   1  15  13   -0.09    0.12
 -13  -1  15   -0.08    0.07
  15  13   1   -0.05    0.10
  -1 -15  13    0.03    0.11
  -1   3  15    4.53    0.27
  -3  15   1    6.23    0.33
   1  -3  15    4.78    0.33
  -1   3  15    4.47    0.30
  15  -1   3    4.64    0.31
  -3 -15  -1    5.91    0.22
   3  15  -1    4.75    0.27
  -3  15   1    4.37    0.27
   3  15  -1    4.64    0.29
   1  -3  15    5.11    0.23
  15   1  -3    5.60    0.33
   3 -15   1    4.34    0.23
   1   3  15    4.63    0.28
  -3  15  -1    4.90    0.31
   3 -15  -1    4.70    0.21
  -3 -15   1    5.00    0.23
  -1  -3  15    4.72    0.32
  -3  15  -1    4.42    0.25
   3  15   1    5.00    0.29
  15  -1  -3    5.18    0.31
   1   3  15    4.88    0.31
  -1  -3  15    4.70    0.23
   3  -3  15    0.04    0.06
  15  -3   3   -0.09    0.08
  15   3  -3   -0.04    0.06
   3 -15   3   -0.03    0.06
  -3  15   3    0.03    0.07
  -3  15   3    0.08    0.09
   3  15  -3    0.01    0.07
   3  -3  15    0.02    0.08
  -3   3  15    0.03    0.07
   3  15  -3   -0.07    0.06
  -3   3  15    0.19    0.09
 -15   3   3    0.10    0.08
  15  -3  -3   -0.01    0.07
   3   3  15   -0.04    0.08
  -3  15  -3   -0.09    0.07
  15   3   3    0.06    0.08
  -3  -3  15    0.02    0.09
   3   3  15    0.20    0.09
  -3  15  -3   -0.01    0.06
   3  15   3   -0.02    0.08
  -3  -3  15   -0.05    0.06
  -3 -15   3    0.03    0.05
   3  15  -5    0.39    0.08
   5  -3  15    0.28    0.12
  15   5  -3    0.24    0.10
 -15   5   3    0.24    0.10
  -3  15   5    0.20    0.10
  15  -5   3    0.31    0.12
   5  -3  15    0.36    0.08
   3 -15   5    0.43    0.11
  -5   3  15    0.20    0.09
   3  15  -5    0.30    0.11
  -5   3  15    0.28    0.10
  -3  15   5    0.52    0.11
  15   5   3    0.22    0.10
  -3  15  -5    0.26    0.11
   5   3  15    0.19    0.09
   3  15   5    0.29    0.12
  -3  15  -5    0.33    0.07
  15  -5  -3    0.55    0.13
  -5  -3  15    0.30    0.09
  -5  -3  15    0.30    0.11
   5   3  15    0.40    0.12
  -3 -15   5    0.37    0.09
  -3  15   7    0.30    0.12
  15  -7   3    0.34    0.13
   3 -15   7    0.38    0.11
   3  15  -7    0.33    0.08
 -15   7   3    0.29    0.11
 -15   7   3    0.25    0.08
   7  -3  15    0.27    0.08
  15   7  -3    0.59    0.14
  -7   3  15    0.10    0.09
   3  15  -7    0.37    0.11
  -7   3  15    0.32    0.11
   7  -3  15    0.44    0.15
   7   3  15    0.35    0.12
  -7  -3  15    0.42    0.10
  -7  -3  15    0.31    0.13
  15  -7  -3    0.19    0.10
  -3  15  -7    0.37    0.13
   7   3  15    0.31    0.10
   3  15   7    0.39    0.13
  15   7   3    0.36    0.12
  -3 -15   7    0.33    0.10
   3 -15   9    0.29    0.11
 -15   9   3    0.62    0.12
  15  -9   3    0.24    0.13
  -9   3  15    0.51    0.13
  -9   3  15    0.71    0.14
   9  -3  15    0.43    0.11
   3  15  -9    0.64    0.14
  15   9  -3    0.50    0.15
 -15   9   3    0.58    0.13
  -3  15   9    0.52    0.16
   9  -3  15    0.58    0.15
 -15   9  -3    0.67    0.14
  15   9   3    0.62    0.14
  -3 -15   9    0.57    0.13
  -3  15  -9    0.84    0.16
  15  -9  -3    0.53    0.13
   9   3  15    0.65    0.16
   9   3  15    0.92    0.15
  -9  -3  15    0.47    0.12
   3  15   9    0.58    0.16
  -9  -3  15    0.41    0.12
   3 -15  11    0.07    0.11
 -15  11   3    0.05    0.08
  11  -3  15   -0.02    0.09
  15 -11   3    0.02    0.11
   3  15 -11   -0.02    0.09
 -11   3  15    0.09    0.09
 -11   3  15   -0.06    0.09
  11  -3  15    0.04    0.08
 -15  11   3    0.13    0.10
  15  11  -3    0.16    0.11
  -3  15  11    0.00    0.10
 -11  -3  15   -0.01    0.08
 -11  -3  15    0.21    0.11
  -3 -15  11    0.09    0.10
  11   3  15   -0.06    0.09
  15  11   3    0.00    0.09
   3  15  11    0.39    0.16
 -15  11  -3    0.03    0.08
  15 -11  -3    0.05    0.09
  11   3  15    0.07    0.11
 -15  11  -3   -0.03    0.09
  -3  15 -11    0.11    0.10
 -15  13   3    0.27    0.12
   3 -15  13    0.32    0.14
  13  -3  15    0.52    0.12
  15 -13   3    0.37    0.15
   3  15 -13    0.17    0.12
 -15  13   3    0.48    0.13
  -3  15  13    0.06    0.13
  15  13  -3    0.32    0.14
 -13   3  15    0.31    0.14
  13  -3  15    0.37    0.15
 -13   3  15    0.31    0.12
  15 -13  -3    0.29    0.13
  13   3  15    0.38    0.14
 -15  13  -3    0.36    0.14
  -3 -15  13    0.50    0.16
 -13  -3  15    0.26    0.13
  15  13   3    0.57    0.14
 -13  -3  15    0.59    0.17
  -3  15 -13    0.52    0.15
  15  13   3    0.45    0.15
 -15  13  -3    0.29    0.13
  13   3  15    0.63    0.17
   3  15  13    0.49    0.18
 -15   1   5    3.11    0.25
   1  -5  15    3.56    0.17
   1  -5  15    2.89    0.27
  -5  15   1    3.34    0.25
  15   1  -5    3.81    0.28
   5  15  -1    3.59    0.24
   5 -15   1    3.34    0.20
  15  -1   5    3.30    0.27
  -5 -15  -1    3.46    0.19
  -5  15   1    3.28    0.23
  -1   5  15    3.25    0.24
  -1   5  15    3.31    0.25
  -5 -15   1    3.15    0.20
  -5  15  -1    3.22    0.25
  -5  15  -1    3.30    0.21
   5 -15  -1    3.22    0.18
   1   5  15    3.20    0.25
   5  15   1    3.24    0.24
  15   1   5    3.31    0.27
  -1  -5  15    3.22    0.28
  -1  -5  15    3.34    0.18
   1   5  15    3.13    0.25
  15  -1  -5    3.54    0.26
   5 -15   3    0.33    0.09
  15  -3   5    0.29    0.12
  -5  15   3    0.19    0.10
  -3   5  15    0.37    0.11
  15   3  -5    0.33    0.13
 -15   3   5    0.25    0.10
   5  15  -3    0.30    0.10
   5  15  -3    0.43    0.10
  -5  15   3    0.28    0.09
   3  -5  15    0.26    0.11
  -3   5  15    0.27    0.10
   3   5  15    0.28    0.11
  -3  -5  15    0.40    0.13
  -3  -5  15    0.38    0.09
  -5 -15   3    0.23    0.09
  15  -3  -5    0.29    0.11
  15   3   5    0.09    0.10
   3   5  15    0.11    0.09
   5  15   3    0.42    0.11
  -5  15  -3    0.24    0.08
  -5  15  -3    0.24    0.10
  -5   5  15    0.00    0.07
  -5  15   5    0.02    0.08
   5  -5  15   -0.02    0.08
  15   5  -5   -0.06    0.07
 -15   5   5   -0.11    0.08
  -5  15   5    0.02    0.07
   5  15  -5    0.04    0.07
  15  -5   5   -0.11    0.09
   5 -15   5    0.19    0.10
  -5   5  15    0.00    0.07
   5  15  -5    0.02    0.08
  -5  -5  15   -0.07    0.06
  -5  15  -5   -0.06    0.07
   5   5  15    0.08    0.09
   5  15   5   -0.02    0.08
   5   5  15   -0.04    0.08
  -5 -15   5    0.00    0.06
  15  -5  -5   -0.01    0.07
  -5  -5  15    0.13    0.11
  15   5   5    0.04    0.09
   7  -5  15    2.31    0.24
  15  -7   5    2.06    0.22
 -15   7   5    2.28    0.17
 -15   7   5    2.23    0.21
  15   7  -5    2.13    0.22
  -5  15   7    1.56    0.20
   5 -15   7    2.84    0.24
  -7   5  15    2.10    0.20
   5  15  -7    1.94    0.16
  -7   5  15    1.91    0.20
  -5  15   7    2.85    0.23
   5  15  -7    1.90    0.20
  15  -7  -5    2.59    0.22
  -7  -5  15    2.44    0.25
  -5 -15   7    2.12    0.20
  15   7   5    2.27    0.23
  -5  15  -7    2.20    0.23
   7   5  15    2.28    0.22
   7   5  15    2.20    0.22
   5  15   7    1.77    0.21
  -7  -5  15    2.43    0.20
  -9   5  15    0.01    0.09
  15  -9   5   -0.05    0.12
  -5  15   9    0.14    0.12
 -15   9   5    0.05    0.09
   9  -5  15    0.08    0.10
  -9   5  15    0.30    0.12
  15   9  -5   -0.02    0.10
   5  15  -9    0.37    0.12
 -15   9   5    0.04    0.08
   5 -15   9    0.37    0.13
  15   9   5    0.05    0.10
  -9  -5  15   -0.03    0.09
   9   5  15    0.08    0.10
  -9  -5  15    0.12    0.10
  -5 -15   9    0.08    0.09
 -15   9  -5    0.05    0.08
 -15  -9   5    0.08    0.10
  15  -9  -5   -0.04    0.09
  -5  15  -9   -0.05    0.09
   9   5  15    0.07    0.11
   5  15   9   -0.07    0.09
   5 -15  11    1.37    0.21
  11  -5  15    1.13    0.19
  15  11  -5    1.17    0.18
 -11   5  15    0.98    0.16
 -15  11   5    1.42    0.18
  15 -11   5    1.13    0.18
 -15  11   5    1.22    0.16
 -11   5  15    1.16    0.18
   5  15 -11    0.91    0.17
  -5  15  11    1.17    0.20
  15  11   5    1.45    0.19
  -5  15 -11    1.24    0.19
  15 -11  -5    0.95    0.16
 -11  -5  15    1.64    0.19
  -5 -15  11    1.16    0.19
  11   5  15    0.96    0.17
   5  15  11    0.98    0.20
 -11  -5  15    0.99    0.18
 -15  11  -5    1.04    0.18
 -15 -11   5    0.93    0.17
  15  11   5    1.27    0.20
  11   5  15    1.04    0.18
 -13   5  15    1.38    0.20
  -5  15  13    1.17    0.21
 -15  13   5    1.34    0.17
  15 -13   5    1.10    0.20
 -13   5  15    1.11    0.18
   5  15 -13    1.39    0.19
   5 -15  13    1.18    0.20
  13  -5  15    1.42    0.23
 -15  13   5    1.41    0.20
 -15  13  -5    1.59    0.21
  15 -13  -5    1.14    0.17
  13   5  15    1.27    0.20
 -13  -5  15    1.27    0.20
  -5  15 -13    0.82    0.18
   5  15  13    1.42    0.23
  -5 -15  13    1.40    0.21
  13   5  15    1.18    0.21
  15  13   5    1.52    0.21
 -13  -5  15    1.41    0.21
 -15 -13   5    1.01    0.18
  15  13   5    1.62    0.24
 -15   1   7    0.13    0.10
   7 -15   1    0.10    0.07
  15  -1   7    0.14    0.11
   7  15  -1    0.15    0.09
  -7  15   1    0.11    0.08
   1   7 -15    0.14    0.09
  15   1  -7    0.06    0.09
   1  -7  15    0.27    0.12
  -1   7  15    0.15    0.10
  -1   7  15    0.19    0.09
  -7  15   1    0.18    0.10
   7  15   1    0.14    0.10
  15   1   7    0.15    0.11
  -1   7 -15    0.41    0.11
  -1  -7  15    0.04    0.09
  15  -1  -7    0.28    0.12
  -7 -15   1    0.26    0.08
   7 -15  -1    0.23    0.08
   1   7  15    0.37    0.12
  -7  15  -1    0.22    0.11
   1   7  15    0.06    0.08
  -7  15  -1    0.20    0.08
   7  15   1    0.10    0.07
  15  -3   7    0.35    0.13
  15   3  -7    0.39    0.12
 -15   3   7    0.45    0.12
   3   7 -15    0.29    0.10
   3  -7  15    0.34    0.13
  -3   7  15    0.40    0.10
   7  15  -3    0.50    0.11
  -3   7  15    0.20    0.10
   7 -15   3    0.40    0.10
  -7  15   3    0.41    0.12
  -7  15   3    0.22    0.10
  15   3   7    0.33    0.12
  -7 -15   3    0.33    0.10
  15  -3  -7    0.18    0.11
 -15  -3   7    0.34    0.11
  -7  15  -3    0.28    0.11
   7  15   3    0.43    0.13
  -3   7 -15    0.37    0.12
  -3  -7  15    0.21    0.12
   7  15   3    0.27    0.08
   3   7  15    0.42    0.11
   3   7  15    0.41    0.13
  -7  15  -3    0.38    0.09
 -15   5   7    2.14    0.22
   7 -15   5    2.18    0.20
   5  -7  15    2.34    0.26
   5   7 -15    1.93    0.18
  -5   7  15    2.47    0.20
  -7  15   5    2.52    0.23
  15  -5   7    2.14    0.24
   7  15  -5    2.72    0.20
   7  15  -5    2.29    0.21
  -5   7  15    2.06    0.22
  -7  15   5    1.94    0.20
 -15  -5   7    2.29    0.23
  -7 -15   5    2.41    0.20
  -5  -7  15    2.02    0.24
  -7  15  -5    2.35    0.23
  15  -5  -7    1.94    0.21
  -5  -7  15    2.20    0.18
   7  15   5    2.33    0.23
   5   7  15    2.19    0.21
  15   5   7    2.02    0.22
   5   7  15    2.36    0.23
  15  -7   7    0.19    0.12
   7  -7  15    0.02    0.11
  -7  15   7    0.00    0.08
   7  15  -7    0.00    0.08
  -7   7  15    0.04    0.08
   7  15  -7    0.10    0.08
  -7   7  15    0.01    0.10
  -7  15   7    0.09    0.11
 -15   7   7    0.02    0.07
   7 -15   7    0.08    0.09
  -7  -7  15    0.01    0.08
  15  -7  -7   -0.03    0.08
 -15  -7   7   -0.12    0.06
  15   7   7   -0.03    0.09
   7   7  15   -0.04    0.09
  -7  15  -7    0.14    0.11
   7  15   7   -0.02    0.08
  15   7   7    0.05    0.09
  -7 -15   7   -0.04    0.07
   7   7  15    0.05    0.09
  -7  -7  15   -0.03    0.10
  -7  15   9    0.48    0.16
 -15   9   7    0.31    0.13
  -9   7  15    0.27    0.10
   9  -7  15    0.29    0.14
   7 -15   9    0.34    0.13
  -7  15   9    0.48    0.12
  -9   7  15    0.19    0.12
   7  15  -9    0.34    0.12
  15  -9   7    0.36    0.14
  15   9   7    0.24    0.12
   9   7  15    0.35    0.14
  15   9   7    0.40    0.14
   7  15   9    0.23    0.14
  -9  -7  15    0.68    0.17
   9   7  15    0.28    0.13
  -9  -7  15    0.24    0.10
  15  -9  -7    0.32    0.11
 -15   9  -7    0.17    0.12
 -15  -9   7    0.29    0.12
  -7  15  -9    0.16    0.11
  -7 -15   9    0.72    0.14
 -15  11   7    0.03    0.10
 -11   7  15   -0.05    0.07
 -11   7  15   -0.09    0.10
  -7  15  11    0.01    0.09
  -7  15  11    0.29    0.14
  15 -11   7    0.00    0.10
   7  15 -11    0.00    0.10
   7 -15  11    0.04    0.11
  11  -7  15    0.14    0.12
  11   7  15   -0.07    0.11
 -11  -7  15   -0.13    0.09
  15  11   7    0.08    0.11
 -15 -11   7    0.05    0.10
  -7 -15  11   -0.01    0.10
  15  11   7    0.08    0.12
   7  15  11   -0.10    0.10
 -15  11  -7    0.15    0.12
  15 -11  -7    0.14    0.10
  11   7  15    0.14    0.10
  -7  15 -11    0.06    0.12
  15 -13   7   -0.23    0.10
  -7  15  13   -0.08    0.09
   7  15 -13   -0.17    0.09
 -15  13   7   -0.05    0.09
 -13   7  15    0.09    0.10
   7 -15  13   -0.01    0.12
  13  -7  15   -0.18    0.11
 -13   7  15   -0.04    0.12
  -7  15 -13    0.11    0.11
 -15 -13   7    0.06    0.09
  15  13   7    0.01    0.11
  13   7  15   -0.03    0.13
   7  15  13    0.08    0.12
  13   7  15    0.14    0.12
  -7 -15  13    0.02    0.11
  15 -13  -7    0.04    0.10
 -15  13  -7   -0.19    0.09
  15  13   7    0.10    0.12
 -13  -7  15    0.07    0.12
  -9  15   1    4.31    0.26
   1  -9  15    4.30    0.33
 -15   1   9    3.86    0.29
  -1   9  15    4.25    0.31
  -1   9  15    4.07    0.24
 -15   1   9    3.95    0.29
   9 -15   1    4.34    0.25
   1   9 -15    3.75    0.27
   9  15  -1    4.63    0.29
  -9  15   1    3.90    0.28
  15  -1   9    3.79    0.31
  -1  -9  15    4.24    0.33
 -15  -1   9    3.51    0.28
  -9  15  -1    3.84    0.29
  -1   9 -15    3.73    0.28
   9  15   1    3.98    0.28
   1   9  15    4.46    0.25
  15  -1  -9    4.01    0.29
  -9 -15   1    3.95    0.25
  -9  15  -1    3.63    0.24
   9  15   1    4.39    0.26
 -15  -1   9    4.34    0.31
   9 -15  -1    4.04    0.23
  15   1   9    4.01    0.31
   1   9  15    4.18    0.31
   9 -15   3    0.54    0.12
  -9  15   3    0.62    0.13
   9  15  -3    0.48    0.12
   3  -9  15    0.75    0.17
  -9  15   3    0.54    0.12
  15  -3   9    0.83    0.17
 -15   3   9    0.41    0.14
  -3   9  15    0.40    0.09
  -3   9  15    0.45    0.13
   3   9 -15    0.41    0.12
  -3   9 -15    0.64    0.14
  -9 -15   3    0.41    0.11
  15  -3  -9    0.45    0.13
   9  15   3    0.67    0.15
   3   9  15    0.75    0.16
 -15  -3   9    0.54    0.14
   9  15   3    0.70    0.12
   3   9  15    0.66    0.12
  -9  15  -3    0.54    0.10
  15   3   9    0.47    0.15
  -3  -9  15    0.42    0.15
  -9  15  -3    0.24    0.12
   9  15  -5   -0.07    0.07
  -9  15   5    0.01    0.08
  -5   9  15    0.10    0.08
   9  15  -5    0.08    0.09
  15  -5   9   -0.14    0.10
   5   9 -15   -0.04    0.08
   5  -9  15    0.14    0.12
 -15   5   9    0.03    0.09
   9 -15   5    0.10    0.09
  -5   9  15    0.04    0.10
  -9  15   5    0.20    0.10
   5   9  15    0.33    0.13
  -9 -15   5    0.06    0.09
  15   5   9    0.02    0.12
  15   5   9   -0.03    0.10
  -5  -9  15   -0.01    0.10
  15  -5  -9    0.02    0.08
  -5   9 -15    0.14    0.11
   5   9  15    0.08    0.09
 -15  -5   9   -0.11    0.09
   9  15   5    0.15    0.11
  -9  15  -5    0.13    0.12
 -15   7   9    0.24    0.11
   9 -15   7    0.58    0.14
   7   9 -15    0.44    0.11
  -9  15   7    0.30    0.11
   7  -9  15    0.54    0.16
  15  -7   9    0.37    0.15
  -7   9  15    0.55    0.15
  -9  15   7    0.42    0.14
   9  15  -7    0.24    0.12
  -7   9  15    0.47    0.11
   7   9  15    0.50    0.16
  15  -7  -9    0.32    0.13
  -9 -15   7    0.58    0.15
  -7   9 -15    0.72    0.16
  15   7   9    0.46    0.14
  -9  15  -7    0.54    0.15
   7   9  15    0.48    0.13
 -15  -7   9    0.43    0.15
  15   7   9    0.47    0.14
   9  15   7    0.52    0.15
  -7  -9  15    0.58    0.17
  -9  15   9   -0.02    0.10
  -9   9  15   -0.01    0.09
   9  15  -9   -0.09    0.08
  -9  15   9    0.03    0.08
 -15   9   9    0.00    0.10
   9  -9  15   -0.04    0.11
  -9   9  15   -0.18    0.07
   9 -15   9    0.05    0.10
  15  -9   9   -0.06    0.11
 -15  -9   9   -0.05    0.09
  -9  -9  15    0.05    0.10
   9  15   9   -0.04    0.10
   9   9  15   -0.05    0.11
  15  -9  -9   -0.03    0.08
  -9 -15   9    0.00    0.10
  15   9   9   -0.06    0.12
  -9  15  -9   -0.19    0.09
  15   9   9   -0.08    0.11
   9   9  15    0.08    0.11
   9  15 -11    0.02    0.10
   9 -15  11    0.02    0.12
 -15  11   9    0.34    0.13
  -9  15  11    0.10    0.13
 -11   9  15    0.18    0.13
  -9  15  11    0.10    0.10
 -11   9  15    0.16    0.10
  11  -9  15    0.10    0.12
  15 -11   9    0.13    0.13
 -15 -11   9    0.12    0.12
  -9 -15  11    0.02    0.12
  15 -11  -9    0.01    0.11
  11   9  15    0.17    0.12
 -11  -9  15    0.02    0.11
  -9  15 -11    0.36    0.14
  15  11   9    0.19    0.13
 -15  11  -9    0.19    0.13
  15  11   9    0.11    0.14
   9  15  11   -0.05    0.10
  11   9  15    0.14    0.12
  15 -13   9   -0.07    0.12
  -9  15  13   -0.03    0.11
   9 -15  13    0.02    0.11
 -13   9  15    0.04    0.11
 -13   9  15    0.08    0.12
  13  -9  15   -0.02    0.11
   9  15 -13    0.15    0.12
 -15  13   9    0.04    0.10
  15  13   9    0.05    0.14
 -15  13  -9    0.13    0.14
   9  15  13    0.17    0.15
  -9  15 -13    0.17    0.14
  13   9  15   -0.04    0.13
 -13  -9  15    0.00    0.11
  -9 -15  13    0.18    0.13
  15  13   9    0.07    0.12
  13   9  15    0.11    0.14
 -15 -13   9    0.18    0.13
   1  11 -15    1.40    0.18
 -11  15   1    1.64    0.20
 -15   1  11    1.71    0.21
  11 -15   1    1.73    0.18
  15  -1  11    1.95    0.24
 -11  15   1    1.37    0.17
  11  15  -1    1.83    0.20
  -1  11  15    1.73    0.22
  11  15  -1    1.19    0.18
   1 -11  15    1.38    0.21
 -15   1  11    1.84    0.21
  15   1  11    1.54    0.19
  15   1  11    1.53    0.21
  11  15   1    1.49    0.20
  -1  11 -15    1.12    0.18
 -11  15  -1    1.86    0.21
  -1 -11  15    1.54    0.23
 -11  15  -1    1.54    0.17
 -15  -1  11    1.71    0.20
 -15  -1  11    1.51    0.20
  11  15   1    1.37    0.17
  11 -15  -1    1.78    0.17
   1  11  15    1.49    0.22
 -15   3  11    0.02    0.08
 -11  15   3    0.02    0.09
 -15   3  11    0.00    0.09
  15  -3  11   -0.03    0.10
 -11  15   3    0.06    0.09
  -3  11  15    0.15    0.11
  11 -15   3   -0.02    0.08
   3 -11  15    0.06    0.12
  11  15  -3    0.01    0.09
   3  11 -15    0.24    0.10
 -11 -15   3    0.05    0.09
  15   3  11    0.10    0.10
 -11  15  -3    0.05    0.08
  -3  11 -15    0.30    0.13
 -11  15  -3    0.05    0.08
  15   3  11    0.00    0.12
  11  15   3    0.05    0.10
 -15  -3  11    0.06    0.09
 -15  -3  11   -0.04    0.10
  11  15   3   -0.13    0.07
  11 -15  -3    0.06    0.08
   3  11  15    0.01    0.11
  -3 -11  15   -0.04    0.10
   5  11 -15    1.25    0.17
 -15   5  11    1.14    0.18
 -11  15   5    0.99    0.15
  -5  11  15    0.93    0.18
  15  -5  11    1.07    0.20
  11 -15   5    1.26    0.18
 -11  15   5    0.94    0.17
   5 -11  15    1.06    0.21
  -5  11 -15    1.10    0.18
  11  15   5    0.99    0.18
  15  -5 -11    0.98    0.17
  15   5  11    1.45    0.20
 -15  -5  11    1.43    0.20
   5  11  15    1.23    0.21
  15   5  11    1.10    0.18
 -11  15  -5    1.13    0.18
  -5 -11  15    1.16    0.21
 -11 -15   5    1.11    0.18
  11 -15   7    0.16    0.12
  11  15  -7    0.08    0.09
 -15   7  11    0.21    0.12
   7 -11  15   -0.11    0.10
 -11  15   7   -0.16    0.09
   7  11 -15   -0.02    0.09
 -11  15   7    0.05    0.08
  -7  11  15    0.21    0.12
  15  -7  11    0.13    0.13
 -11  15  -7   -0.04    0.09
  -7  11 -15   -0.01    0.10
  15   7  11   -0.18    0.10
 -11 -15   7   -0.09    0.10
  -7 -11  15    0.01    0.11
 -15  -7  11    0.19    0.13
  11  15   7   -0.02    0.11
  15   7  11   -0.12    0.09
   7  11  15    0.21    0.14
  15  -7 -11   -0.14    0.10
  11 -15   9    0.03    0.11
  15  -9  11    0.11    0.13
   9 -11  15    0.20    0.13
  -9  11  15    0.09    0.12
 -15   9  11    0.19    0.12
 -11  15   9    0.21    0.11
 -11  15   9    0.20    0.13
  11  15  -9    0.15    0.11
   9  11  15    0.21    0.14
  15   9  11    0.08    0.12
  11  15   9    0.01    0.10
  -9 -11  15    0.24    0.14
 -11  15  -9   -0.02    0.10
 -15  -9  11    0.19    0.13
  15   9  11    0.03    0.11
 -11 -15   9    0.20    0.13
  15  -9 -11    0.22    0.11
  -9  11 -15    0.12    0.11
 -11  15  11    0.18    0.12
 -11  11  15   -0.08    0.11
  11 -11  15   -0.11    0.12
  15 -11  11   -0.08    0.10
  11 -15  11    0.01    0.13
  11  15 -11    0.03    0.10
 -15  11  11   -0.03    0.09
  15 -11 -11    0.02    0.10
  15  11  11   -0.16    0.11
 -11  11 -15   -0.04    0.12
 -11  15 -11   -0.01    0.12
  11  15  11    0.01    0.12
 -11 -15  11   -0.05    0.10
 -15 -11  11    0.22    0.14
  15  11  11   -0.11    0.12
 -11 -11  15   -0.03    0.11
  11  11  15    0.02    0.13
 -13  11  15    0.43    0.17
 -11  15  13    0.74    0.18
  15 -13  11    0.77    0.19
  11 -15  13    0.64    0.19
  13 -11  15    0.67    0.21
 -15  13  11    0.83    0.18
 -15  13 -11    0.46    0.19
 -11  15 -13    0.55    0.18
 -13 -11  15    0.39    0.18
  13  11  15    0.60    0.19
 -15 -13  11    0.55    0.17
  11  15  13    0.86    0.21
 -11 -15  13    0.48    0.17
  15  13  11    0.64    0.19
  15  -1  13    0.02    0.09
   1  13 -15    0.05    0.11
   1 -13  15    0.08    0.12
  13  15  -1    0.05    0.11
 -13  15   1    0.10    0.11
  -1  13  15   -0.03    0.11
  13 -15   1    0.20    0.11
  15  -1  13   -0.08    0.10
 -15   1  13    0.00    0.09
 -13  15   1    0.00    0.08
 -15   1  13   -0.06    0.10
  13  15  -1    0.02    0.09
 -13  15  -1   -0.23    0.08
  13  15   1    0.04    0.10
  13  15   1   -0.10    0.10
 -15  -1  13   -0.03    0.11
  15   1  13   -0.13    0.09
 -15  -1  13    0.01    0.10
  15   1  13   -0.12    0.09
 -13  15  -1   -0.12    0.09
  13 -15  -1   -0.11    0.09
   1  13  15    0.24    0.14
  -1 -13  15    0.08    0.12
  -1  13 -15   -0.03    0.10
  13 -15   3    0.36    0.14
 -13  15   3    0.38    0.14
  -3  13  15    0.29    0.14
  15  -3  13    0.35    0.15
 -15   3  13    0.46    0.14
  15  -3  13    0.53    0.13
   3 -13  15    0.50    0.17
  13  15  -3    0.32    0.13
 -15   3  13    0.31    0.14
   3  13 -15    0.73    0.15
 -13  15   3    0.40    0.13
  15   3  13    0.52    0.14
   3  13  15    0.48    0.16
  -3 -13  15    0.56    0.17
 -15  -3  13    0.48    0.16
 -15  -3  13    0.48    0.15
 -13  15  -3    0.32    0.13
  13 -15  -3    0.35    0.12
  15   3  13    0.26    0.15
  13  15   3    0.37    0.13
  13  15   3    0.35    0.15
 -13 -15   3    0.22    0.13
  -3  13 -15    0.30    0.14
 -13  15  -3    0.36    0.11
   5 -13  15    1.77    0.25
  -5  13  15    1.40    0.22
 -15   5  13    1.06    0.20
   5  13 -15    1.38    0.19
 -13  15   5    1.23    0.18
 -15   5  13    1.14    0.18
  15  -5  13    0.63    0.19
 -13  15   5    1.17    0.17
  13 -15   5    0.95    0.18
 -15  -5  13    1.24    0.21
  13  15   5    0.96    0.17
  15   5  13    1.61    0.22
  -5 -13  15    1.58    0.24
 -13 -15   5    1.14    0.19
   5  13  15    1.44    0.23
  13  15   5    1.33    0.22
  -5  13 -15    1.40    0.21
  15   5  13    1.31    0.21
 -13  15  -5    1.08    0.21
   7  13 -15   -0.08    0.09
 -13  15   7   -0.02    0.09
   7 -13  15   -0.01    0.12
  13  15  -7   -0.09    0.10
  13 -15   7   -0.20    0.09
 -15   7  13   -0.04    0.09
  15  -7  13   -0.02    0.11
  -7  13  15   -0.01    0.11
 -13  15   7   -0.11    0.10
  15   7  13   -0.04    0.13
 -15  -7  13   -0.02    0.11
 -13  15  -7    0.00    0.11
  13  15   7   -0.20    0.11
  -7  13 -15   -0.02    0.11
  -7 -13  15    0.01    0.11
   7  13  15   -0.06    0.11
  15  -7 -13    0.00    0.10
 -13 -15   7    0.14    0.11
  15   7  13    0.01    0.10
 -15   9  13    0.09    0.10
  13  15  -9   -0.02    0.10
  15  -9  13   -0.02    0.13
  13 -15   9   -0.22    0.09
 -13  15   9    0.01    0.10
  -9  13  15    0.17    0.12
   9 -13  15    0.37    0.17
  15   9  13    0.04    0.15
  -9 -13  15    0.20    0.16
  -9  13 -15   -0.08    0.10
  15  -9 -13    0.17    0.13
 -13  15  -9   -0.09    0.12
   9  13  15    0.21    0.15
 -15  -9  13    0.04    0.13
  15   9  13    0.08    0.12
  13  15   9    0.04    0.12
 -13 -15   9    0.06    0.13
  15 -11  13    0.47    0.18
 -11  13  15    0.52    0.16
  13 -15  11    0.48    0.17
 -15  11  13    0.45    0.16
  11 -13  15    0.70    0.20
 -13  15  11    0.53    0.17
  15  11  13    0.22    0.14
  13  15  11    0.50    0.18
 -13  15 -11    0.41    0.16
  11  13  15    0.92    0.21
  15  11  13    0.75    0.21
 -15 -11  13    0.41    0.17
 -13 -15  11    0.35    0.17
 -11 -13  15    0.84    0.21
 -11  13 -15    0.50    0.17
 -15  13  13    0.02    0.11
  15 -13  13   -0.19    0.14
  13 -13  15   -0.18    0.14
  13 -15  13    0.08    0.15
 -13  13  15   -0.05    0.12
 -13  15  13    0.16    0.14
 -13 -15  13   -0.08    0.14
 -13  15 -13   -0.02    0.14
 -13  13 -15    0.07    0.12
 -15 -13  13   -0.24    0.11
 -15  13 -13    0.08    0.14
  13  13  15   -0.14    0.15
 -13 -13  15    0.07    0.15
  15  13  13   -0.20    0.15
  13  15  13    0.01    0.16
   1 -15  15   -0.08    0.10
 -15  15   1   -0.05    0.09
 -15   1  15   -0.04    0.08
  -1  15  15   -0.12    0.11
  15  -1  15   -0.12    0.08
 -15  15   1   -0.11    0.08
   1  15 -15   -0.11    0.11
 -15   1  15    0.00    0.11
  15 -15   1   -0.14    0.11
  15  15  -1    0.07    0.13
  15  -1  15   -0.02    0.11
  15  15  -1    0.13    0.12
 -15  -1  15    0.01    0.11
  -1  15 -15   -0.06    0.11
  15   1  15    0.04    0.11
  15   1  15   -0.09    0.11
 -15  15  -1    0.15    0.12
 -15  15  -1    0.01    0.10
  -1 -15  15   -0.18    0.10
  15  15   1   -0.06    0.11
   1  15  15    0.13    0.14
  15  15   1    0.05    0.11
  15 -15  -1   -0.12    0.10
 -15  -1  15   -0.16    0.08
  15  -3  15   -0.12    0.09
   3  15 -15   -0.08    0.11
  15 -15   3   -0.12    0.10
   3 -15  15   -0.14    0.12
 -15   3  15   -0.07    0.09
 -15  15   3    0.07    0.11
 -15   3  15   -0.03    0.11
 -15  15   3   -0.06    0.10
  -3  15  15    0.01    0.11
  15  15  -3    0.08    0.12
  -3 -15  15    0.01    0.12
  15 -15  -3    0.06    0.11
  15   3  15   -0.10    0.10
  -3  15 -15   -0.08    0.10
 -15  -3  15    0.01    0.10
   3  15  15   -0.03    0.14
  15  15   3   -0.04    0.10
  15  15   3    0.05    0.11
 -15  -3  15   -0.07    0.11
 -15  15  -3    0.09    0.12
  15   3  15   -0.21    0.10
  15  -5  15    0.02    0.13
 -15   5  15   -0.03    0.10
 -15  15   5    0.14    0.12
 -15   5  15    0.01    0.11
   5  15 -15   -0.08    0.10
  15 -15   5    0.06    0.12
  -5  15  15   -0.05    0.11
 -15  15   5   -0.07    0.10
   5 -15  15   -0.14    0.11
  15  15   5   -0.01    0.10
 -15  -5  15    0.17    0.12
  15  15   5   -0.07    0.11
 -15 -15   5    0.06    0.12
  -5  15 -15    0.04    0.12
  -5 -15  15   -0.13    0.13
  15   5  15   -0.04    0.11
   5  15  15   -0.07    0.12
 -15  15  -5   -0.08    0.10
  15   5  15   -0.06    0.11
 -15   7  15   -0.24    0.08
 -15  15   7   -0.17    0.10
 -15   7  15    0.08    0.11
   7 -15  15    0.23    0.16
   7  15 -15    0.01    0.12
  -7  15  15   -0.07    0.12
  15  -7  15    0.08    0.15
  15 -15   7   -0.09    0.13
  -7 -15  15   -0.11    0.12
 -15 -15   7    0.17    0.12
  -7  15 -15    0.05    0.12
 -15  15  -7   -0.06    0.10
 -15  -7  15    0.03    0.11
  15   7  15    0.03    0.12
  15   7  15    0.08    0.14
  15  15   7   -0.01    0.11
   7  15  15    0.00    0.14
  -9  15  15   -0.06    0.13
 -15  15   9   -0.10    0.10
  15  -9  15   -0.06    0.12
 -15   9  15    0.01    0.12
   9 -15  15   -0.02    0.14
  15 -15   9   -0.12    0.13
  15   9  15   -0.04    0.12
  -9  15 -15   -0.05    0.10
 -15 -15   9   -0.13    0.12
 -15  15  -9    0.06    0.13
  15  15   9    0.03    0.12
  15   9  15   -0.07    0.12
  -9 -15  15   -0.01    0.13
  15  -9 -15    0.02    0.12
 -15  -9  15   -0.08    0.10
   9  15  15   -0.01    0.13
 -15  11  15    0.04    0.12
 -15  15  11   -0.07    0.11
  15 -11  15   -0.06    0.14
  15 -15  11   -0.05    0.14
  11 -15  15   -0.08    0.12
 -11  15  15   -0.05    0.12
  15  11  15   -0.07    0.14
 -15 -11  15   -0.15    0.12
 -15  15 -11    0.08    0.15
 -15 -15  11    0.14    0.14
  11  15  15    0.04    0.15
 -11  15 -15    0.08    0.12
 -11 -15  15   -0.13    0.13
  15  15  11   -0.07    0.12
  13 -15  15   -0.20    0.13
  15 -15  13   -0.14    0.15
 -15  13  15   -0.06    0.11
 -13  15  15    0.01    0.14
 -15  15  13    0.15    0.13
  15 -13  15    0.06    0.16
 -15 -13  15   -0.03    0.14
 -13  15 -15   -0.13    0.11
 -13 -15  15    0.05    0.17
 -15 -15  13   -0.04    0.12
 -15  15 -13    0.02    0.12
  15  15  13   -0.05    0.14
  15  13  15    0.21    0.17
  13  15  15   -0.15    0.13
 -15  15  15   -0.02    0.13
  15 -15  15    0.04    0.16
 -15 -15  15   -0.18    0.15
  15  15  15    0.04    0.16
 -15  15 -15   -0.14    0.17
   0  16   0  450.75   10.35
  16   0   0  457.61   10.65
   0  16   0  437.43   10.03
   0 -16   0  456.45   10.45
   0   0  16  439.43   10.67
   0   0  16  442.46    9.98
   2   0  16    0.02    0.08
   0  16   2    0.17    0.10
   0  16  -2    0.25    0.12
  16  -2   0    0.18    0.11
   0 -16   2    0.01    0.07
   0  16  -2    0.29    0.10
   0  16   2    0.24    0.11
  -2   0  16   -0.25    0.09
   2   0  16    0.21    0.13
  16   2   0    0.24    0.11
  -2   0  16   -0.35    0.11
   0 -16   4  153.29    3.67
   4   0  16  144.01    3.81
  16   4   0  147.60    3.78
   0  16  -4  150.67    3.69
   0  16   4  147.10    3.59
  -4   0  16  142.79    3.50
  16  -4   0  147.72    3.76
   4   0  16  147.46    3.49
  -4   0  16  151.47    3.81
   0  16  -4  160.72    3.48
  -6   0  16    0.08    0.09
   6   0  16    0.23    0.12
   0  16  -6    0.15    0.10
   0  16   6    0.08    0.11
   6   0  16    0.22    0.09
  -6   0  16    0.02    0.08
  16  -6   0   -0.04    0.11
   0 -16   6    0.07    0.09
  16   6   0    0.09    0.08
   0  16  -8  227.99    5.44
   8   0  16  223.23    5.61
   0  16   8  223.29    5.34
  -8   0  16  224.93    5.25
  -8   0  16  229.37    5.60
 -16   8   0  232.53    5.29
  16   8   0  231.28    5.61
  16  -8   0  215.97    5.54
 -16   8   0  231.43    5.38
   0 -16   8  232.81    5.55
   8   0  16  220.79    5.21
   0  16  10    0.17    0.14
 -10   0  16    0.21    0.11
 -16  10   0    0.07    0.09
  16 -10   0    0.09    0.11
  16  10   0    0.05    0.10
 -16  10   0    0.14    0.10
  10   0  16    0.05    0.09
  10   0  16    0.19    0.12
 -10   0  16    0.24    0.11
   0  16 -10    0.08    0.10
   0 -16  10    0.16    0.12
  12   0  16   90.92    2.49
  16  12   0   89.48    2.48
   0 -16  12   92.00    2.49
   0  16 -12   90.22    2.41
 -16  12   0   90.10    2.35
   0  16  12   89.25    2.42
  12   0  16   92.41    2.29
 -16  12   0   91.66    2.31
 -12   0  16   90.16    2.48
 -12   0  16   91.11    2.33
  16 -12   0   86.06    2.40
 -16  14   0    0.22    0.12
  14   0  16    0.22    0.15
   0  16 -14    0.13    0.12
 -14   0  16    0.21    0.13
  16  14   0    0.10    0.11
   0  16  14    0.32    0.16
 -16  14   0    0.08    0.10
  16 -14   0    0.06    0.12
  14   0  16    0.14    0.11
   0 -16  14    0.19    0.14
 -14   0  16    0.19    0.11
   0   2  16    0.17    0.09
  16   0  -2    0.11    0.11
  16   0   2   -0.26    0.11
   2 -16   0    0.04    0.06
   0   2  16    0.15    0.11
  -2  16   0   -0.33    0.09
  -2  16   0    0.04    0.10
   2  16   0    0.03    0.10
   0  -2  16    0.24    0.11
   0  -2  16    0.10    0.07
   2  16   0    0.08    0.09
  -2   2  16    1.83    0.18
   2  16  -2    1.73    0.20
  -2   2  16    1.72    0.20
  16  -2   2    1.82    0.21
  16   2  -2    2.03    0.22
   2  -2  16    1.75    0.15
   2 -16   2    1.75    0.15
   2  16  -2    2.00    0.18
   2  -2  16    1.82    0.22
  -2  16   2    2.00    0.20
  -2  16   2    1.83    0.19
  -2  16  -2    1.86    0.22
   2   2  16    2.03    0.22
   2   2  16    1.88    0.18
   2  16   2    1.96    0.20
  -2  -2  16    1.92    0.16
  16   2   2    1.68    0.20
  -2  -2  16    1.38    0.20
  -2 -16   2    1.81    0.15
  16  -2  -2    1.76    0.20
  -2  16  -2    1.68    0.16
  16   4  -2    0.13    0.12
   2  16  -4    0.09    0.10
  -2  16   4    0.01    0.09
  -4   2  16    0.02    0.07
  16  -4   2    0.06    0.10
  -4   2  16    0.16    0.10
  -2  16   4   -0.11    0.10
   2 -16   4    0.06    0.08
   2  16  -4    0.13    0.09
   4  -2  16    0.03    0.07
   4  -2  16    0.14    0.10
  -4  -2  16    0.00    0.07
   4   2  16    0.06    0.07
  -2  16  -4    0.21    0.11
  -2  16  -4    0.02    0.08
   2  16   4   -0.10    0.10
   4   2  16    0.25    0.12
  -2 -16   4   -0.11    0.08
  16   4   2    0.20    0.12
  16  -4  -2   -0.09    0.10
  -4  -2  16    0.09    0.09
  -6   2  16    0.08    0.08
   6  -2  16    0.00    0.07
   2  16  -6    0.02    0.09
 -16   6   2    0.19    0.11
   6  -2  16   -0.03    0.09
   2 -16   6    0.10    0.09
  -2  16   6    0.31    0.14
  -6   2  16    0.20    0.11
  16   6  -2    0.22    0.11
  16  -6   2    0.12    0.10
   6   2  16   -0.04    0.07
  16   6   2    0.15    0.12
  -2  16  -6    0.07    0.10
  -6  -2  16    0.24    0.09
   2  16   6    0.00    0.10
   6   2  16    0.01    0.09
  16  -6  -2    0.04    0.10
  -2 -16   6    0.07    0.08
  -6  -2  16    0.11    0.10
   8  -2  16    1.23    0.19
   2  16  -8    1.06    0.17
   8  -2  16    1.22    0.15
  16   8  -2    1.05    0.19
  16  -8   2    0.84    0.16
  -2  16   8    0.89    0.19
  -8   2  16    1.19    0.17
 -16   8   2    0.88    0.14
 -16   8   2    1.23    0.17
  -8   2  16    1.05    0.16
   2 -16   8    1.04    0.18
  -8  -2  16    1.62    0.20
  -8  -2  16    1.06    0.15
   8   2  16    0.99    0.15
  -2  16  -8    0.93    0.16
  16  -8  -2    1.03    0.18
   2  16   8    0.79    0.19
 -16   8  -2    0.96    0.16
  -2 -16   8    0.73    0.17
  16   8   2    0.93    0.18
   8   2  16    1.11    0.18
 -10   2  16    4.70    0.33
 -16  10   2    4.77    0.31
  16 -10   2    5.10    0.34
  10  -2  16    4.94    0.36
 -16  10   2    5.07    0.30
  10  -2  16    4.57    0.28
  16  10  -2    4.39    0.34
  -2  16  10    5.03    0.36
   2  16 -10    5.03    0.34
 -10   2  16    5.27    0.33
   2 -16  10    4.97    0.34
 -16  10  -2    5.25    0.32
   2  16  10    5.12    0.38
  10   2  16    5.29    0.36
  -2 -16  10    5.34    0.35
 -16  10  -2    4.55    0.32
  16  10   2    4.83    0.34
  -2  16 -10    4.65    0.33
 -10  -2  16    4.80    0.31
  16 -10  -2    4.40    0.31
 -10  -2  16    5.33    0.36
  10   2  16    4.60    0.31
 -12   2  16    0.85    0.17
  16  12  -2    0.96    0.18
   2  16 -12    1.00    0.18
  12  -2  16    0.86    0.18
 -16  12   2    0.92    0.16
  16 -12   2    0.90    0.18
 -16  12   2    0.71    0.15
  -2  16  12    0.58    0.19
 -12   2  16    0.99    0.17
  12  -2  16    0.81    0.14
   2 -16  12    0.39    0.18
  16  12   2    0.87    0.17
   2  16  12    1.15    0.22
  16 -12  -2    0.96    0.18
  -2 -16  12    0.70    0.20
 -12  -2  16    1.08    0.18
  -2  16 -12    1.02    0.19
 -12  -2  16    1.00    0.19
  12   2  16    0.94    0.17
  12   2  16    1.13    0.20
 -16  12  -2    0.87    0.15
 -16  12  -2    0.86    0.16
  -2  16  14    0.18    0.15
 -16  14   2   -0.03    0.10
  16 -14   2    0.01    0.12
 -16  14   2   -0.04    0.10
   2 -16  14   -0.06    0.12
  14  -2  16   -0.05    0.09
  14  -2  16    0.08    0.11
 -14   2  16   -0.14    0.07
   2  16 -14    0.02    0.13
  16  14  -2    0.23    0.13
 -14   2  16    0.15    0.11
   2  16  14    0.21    0.14
  16  14   2    0.03    0.12
  -2 -16  14   -0.01    0.13
  -2  16 -14   -0.06    0.10
  14   2  16    0.00    0.12
 -16  14  -2    0.02    0.11
 -14  -2  16    0.01    0.11
  16  14   2    0.14    0.12
 -16  14  -2   -0.12    0.08
 -14  -2  16    0.01    0.10
  16 -14  -2    0.03    0.13
  14   2  16    0.03    0.11
   0  -4  16  151.28    3.37
   0  -4  16  141.81    3.77
  -4  16   0  139.47    3.43
   0   4  16  150.79    3.50
  16   0  -4  147.45    3.72
   0   4  16  149.23    3.70
  -4  16   0  151.50    3.63
  16   0   4  141.28    3.71
   4 -16   0  144.89    3.54
  -4 -16   0  149.27    3.54
   4  16   0  144.44    3.48
   2  -4  16    0.07    0.12
  16  -2   4    0.17    0.11
  -4  16   2   -0.06    0.08
  16   2  -4    0.08    0.08
   2  -4  16   -0.01    0.06
   4  16  -2    0.19    0.09
   4  16  -2    0.16    0.11
  -4  16   2   -0.13    0.08
  -2   4  16   -0.05    0.09
  -2   4  16    0.04    0.10
   4 -16   2    0.07    0.08
   4  16   2    0.08    0.09
  -4 -16   2    0.11    0.07
  -2  -4  16   -0.28    0.11
  16   2   4   -0.06    0.10
   2   4  16    0.06    0.09
   2   4  16   -0.04    0.09
  -4  16  -2    0.01    0.08
  -4  16  -2    0.17    0.08
  16  -2  -4    0.10    0.09
  -2  -4  16   -0.03    0.06
  -4   4  16  157.28    3.97
  -4  16   4  153.79    3.78
  16   4  -4  162.13    4.03
   4  16  -4  160.44    3.89
   4  16  -4  154.56    3.69
  -4  16   4  165.26    3.90
   4 -16   4  156.40    3.91
 -16   4   4  153.02    3.80
  -4   4  16  162.79    3.78
  16  -4   4  159.14    4.02
   4  -4  16  166.48    4.09
  -4 -16   4  165.55    3.90
   4  16   4  154.69    3.80
   4   4  16  160.88    3.78
  -4  16  -4  157.62    3.63
   4   4  16  162.65    4.01
  -4  -4  16  159.16    3.68
  16  -4  -4  162.62    3.99
  -4  16  -4  151.98    3.90
  16   4   4  160.08    4.01
  -4  -4  16  149.70    4.05
   4 -16   6    0.05    0.09
  -4  16   6    0.17    0.12
  16   6  -4    0.09    0.09
  -6   4  16    0.06    0.09
  -6   4  16    0.17    0.11
 -16   6   4    0.11    0.10
   4  16  -6    0.16    0.08
  -4  16   6    0.14    0.11
  16  -6   4    0.24    0.12
   6  -4  16    0.13    0.12
   4  16  -6    0.13    0.10
   6   4  16    0.26    0.11
   6   4  16    0.21    0.10
  -6  -4  16    0.13    0.12
  -4 -16   6    0.07    0.08
  16   6   4   -0.03    0.11
  -6  -4  16    0.26    0.09
  -4  16  -6    0.19    0.11
   4  16   6    0.43    0.14
  16  -6  -4    0.05    0.10
  16  -8   4  159.17    3.93
  -8   4  16  151.42    3.69
   4 -16   8  151.01    3.88
  -4  16   8  142.57    3.73
   4  16  -8  157.00    3.80
  -8   4  16  152.94    3.88
 -16   8   4  156.78    3.72
 -16   8   4  157.43    3.69
   8  -4  16  148.48    3.95
  16   8  -4  156.68    3.95
  16  -8  -4  157.44    3.87
  16   8   4  153.54    3.90
  -4 -16   8  163.43    3.88
   8   4  16  153.37    3.70
  -8  -4  16  157.03    3.65
  -4  16  -8  153.07    3.83
   8   4  16  151.52    3.90
  -8  -4  16  149.87    3.95
   4  16   8  153.21    3.76
  10  -4  16    0.08    0.11
 -10   4  16    0.22    0.11
 -16  10   4   -0.03    0.08
  16  10  -4    0.18    0.11
 -16  10   4    0.14    0.10
   4  16 -10    0.20    0.13
   4 -16  10    0.02    0.10
  16 -10   4    0.08    0.11
  -4  16  10    0.12    0.11
 -10   4  16    0.03    0.08
  16  10   4    0.01    0.10
  -4 -16  10   -0.05    0.09
  -4  16 -10    0.12    0.12
  10   4  16    0.06    0.10
   4  16  10    0.21    0.13
 -16  10  -4   -0.04    0.08
 -10  -4  16    0.09    0.09
 -10  -4  16    0.01    0.09
  10   4  16    0.12    0.10
  16 -10  -4    0.09    0.11
  16 -12   4  135.40    3.44
 -12   4  16  135.41    3.44
 -12   4  16  127.81    3.28
  -4  16  12  129.30    3.36
   4  16 -12  132.18    3.34
 -16  12   4  137.29    3.27
  12  -4  16  129.78    3.49
  16  12  -4  134.36    3.49
   4 -16  12  131.67    3.47
 -16  12   4  135.12    3.28
  16  12   4  132.22    3.43
  12   4  16  132.27    3.45
  16  12   4  140.26    3.36
 -16  12  -4  134.60    3.37
  16 -12  -4  129.15    3.37
  -4 -16  12  135.68    3.47
 -12  -4  16  127.20    3.48
  -4  16 -12  132.31    3.39
 -12  -4  16  136.08    3.27
   4  16  12  129.90    3.35
  12   4  16  130.65    3.27
  16  14  -4    0.26    0.13
 -16  14   4    0.21    0.12
 -14   4  16    0.38    0.15
  16 -14   4    0.12    0.13
 -16  14   4    0.20    0.11
   4  16 -14    0.10    0.11
   4 -16  14    0.13    0.13
  -4  16  14    0.04    0.13
 -14   4  16    0.33    0.13
  14  -4  16    0.06    0.12
  16  14   4    0.00    0.13
  -4  16 -14    0.08    0.12
  14   4  16   -0.04    0.11
 -14  -4  16   -0.10    0.09
  14   4  16    0.18    0.12
 -14  -4  16    0.08    0.11
   4  16  14    0.11    0.14
 -16  14  -4    0.03    0.12
  -4 -16  14    0.04    0.13
  16 -14  -4    0.04    0.12
  16  14   4    0.12    0.11
   0   6  16    0.14    0.09
   0   6  16    0.03    0.07
  16   0   6    0.18    0.11
  16   0  -6    0.16    0.11
   0  -6  16    0.08    0.09
  -6 -16   0    0.07    0.07
   6 -16   0   -0.02    0.07
   6  16   0    0.01    0.09
  -6  16   0    0.06    0.08
  -6  16   0    0.10    0.09
   2  -6  16    0.10    0.10
   6  16  -2    0.24    0.10
  16  -2   6    0.06    0.10
  -2   6  16    0.14    0.08
 -16   2   6    0.05    0.08
  16   2  -6    0.02    0.09
  -2   6  16    0.08    0.09
  -6  16   2    0.09    0.10
  -6  16   2   -0.03    0.08
   6 -16   2    0.10    0.08
  -6 -16   2    0.07    0.07
  -2  -6  16    0.41    0.13
   2   6  16    0.06    0.09
   2   6  16    0.13    0.10
  -6  16  -2    0.14    0.09
  16  -2  -6    0.13    0.10
  16   2   6    0.13    0.11
  -6  16  -2    0.13    0.07
   6  16   2    0.08    0.09
  -4   6  16    0.15    0.09
   6 -16   4    0.06    0.08
  -6  16   4    0.07    0.10
   4  -6  16    0.26    0.12
  -6  16   4    0.26    0.11
 -16   4   6    0.04    0.08
   6  16  -4    0.14    0.10
  16  -4   6    0.16    0.11
  16   4  -6    0.30    0.12
  -4   6  16    0.09    0.11
   6  16  -4    0.02    0.08
  -6 -16   4    0.19    0.09
   6  16   4    0.22    0.12
   4   6  16    0.15    0.10
  -4  -6  16    0.10    0.07
  16  -4  -6    0.13    0.09
   4   6  16    0.17    0.10
  -4  -6  16    0.16    0.11
  -6  16  -4    0.33    0.12
  16   4   6    0.04    0.11
  16   6  -6    1.30    0.19
  -6   6  16    1.25    0.19
 -16   6   6    1.34    0.18
  -6  16   6    1.07    0.18
   6  -6  16    1.34    0.20
   6 -16   6    0.95    0.16
   6  16  -6    0.95    0.17
  -6  16   6    1.25    0.18
   6  16  -6    0.95    0.13
  -6   6  16    1.02    0.15
  16  -6   6    1.23    0.20
   6  16   6    1.15    0.19
  -6  -6  16    1.48    0.21
   6   6  16    1.03    0.17
  16  -6  -6    1.22    0.17
  16   6   6    0.80    0.17
  -6  16  -6    1.25    0.19
  -6  -6  16    1.26    0.15
   6   6  16    1.12    0.18
  -6 -16   6    1.10    0.16
  -6  16   8    0.06    0.11
  16  -8   6    0.14    0.12
   8  -6  16    0.25    0.12
  -8   6  16    0.16    0.10
   6 -16   8    0.09    0.11
  16   8  -6    0.15    0.12
   6  16  -8    0.06    0.11
 -16   8   6    0.23    0.12
  -8   6  16    0.34    0.13
  -6  16   8    0.19    0.13
   6  16   8    0.12    0.13
  -6  16  -8    0.07    0.11
  16  -8  -6    0.02    0.11
  16   8   6    0.07    0.12
  -8  -6  16    0.29    0.13
   8   6  16    0.23    0.11
  -6 -16   8    0.08    0.11
 -16  -8   6    0.18    0.11
  -8  -6  16    0.20    0.10
   8   6  16    0.14    0.11
  16 -10   6    1.11    0.19
 -16  10   6    1.13    0.18
  10  -6  16    1.30    0.20
   6  16 -10    0.66    0.17
   6 -16  10    1.02    0.19
  16  10  -6    1.32    0.20
  -6  16  10    0.77    0.15
  -6  16  10    0.78    0.17
 -10   6  16    0.92    0.17
 -10   6  16    1.30    0.18
  16 -10  -6    0.50    0.14
 -16  10  -6    0.94    0.17
  -6  16 -10    1.00    0.18
  10   6  16    0.98    0.18
  16  10   6    0.91    0.19
  -6 -16  10    0.85    0.17
  16  10   6    0.96    0.19
  10   6  16    0.89    0.18
 -10  -6  16    1.20    0.17
   6  16  10    0.81    0.18
 -16 -10   6    0.87    0.17
 -10  -6  16    1.10    0.20
   6 -16  12   -0.04    0.12
   6  16 -12    0.02    0.10
  12  -6  16   -0.03    0.10
  16 -12   6    0.34    0.15
 -12   6  16    0.03    0.10
 -12   6  16    0.05    0.10
 -16  12   6    0.22    0.12
  -6  16  12    0.03    0.12
 -12  -6  16    0.09    0.10
   6  16  12   -0.19    0.12
  -6  16 -12    0.34    0.13
  -6 -16  12   -0.10    0.11
 -12  -6  16    0.06    0.10
 -16  12  -6    0.06    0.12
  16  12   6    0.14    0.13
  12   6  16    0.16    0.12
 -16 -12   6    0.17    0.11
  16 -12  -6   -0.04    0.10
  16  12   6    0.03    0.12
  12   6  16    0.10    0.13
  16 -14   6    4.41    0.35
  14  -6  16    4.59    0.37
  -6  16  14    3.78    0.35
 -14   6  16    4.21    0.32
   6  16 -14    4.46    0.33
 -14   6  16    4.47    0.35
 -16  14   6    3.74    0.32
   6 -16  14    3.74    0.35
  14   6  16    4.54    0.34
  -6 -16  14    4.36    0.36
 -14  -6  16    4.30    0.36
  -6  16 -14    4.99    0.37
  16  14   6    4.99    0.38
   6  16  14    4.02    0.35
  16  14   6    4.24    0.34
 -16  14  -6    3.65    0.34
  14   6  16    4.66    0.36
 -16 -14   6    4.74    0.36
   8  16   0  228.15    5.46
  -8 -16   0  224.43    5.45
   8 -16   0  234.50    5.43
  16   0  -8  220.89    5.58
 -16   0   8  231.86    5.34
  -8  16   0  215.17    5.41
  16   0   8  229.55    5.62
   0   8 -16  224.43    5.40
   0   8  16  231.41    5.34
  -8  16   0  229.91    5.20
   8  16   0  220.99    5.26
   0   8  16  229.89    5.49
   0  -8  16  226.35    5.67
  -2   8  16    0.62    0.18
   2   8 -16    1.20    0.16
   2  -8  16    0.98    0.21
   8  16  -2    1.25    0.17
  -2   8  16    0.74    0.15
   8 -16   2    1.15    0.15
 -16   2   8    1.16    0.18
  -8  16   2    1.10    0.16
  -8  16   2    1.14    0.16
  16  -2   8    1.52    0.21
  16   2  -8    1.50    0.20
  -8  16  -2    1.16    0.18
  16   2   8    1.41    0.20
  16  -2  -8    1.28    0.18
   8  16   2    1.04    0.14
   2   8  16    0.70    0.17
  -2   8 -16    1.32    0.19
  -8  16  -2    0.97    0.13
   8  16   2    1.11    0.16
  -8 -16   2    1.41    0.16
   2   8  16    1.00    0.16
  -2  -8  16    0.43    0.20
   8 -16   4  154.79    3.82
   8  16  -4  151.81    3.63
  -8  16   4  148.96    3.77
  -4   8  16  151.12    3.73
   8  16  -4  154.72    3.78
 -16   4   8  152.88    3.73
  -4   8  16  150.94    3.80
   4   8 -16  155.30    3.73
   4  -8  16  150.53    3.98
  -8  16   4  152.49    3.69
  16  -4   8  156.55    3.95
  -4   8 -16  157.23    3.84
  -8  16  -4  156.65    3.83
 -16  -4   8  153.32    3.94
   4   8  16  158.88    3.86
   4   8  16  156.83    3.76
  16  -4  -8  156.55    3.90
  -8 -16   4  157.22    3.84
  16   4   8  152.26    3.93
   8  16   4  154.94    3.73
  -4  -8  16  152.50    3.99
   8 -16   6    0.24    0.12
   8  16  -6    0.10    0.11
   8  16  -6    0.21    0.10
  -8  16   6    0.06    0.11
 -16   6   8    0.37    0.13
  -8  16   6    0.22    0.11
  -6   8  16   -0.02    0.11
  16  -6   8    0.43    0.15
  -6   8  16    0.07    0.09
   6   8 -16    0.16    0.09
   6  -8  16    0.11    0.13
  16   6   8    0.22    0.12
 -16  -6   8    0.04    0.11
   8  16   6    0.52    0.15
  -8  16  -6    0.21    0.11
  -8 -16   6    0.10    0.09
  16   6   8    0.11    0.12
  -6  -8  16    0.24    0.15
   6   8  16    0.07    0.12
  16  -6  -8    0.21    0.12
   6   8  16    0.21    0.11
 -16   8   8  175.56    4.29
   8  16  -8  182.60    4.36
  -8   8  16  180.42    4.32
   8 -16   8  177.31    4.47
  -8  16   8  186.53    4.36
  -8  16   8  170.40    4.30
  -8   8  16  175.13    4.40
   8  -8  16  176.65    4.57
   8  16  -8  176.44    4.15
  16  -8   8  185.09    4.54
  16   8   8  183.94    4.34
  -8  -8  16  178.12    4.59
  -8 -16   8  184.76    4.48
   8   8  16  180.15    4.47
   8   8  16  176.08    4.31
  16   8   8  173.75    4.50
  -8  16  -8  175.76    4.42
 -16  -8   8  181.76    4.55
   8  16   8  176.03    4.34
  16  -8  -8  186.96    4.48
  16 -10   8    0.28    0.14
   8 -16  10    0.30    0.13
 -10   8  16    0.29    0.11
 -10   8  16    0.12    0.12
  -8  16  10    0.17    0.13
   8  16 -10    0.17    0.11
  -8  16  10    0.25    0.12
 -16  10   8    0.33    0.13
  10  -8  16    0.27    0.15
 -10  -8  16    0.11    0.13
  -8  16 -10    0.45    0.15
  16  10   8    0.13    0.12
   8  16  10    0.61    0.17
  16  10   8    0.12    0.13
  10   8  16    0.34    0.15
  16 -10  -8    0.20    0.11
  10   8  16    0.10    0.13
 -16 -10   8    0.42    0.15
  -8 -16  10    0.21    0.13
 -12   8  16   89.72    2.38
  12  -8  16   86.16    2.48
  -8  16  12   94.42    2.33
   8  16 -12   87.06    2.33
 -16  12   8   88.64    2.35
 -12   8  16   84.15    2.34
   8 -16  12   89.94    2.46
  16 -12   8   88.04    2.44
  -8  16  12   85.76    2.39
  -8 -16  12   89.15    2.46
  12   8  16   84.31    2.35
  -8  16 -12   89.56    2.43
  16  12   8   88.71    2.40
 -16 -12   8   88.30    2.47
  16 -12  -8   93.47    2.37
  16  12   8   83.78    2.40
 -16  12  -8   91.08    2.43
   8  16  12   89.29    2.41
 -12  -8  16   90.61    2.53
  12   8  16   90.03    2.42
  16 -14   8    0.28    0.15
  14  -8  16    0.61    0.20
   8 -16  14    0.28    0.16
  -8  16  14    0.56    0.17
 -14   8  16    0.53    0.15
   8  16 -14    0.32    0.15
 -14   8  16    0.28    0.14
 -16  14   8    0.77    0.17
  14   8  16    0.35    0.16
 -16 -14   8    0.48    0.18
  -8  16 -14    0.62    0.17
  14   8  16    0.61    0.17
  16  14   8    0.37    0.14
 -16  14  -8    0.52    0.18
  -8 -16  14    0.81    0.20
 -14  -8  16    0.55    0.17
   8  16  14    0.27    0.17
   0  10 -16    0.38    0.13
  10  16   0    0.09    0.09
   0  10  16    0.28    0.14
  16   0  10    0.25    0.13
  10  16   0    0.22    0.11
 -16   0  10    0.15    0.12
   0 -10  16    0.18    0.12
  10 -16   0    0.16    0.09
 -10  16   0    0.11    0.10
 -16   0  10    0.20    0.12
 -10  16   0    0.16    0.09
  10  16  -2    5.02    0.32
 -10  16   2    4.45    0.31
 -16   2  10    4.98    0.34
   2  10 -16    5.48    0.33
 -10  16   2    4.75    0.30
  -2  10  16    4.61    0.34
   2 -10  16    4.47    0.35
  10 -16   2    5.18    0.30
  16  -2  10    4.84    0.35
 -10  16  -2    4.97    0.28
  -2 -10  16    5.08    0.38
 -10  16  -2    5.52    0.35
 -16  -2  10    5.31    0.35
  10  16   2    5.06    0.30
 -16  -2  10    4.90    0.34
  16   2  10    5.21    0.36
 -10 -16   2    4.99    0.30
  10  16   2    4.70    0.33
  16  -2 -10    5.02    0.34
   2  10  16    4.93    0.35
  -2  10 -16    5.06    0.34
  16  -4  10   -0.01    0.11
  -4  10  16    0.18    0.12
 -16   4  10    0.10    0.10
  10 -16   4    0.22    0.10
 -10  16   4    0.09    0.10
   4 -10  16    0.07    0.12
 -10  16   4    0.03    0.10
   4  10 -16    0.23    0.11
  10  16  -4    0.18    0.11
  10  16   4   -0.10    0.09
  -4 -10  16    0.11    0.12
  16  -4 -10    0.21    0.11
  16   4  10    0.12    0.11
 -10  16  -4    0.29    0.12
 -16  -4  10    0.23    0.11
  16   4  10    0.19    0.11
  -4  10 -16    0.10    0.12
 -10 -16   4    0.11    0.09
   4  10  16    0.15    0.12
  16  -6  10    1.10    0.20
  -6  10  16    0.87    0.18
 -10  16   6    0.89    0.17
 -10  16   6    1.06    0.18
  10  16  -6    0.77    0.16
  10 -16   6    1.00    0.17
   6 -10  16    0.97    0.20
  10  16  -6    1.14    0.16
 -16   6  10    1.01    0.18
   6  10 -16    1.09    0.15
  16  -6 -10    0.80    0.16
  10  16   6    1.45    0.21
  16   6  10    1.01    0.18
  16   6  10    0.96    0.19
 -10 -16   6    0.82    0.17
  -6 -10  16    1.03    0.20
  -6  10 -16    0.73    0.17
 -10  16  -6    1.01    0.18
 -16  -6  10    1.16    0.20
   6  10  16    1.21    0.20
 -16   8  10    0.21    0.11
  16  -8  10    0.16    0.13
 -10  16   8    0.06    0.11
  -8  10  16    0.22    0.13
 -10  16   8    0.33    0.14
  10  16  -8    0.11    0.11
  10 -16   8    0.11    0.12
   8 -10  16    0.33    0.15
  16   8  10    0.38    0.15
 -16  -8  10    0.32    0.14
  -8  10 -16    0.36    0.14
   8  10  16    0.10    0.13
  -8 -10  16    0.03    0.11
  16  -8 -10    0.09    0.12
 -10 -16   8    0.28    0.14
 -10  16  -8    0.42    0.14
  16   8  10    0.04    0.10
  10  16   8   -0.12    0.12
  10  16 -10    0.10    0.12
 -10  10  16    0.12    0.12
 -10  16  10    0.09    0.11
  10 -16  10    0.03    0.13
  10 -10  16    0.06    0.13
  16 -10  10    0.20    0.14
 -10  16  10    0.35    0.14
 -16  10  10    0.02    0.11
 -10 -16  10   -0.12    0.09
 -16 -10  10    0.03    0.13
  16 -10 -10    0.25    0.13
 -10 -10  16    0.11    0.12
 -10  16 -10   -0.02    0.12
  10  10  16    0.21    0.13
  10  16  10    0.27    0.13
  16  10  10    0.09    0.13
  16  10  10    0.10    0.12
  10  10  16   -0.03    0.10
 -16  12  10    0.13    0.11
  10 -16  12    0.40    0.15
  16 -12  10    0.23    0.16
  12 -10  16    0.33    0.16
 -12  10  16    0.35    0.15
  10  16 -12    0.36    0.14
 -10  16  12    0.44    0.15
 -10 -16  12    0.22    0.15
  16  12  10    0.40    0.15
  12  10  16    0.29    0.16
 -16 -12  10    0.37    0.16
 -12 -10  16    0.35    0.16
  12  10  16    0.32    0.15
 -10  16 -12    0.33    0.16
  16 -12 -10    0.51    0.15
 -16  12 -10    0.49    0.17
  10  16  12    0.72    0.19
  16  12  10    0.47    0.17
 -16  14  10    0.25    0.14
  14 -10  16    0.59    0.19
 -10  16  14    0.69    0.19
  10 -16  14    0.64    0.20
 -14  10  16    0.56    0.19
  16 -14  10    0.81    0.21
  14  10  16    0.50    0.19
 -14 -10  16    0.90    0.21
  10  16  14    0.29    0.17
  16  14  10    0.62    0.19
  14  10  16    0.57    0.18
 -10 -16  14    0.59    0.20
 -16 -14  10    0.59    0.19
 -10  16 -14    0.86    0.20
 -16  14 -10    0.83    0.21
  12  16   0   85.09    2.40
  16   0  12   95.51    2.54
 -16   0  12   88.66    2.38
  16   0  12   92.00    2.33
 -16   0  12   88.54    2.49
   0 -12  16   92.69    2.56
   0  12 -16   92.67    2.41
   0  12  16   91.08    2.43
  12 -16   0   93.09    2.36
 -12  16   0   93.06    2.28
  12  16   0   91.70    2.36
 -12  16   0   90.19    2.40
 -16   2  12    0.78    0.18
  16  -2  12    0.66    0.14
  -2  12  16    0.52    0.17
  12  16  -2    0.68    0.15
  12 -16   2    0.90    0.16
 -12  16   2    0.90    0.16
   2 -12  16    0.62    0.20
 -12  16   2    1.08    0.16
 -16   2  12    1.34    0.20
  16  -2  12    0.80    0.18
  12  16  -2    0.94    0.17
   2  12 -16    0.93    0.17
  16   2  12    1.30    0.19
  16   2  12    1.09    0.19
   2  12  16    0.94    0.21
  -2  12 -16    1.19    0.19
 -12  16  -2    1.07    0.18
  -2 -12  16    0.73    0.22
 -12  16  -2    0.67    0.13
  12  16   2    0.83    0.17
  12  16   2    0.75    0.16
 -16  -2  12    0.52    0.14
 -16  -2  12    1.13    0.19
 -12  16   4  136.51    3.33
  16  -4  12  134.81    3.50
   4 -12  16  131.39    3.52
  12 -16   4  134.27    3.37
 -16   4  12  132.84    3.31
 -12  16   4  135.21    3.26
   4  12 -16  132.71    3.30
  -4  12  16  130.90    3.35
  12  16  -4  133.91    3.25
 -12  16  -4  125.64    3.35
  16  -4 -12  136.06    3.44
 -12 -16   4  134.56    3.41
  16   4  12  128.38    3.28
   4  12  16  130.21    3.35
 -16  -4  12  134.24    3.50
  12  16   4  129.86    3.31
  -4  12 -16  134.14    3.39
  16   4  12  136.61    3.49
  -4 -12  16  131.49    3.53
  12 -16   6    0.16    0.12
  16  -6  12    0.16    0.14
  12  16  -6    0.05    0.10
   6  12 -16    0.21    0.12
  -6  12  16    0.13    0.15
   6 -12  16    0.04    0.14
 -12  16   6    0.16    0.11
 -12  16   6    0.19    0.12
 -16   6  12    0.19    0.12
  -6 -12  16    0.05    0.13
  16   6  12    0.05    0.11
  16  -6 -12    0.04    0.11
  -6  12 -16    0.05    0.12
 -12  16  -6    0.17    0.14
  16   6  12    0.15    0.11
  12  16   6    0.02    0.12
 -12 -16   6    0.12    0.11
   6  12  16   -0.11    0.13
 -16  -6  12    0.28    0.14
  16  -8  12   87.44    2.49
 -12  16   8   86.09    2.32
 -12  16   8   91.15    2.38
  12  16  -8   89.08    2.35
   8 -12  16   87.75    2.52
  -8  12  16   90.74    2.42
 -16   8  12   91.99    2.39
  12 -16   8   93.32    2.44
  -8  12 -16   91.53    2.46
 -12  16  -8   84.48    2.41
 -12 -16   8   91.46    2.46
 -16  -8  12   91.22    2.53
  16  -8 -12   90.58    2.42
  -8 -12  16   91.91    2.56
   8  12  16   86.03    2.40
  12  16   8   89.25    2.40
  16   8  12   88.53    2.46
  16   8  12   89.99    2.39
  12 -16  10    0.57    0.18
  16 -10  12    0.35    0.17
  12  16 -10    0.38    0.13
  10 -12  16    0.44    0.17
 -10  12  16    0.21    0.15
 -16  10  12    0.29    0.14
 -12  16  10    0.01    0.11
  16  10  12    0.32    0.16
 -10  12 -16    0.40    0.16
  16 -10 -12    0.33    0.15
 -16 -10  12    0.49    0.17
  10  12  16    0.56    0.19
 -12  16 -10    0.55    0.18
  12  16  10    0.39    0.16
 -10 -12  16    0.46    0.17
 -12 -16  10    0.57    0.17
  16  10  12    0.37    0.16
 -12  16  12   89.88    2.45
  12 -16  12   88.29    2.52
  16 -12  12   89.57    2.54
 -16  12  12   94.41    2.46
  12 -12  16   90.33    2.57
 -12  12  16   92.98    2.48
  16  12  12   91.87    2.49
 -12  16 -12   89.75    2.50
 -12 -16  12   90.10    2.54
  16  12  12   87.37    2.47
 -16 -12  12   90.90    2.57
  12  16  12   92.91    2.49
  12  12  16   90.90    2.48
 -12 -12  16   86.55    2.58
 -12  16  14    1.21    0.23
  12 -16  14    0.55    0.19
  16 -14  12    1.06    0.23
 -14  12  16    1.02    0.21
 -16  14  12    0.86    0.20
  14 -12  16    1.70    0.27
  14  12  16    1.00    0.23
 -12 -16  14    1.11    0.23
 -16 -14  12    1.28    0.25
 -16  14 -12    1.02    0.24
  16  14  12    1.15    0.25
 -14 -12  16    0.81    0.22
  12  16  14    1.20    0.25
 -12  16 -14    0.83    0.20
 -14  16   0    0.22    0.12
   0  14 -16    0.18    0.13
   0  14  16    0.02    0.15
  14 -16   0    0.11    0.12
 -16   0  14    0.07    0.10
 -16   0  14    0.17    0.12
  14  16   0    0.35    0.14
  16   0  14    0.23    0.14
  16   0  14    0.12    0.12
   0 -14  16    0.33    0.16
  14  16   0   -0.01    0.12
 -14  16   0    0.18    0.13
 -16   2  14   -0.04    0.10
 -14  16   2    0.09    0.10
  14 -16   2   -0.03    0.10
   2  14 -16   -0.09    0.10
  -2  14  16    0.06    0.15
  16  -2  14    0.14    0.13
  16  -2  14    0.02    0.09
 -16   2  14    0.30    0.13
   2 -14  16    0.13    0.15
 -14  16   2    0.16    0.11
  14  16  -2   -0.09    0.10
  14  16  -2    0.13    0.12
  -2  14 -16   -0.08    0.09
   2  14  16    0.09    0.14
  14  16   2    0.20    0.15
 -16  -2  14    0.10    0.10
 -14  16  -2    0.05    0.12
 -14  16  -2    0.13    0.10
  16   2  14   -0.05    0.12
  16   2  14    0.05    0.11
  -2 -14  16    0.09    0.13
 -16  -2  14   -0.16    0.07
  14  16   2   -0.09    0.10
  -4  14  16   -0.12    0.13
 -16   4  14    0.16    0.10
  16  -4  14    0.00    0.10
  14 -16   4    0.09    0.12
  14  16  -4    0.18    0.12
   4 -14  16    0.05    0.12
 -14  16   4   -0.08    0.10
   4  14 -16    0.13    0.13
 -14  16   4    0.07    0.11
 -16   4  14    0.01    0.11
  16   4  14    0.43    0.16
  -4  14 -16    0.18    0.13
 -14  16  -4    0.07    0.12
 -16  -4  14    0.17    0.14
 -16  -4  14    0.10    0.11
  14  16   4    0.10    0.12
  16   4  14    0.13    0.12
   4  14  16    0.48    0.18
 -14 -16   4    0.17    0.12
  -4 -14  16    0.06    0.13
   6 -14  16    4.64    0.38
   6  14 -16    4.67    0.33
  -6  14  16    3.92    0.36
  16  -6  14    4.38    0.37
 -14  16   6    4.47    0.32
 -14  16   6    4.62    0.35
  14 -16   6    3.91    0.32
 -16   6  14    3.81    0.33
  16   6  14    4.12    0.35
 -14 -16   6    4.54    0.35
  -6  14 -16    5.07    0.38
  -6 -14  16    4.82    0.40
 -16  -6  14    4.64    0.37
  14  16   6    4.36    0.36
  16  -6 -14    4.66    0.34
   6  14  16    3.83    0.35
  16   6  14    4.73    0.36
 -14  16  -6    4.68    0.36
 -16   8  14    0.28    0.14
 -14  16   8    0.56    0.16
  14 -16   8    0.43    0.16
  16  -8  14    0.36    0.17
  -8  14  16   -0.10    0.13
   8 -14  16    0.37    0.17
  14  16  -8    0.38    0.14
  16  -8 -14    0.39    0.15
  16   8  14    0.63    0.18
 -16  -8  14    0.71    0.19
   8  14  16    0.30    0.16
  14  16   8    0.61    0.18
  -8 -14  16    0.62    0.19
  16   8  14    0.64    0.18
 -14 -16   8    0.33    0.16
 -14  16  -8    0.62    0.17
  -8  14 -16    0.80    0.19
 -16  10  14    0.51    0.17
  14 -16  10    0.63    0.19
  10 -14  16    0.93    0.22
  16 -10  14    0.76    0.22
 -10  14  16    0.79    0.21
 -14  16  10    0.64    0.18
  10  14  16    0.58    0.20
 -16 -10  14    0.89    0.22
 -14  16 -10    0.84    0.20
 -10  14 -16    0.63    0.19
  16  10  14    0.60    0.20
 -10 -14  16    0.48    0.18
  16 -10 -14    0.62    0.17
  14  16  10    0.88    0.21
  16  10  14    0.95    0.20
 -14 -16  10    0.90    0.20
  14 -16  12    1.15    0.22
  16 -12  14    1.08    0.24
  12 -14  16    0.99    0.24
 -12  14  16    1.16    0.24
 -16  12  14    1.15    0.23
 -14  16  12    1.03    0.22
 -16 -12  14    0.77    0.20
 -14  16 -12    1.21    0.25
 -12 -14  16    0.78    0.21
  14  16  12    1.31    0.25
  12  14  16    0.93    0.22
 -14 -16  12    1.06    0.22
 -12  14 -16    0.90    0.21
  16  12  14    1.31    0.25
  14 -14  16    3.98    0.38
 -14  16  14    4.23    0.40
  14 -16  14    3.62    0.38
 -16  14  14    3.90    0.37
  16 -14  14    3.95    0.37
 -14  14  16    3.80    0.37
  14  14  16    4.04    0.40
 -14 -14  16    3.71    0.38
 -14 -16  14    4.13    0.40
 -16 -14  14    4.16    0.39
 -14  16 -14    4.21    0.40
  14  16  14    4.22    0.41
  16  14  14    3.97    0.40
   0  16  16  202.17    4.93
  16 -16   0  207.63    4.99
 -16   0  16  196.82    5.10
  16  16   0  204.52    4.86
 -16  16   0  198.78    4.75
  16  16   0  200.01    5.07
 -16  16   0  202.13    4.91
   0  16 -16  206.52    4.96
   0 -16  16  194.36    5.12
 -16   0  16  192.53    4.82
  16   0  16  197.54    5.11
  16   0  16  207.81    4.78
  16  16  -2    0.72    0.18
   2  16 -16    0.48    0.16
  16  -2  16    0.41    0.17
   2 -16  16   -0.21    0.19
  16  16  -2    0.70    0.17
  16 -16   2    0.37    0.15
  -2  16  16   -0.16    0.18
 -16  16   2    0.73    0.17
 -16  16   2    0.45    0.14
 -16   2  16    0.48    0.17
 -16   2  16    0.48    0.16
  16   2  16    0.49    0.16
   2  16  16    0.06    0.20
  16  16   2    0.46    0.16
  -2 -16  16   -0.24    0.19
 -16  -2  16    0.50    0.17
 -16  16  -2    0.57    0.17
 -16  -2  16    0.58    0.17
  -2  16 -16    0.68    0.19
  16  16   2    0.69    0.19
  16   2  16    0.40    0.16
  16  -4  16  116.54    3.26
 -16  16   4  122.49    3.07
  16 -16   4  120.88    3.15
 -16   4  16  119.41    3.08
  16  16  -4  123.20    3.24
   4  16 -16  121.77    3.11
 -16   4  16  120.28    3.21
  -4  16  16  120.51    3.16
 -16  16   4  122.88    3.05
   4 -16  16  120.60    3.27
  16   4  16  119.46    3.23
   4  16  16  119.82    3.16
  -4 -16  16  117.67    3.28
  -4  16 -16  119.86    3.16
 -16  -4  16  119.86    3.08
  16   4  16  120.47    3.07
 -16  -4  16  125.44    3.30
 -16  16  -4  120.80    3.15
  16  16   4  116.51    3.10
 -16  16   6    0.66    0.18
   6 -16  16   -0.02    0.17
   6  16 -16    0.41    0.15
  16 -16   6    0.63    0.18
  -6  16  16    0.38    0.19
 -16   6  16    0.41    0.14
 -16   6  16    0.59    0.18
  -6  16 -16    0.41    0.16
   6  16  16    0.10    0.21
  16   6  16    0.56    0.18
 -16 -16   6    0.28    0.15
  16  16   6    0.65    0.19
 -16  16  -6    0.51    0.16
  -6 -16  16   -0.10    0.19
 -16  -6  16    0.50    0.17
  16   6  16    0.68    0.19
   8 -16  16  131.51    3.62
  16  -8  16  129.59    3.62
  16 -16   8  137.93    3.56
 -16  16   8  133.15    3.42
 -16   8  16  128.97    3.43
  -8  16  16  135.22    3.51
  16  16   8  141.28    3.51
  -8 -16  16  141.37    3.66
 -16  -8  16  136.99    3.68
 -16  16  -8  133.32    3.53
  16   8  16  131.94    3.56
 -16 -16   8  137.50    3.60
   8  16  16  138.39    3.52
  16  -8 -16  135.58    3.51
  16   8  16  134.70    3.46
  -8  16 -16  139.69    3.56
 -16  10  16    0.15    0.13
  16 -16  10    0.30    0.17
 -10  16  16   -0.01    0.13
 -16  16  10    0.20    0.14
  16 -10  16    0.31    0.19
  10 -16  16    0.02    0.17
 -10 -16  16    0.15    0.17
 -16  16 -10    0.20    0.16
 -16 -16  10    0.18    0.14
  16  10  16    0.28    0.15
  16  16  10    0.18    0.15
  16  10  16    0.34    0.18
 -10  16 -16    0.35    0.16
  10  16  16    0.15    0.18
 -16 -10  16    0.35    0.16
 -16  12  16   75.26    2.20
  16 -12  16   74.33    2.28
  16 -16  12   76.33    2.25
 -12  16  16   75.88    2.22
  12 -16  16   75.79    2.28
 -16  16  12   78.94    2.21
 -16  16 -12   78.44    2.27
 -16 -16  12   78.34    2.29
  16  12  16   73.03    2.21
  16  16  12   76.46    2.24
 -16 -12  16   76.34    2.34
 -12 -16  16   80.26    2.32
 -12  16 -16   81.13    2.29
  12  16  16   76.58    2.24
 -16  16  14    0.39    0.17
 -16  14  16    0.41    0.17
  14 -16  16    0.66    0.24
  16 -14  16    0.47    0.20
 -14  16  16    0.31    0.17
  16 -16  14    0.46    0.21
 -14  16 -16    0.27    0.17
 -14 -16  16    0.53    0.21
 -16 -14  16    0.30    0.18
  16  14  16    0.64    0.22
 -16 -16  14    0.41    0.19
  16  16  14    0.49    0.20
  14  16  16    0.31    0.20
 -16  16 -14    0.46    0.20
 -16  16  16  118.82    3.21
  16 -16  16  118.52    3.32
  16  16  16  119.62    3.25
 -16 -16  16  117.39    3.35
  -1  17   1    0.12    0.09
  17  -1   1   -0.13    0.07
   1  17  -1   -0.09    0.07
  -1  17   1    0.10    0.09
   1  -1  17    0.03    0.07
  -1   1  17    0.04    0.07
   1  17  -1    0.00    0.08
  -1   1  17   -0.02    0.07
  17   1  -1    0.01    0.08
   1  -1  17    0.03    0.09
   1   1  17   -0.05    0.09
  -1  -1  17    0.01    0.07
   1  17   1    0.10    0.09
   1   1  17    0.09    0.07
  -1  -1  17    0.08    0.09
  17   1   1    0.00    0.09
  -1  17  -1    0.10    0.09
  17  -1  -1   -0.08    0.08
   1  17   1   -0.01    0.08
  -1  17  -1    0.00    0.09
  -3   1  17    0.44    0.13
  17  -3   1    0.49    0.14
  17   3  -1    0.64    0.15
   1  17  -3    0.59    0.14
   1 -17   3    0.46    0.10
   3  -1  17    0.31    0.09
  -1  17   3    0.26    0.11
   1  17  -3    0.41    0.11
   3  -1  17    0.29    0.13
  -3   1  17    0.50    0.11
  -1  17   3    0.56    0.13
  -1 -17   3    0.54    0.10
   1  17   3    0.58    0.14
   3   1  17    0.42    0.14
  17  -3  -1    0.53    0.14
   3   1  17    0.49    0.11
  -3  -1  17    0.55    0.14
  -1  17  -3    0.32    0.10
  -3  -1  17    0.32    0.09
  17   3   1    0.47    0.13
  -1  17  -3    0.40    0.13
   5  -1  17    0.14    0.08
   1 -17   5    0.15    0.09
   1  17  -5    0.08    0.09
  17   5  -1    0.04    0.09
   5  -1  17   -0.04    0.10
  -1  17   5    0.12    0.11
  17  -5   1    0.17    0.11
  -5   1  17    0.11    0.07
  -5   1  17    0.05    0.09
  17  -5  -1    0.04    0.10
  -1  17  -5    0.09    0.10
   5   1  17   -0.04    0.08
  17   5   1    0.11    0.10
  -5  -1  17    0.07    0.07
  -5  -1  17    0.09    0.10
   5   1  17    0.17    0.11
   1  17   5   -0.02    0.10
  -1 -17   5    0.06    0.08
   7  -1  17    0.40    0.11
  -7   1  17    0.43    0.12
   7  -1  17    0.07    0.11
  -1  17   7    0.11    0.11
  17   7  -1    0.33    0.13
   1 -17   7    0.55    0.13
  -7   1  17    0.19    0.11
  17  -7   1    0.45    0.14
   1  17  -7    0.50    0.13
 -17   7   1    0.18    0.10
   1  17   7    0.33    0.14
  17  -7  -1    0.14    0.12
  17   7   1    0.22    0.12
  -1 -17   7    0.53    0.12
   7   1  17    0.15    0.11
  -7  -1  17    0.30    0.11
  -7  -1  17    0.50    0.14
  -1  17  -7    0.34    0.12
   7   1  17    0.14    0.09
  17  -9   1    0.12    0.12
   9  -1  17    0.06    0.10
   1  17  -9    0.23    0.11
 -17   9   1    0.03    0.09
   9  -1  17    0.10    0.09
  -1  17   9    0.10    0.12
  17   9  -1   -0.08    0.09
  -9   1  17   -0.06    0.07
  -9   1  17   -0.04    0.08
   1 -17   9   -0.08    0.09
 -17   9   1    0.16    0.11
   9   1  17   -0.04    0.08
  17   9   1    0.14    0.10
   9   1  17    0.09    0.10
  -9  -1  17    0.00    0.08
  -1  17  -9    0.04    0.09
 -17   9  -1    0.03    0.08
  -9  -1  17    0.08    0.10
   1  17   9   -0.09    0.09
  17  -9  -1    0.04    0.11
  -1 -17   9   -0.05    0.08
  17 -11   1    0.09    0.12
 -17  11   1    0.28    0.12
  -1  17  11    0.10    0.13
  11  -1  17    0.06    0.10
 -11   1  17    0.08    0.10
  11  -1  17    0.08    0.12
 -11   1  17    0.18    0.10
 -17  11   1    0.11    0.09
   1  17 -11    0.13    0.12
   1 -17  11    0.01    0.11
  17  11  -1    0.08    0.13
  11   1  17    0.01    0.11
 -11  -1  17    0.15    0.11
  17 -11  -1    0.14    0.12
  17  11   1    0.03    0.10
   1  17  11    0.45    0.16
  -1  17 -11    0.02    0.10
 -17  11  -1    0.01    0.10
  11   1  17    0.16    0.12
  -1 -17  11   -0.01    0.10
 -11  -1  17    0.08    0.10
 -17  11  -1   -0.10    0.09
  -1  17  13    1.15    0.22
  17  13  -1    1.55    0.23
   1 -17  13    1.12    0.21
 -17  13   1    0.81    0.16
 -13   1  17    0.97    0.18
 -13   1  17    0.77    0.17
  13  -1  17    1.01    0.21
 -17  13   1    0.70    0.16
   1  17 -13    0.94    0.19
  17 -13   1    1.14    0.19
  13  -1  17    0.86    0.16
  17  13   1    0.78    0.18
  17 -13  -1    0.76    0.17
  13   1  17    0.56    0.17
   1  17  13    0.69    0.19
 -13  -1  17    0.81    0.18
 -17  13  -1    1.01    0.17
  -1  17 -13    1.22    0.21
  13   1  17    0.70    0.16
  -1 -17  13    1.37    0.22
 -17  13  -1    1.32    0.19
 -13  -1  17    1.00    0.19
 -15   1  17    0.08    0.13
   1 -17  15    0.14    0.14
  -1  17  15    0.06    0.12
 -15   1  17   -0.15    0.10
  17  15  -1    0.11    0.13
 -17  15   1    0.08    0.13
 -17  15   1    0.24    0.14
   1  17 -15   -0.16    0.12
  15  -1  17    0.00    0.16
  17 -15   1    0.18    0.15
  15   1  17   -0.25    0.11
  17  15   1    0.02    0.14
 -17  15  -1   -0.01    0.13
   1  17  15    0.14    0.14
  17  15   1    0.21    0.13
  15   1  17    0.13    0.16
  17 -15  -1    0.05    0.13
  -1 -17  15    0.07    0.13
 -15  -1  17   -0.11    0.12
 -15  -1  17    0.16    0.14
 -17  15  -1   -0.05    0.11
  -1  17 -15   -0.02    0.11
  17   1  -3    0.37    0.14
   1  -3  17    0.34    0.08
  17  -1   3    0.78    0.17
   3  17  -1    0.43    0.13
  -1   3  17    0.39    0.11
  -3  17   1    0.40    0.12
   1  -3  17    0.46    0.14
   3  17  -1    0.15    0.10
  -1   3  17    0.53    0.14
  -3  17   1    0.62    0.13
   3  17   1    0.44    0.13
  -1  -3  17    0.55    0.14
  -3  17  -1    0.56    0.14
  17  -1  -3    0.74    0.15
   1   3  17    0.48    0.12
  17   1   3    0.51    0.13
   1   3  17    0.66    0.15
  -1  -3  17    0.53    0.10
  -3  17  -1    0.53    0.11
  -3   3  17   -0.03    0.07
   3  -3  17    0.02    0.05
  17   3  -3   -0.01    0.08
   3  17  -3   -0.03    0.08
  17  -3   3   -0.03    0.10
   3 -17   3    0.05    0.07
  -3   3  17    0.00    0.07
  -3  17   3   -0.10    0.08
   3  -3  17    0.08    0.09
   3  17  -3    0.09    0.09
  -3  17   3    0.04    0.09
   3  17   3   -0.08    0.09
  -3  -3  17    0.04    0.07
   3   3  17   -0.03    0.09
  -3  -3  17    0.02    0.08
  17   3   3    0.14    0.10
  17  -3  -3    0.02    0.09
  -3  17  -3   -0.01    0.08
  -3 -17   3    0.01    0.06
  -3  17  -3   -0.03    0.06
   3   3  17    0.00    0.08
  -3  17   5    2.69    0.23
   3 -17   5    2.42    0.21
  -3  17   5    2.43    0.24
   5  -3  17    2.56    0.27
  17  -5   3    2.25    0.24
   3  17  -5    2.31    0.22
  -5   3  17    2.92    0.24
  -5   3  17    2.32    0.23
 -17   5   3    2.37    0.23
   3  17  -5    2.31    0.19
  17   5  -3    2.16    0.23
   5   3  17    2.29    0.24
  -5  -3  17    2.29    0.19
  -3  17  -5    1.96    0.22
  -3 -17   5    2.44    0.21
  -5  -3  17    2.62    0.27
  17  -5  -3    2.25    0.23
  17   5   3    2.23    0.24
   3  17   5    2.16    0.24
   5   3  17    2.37    0.22
  -7   3  17    1.83    0.19
 -17   7   3    1.50    0.20
   3  17  -7    1.50    0.19
  -3  17   7    1.38    0.20
   7  -3  17    1.70    0.23
  17   7  -3    1.74    0.23
  -7   3  17    1.87    0.21
  17  -7   3    1.64    0.21
   3 -17   7    2.12    0.21
  17  -7  -3    1.77    0.21
  17   7   3    1.98    0.23
   7   3  17    1.58    0.21
   7   3  17    1.38    0.18
  -7  -3  17    1.69    0.18
  -3 -17   7    2.06    0.20
  -7  -3  17    2.03    0.24
   3  17   7    1.68    0.22
  -3  17  -7    1.94    0.22
 -17   9   3    2.70    0.25
  -3  17   9    2.93    0.28
  -9   3  17    3.15    0.26
   3  17  -9    2.91    0.27
  -9   3  17    3.47    0.28
  17  -9   3    3.12    0.29
   9  -3  17    2.29    0.26
   3 -17   9    2.99    0.27
  17   9  -3    2.57    0.27
 -17   9   3    3.02    0.23
  -9  -3  17    3.46    0.25
   9   3  17    2.88    0.25
   9   3  17    2.50    0.26
  17  -9  -3    3.13    0.27
  -3 -17   9    3.58    0.28
   3  17   9    2.71    0.28
  -9  -3  17    3.46    0.30
  -3  17  -9    3.24    0.29
  17   9   3    2.96    0.27
 -11   3  17    0.66    0.15
   3 -17  11    0.41    0.15
  17 -11   3    0.81    0.18
  17  11  -3    0.47    0.17
   3  17 -11    0.74    0.15
  -3  17  11    0.50    0.17
  11  -3  17    0.59    0.18
 -11   3  17    0.50    0.14
 -17  11   3    0.51    0.14
 -17  11   3    0.39    0.15
  -3 -17  11    0.79    0.17
  11   3  17    0.54    0.15
 -11  -3  17    0.37    0.14
  -3  17 -11    0.54    0.16
   3  17  11    0.57    0.18
  11   3  17    0.37    0.16
 -11  -3  17    0.66    0.15
  17 -11  -3    0.71    0.16
  17  11   3    0.51    0.15
 -17  11  -3    0.56    0.15
  -3  17  13    0.56    0.17
 -17  13   3    0.58    0.14
  17  13  -3    0.62    0.17
   3 -17  13    0.59    0.17
  13  -3  17    0.18    0.12
  17 -13   3    0.40    0.15
 -13   3  17    0.42    0.13
 -17  13   3    0.48    0.14
   3  17 -13    0.31    0.15
 -13   3  17    0.49    0.15
  -3  17 -13    0.47    0.16
 -13  -3  17    0.51    0.15
  17  13   3    0.35    0.14
  17  13   3    0.56    0.17
 -17  13  -3    0.59    0.15
   3  17  13    0.37    0.16
  -3 -17  13    0.66    0.17
 -17  13  -3    0.76    0.18
  13   3  17    0.62    0.16
 -13  -3  17    0.52    0.15
  13   3  17    0.75    0.17
  17 -13  -3    0.22    0.14
  17  15  -3    0.18    0.16
   3 -17  15    0.63    0.19
 -17  15   3    0.36    0.15
 -15   3  17    0.19    0.14
 -15   3  17    0.59    0.18
  15  -3  17    0.31    0.17
  -3  17  15    0.52    0.18
 -17  15   3    0.51    0.15
   3  17 -15    0.41    0.16
  17 -15   3    0.37    0.16
  15   3  17    0.36    0.19
  17  15   3    0.09    0.15
 -17  15  -3    0.40    0.16
  -3  17 -15    0.58    0.20
  17  15   3    0.14    0.15
  15   3  17    0.43    0.17
   3  17  15    0.56    0.19
  -3 -17  15    0.42    0.18
 -15  -3  17    0.28    0.17
  17 -15  -3    0.11    0.13
 -15  -3  17    0.57    0.18
  -1   5  17    0.06    0.09
  -1   5  17    0.05    0.09
  -5  17   1    0.00    0.08
   1  -5  17   -0.01    0.09
  -5  17   1    0.12    0.09
  17   1  -5   -0.02    0.09
   5  17  -1    0.05    0.09
  17  -1   5   -0.02    0.08
  17  -1  -5    0.06    0.12
  17   1   5   -0.02    0.08
   1   5  17    0.20    0.11
   5  17   1   -0.09    0.09
  -5  17  -1    0.11    0.09
  -5 -17   1    0.14    0.07
  -1  -5  17    0.02    0.08
   1   5  17    0.04    0.10
  -5  17  -1    0.00    0.07
  -5  17   3    2.24    0.22
 -17   3   5    2.55    0.24
   5 -17   3    2.34    0.20
  17  -3   5    2.55    0.26
  17   3  -5    2.23    0.24
  -3   5  17    2.26    0.22
   5  17  -3    2.02    0.19
   5  17  -3    2.29    0.22
  -5  17   3    2.35    0.22
  -3   5  17    2.51    0.22
   3  -5  17    2.40    0.26
  -5  17  -3    2.67    0.19
   3   5  17    2.68    0.24
  -5 -17   3    2.46    0.19
  17  -3  -5    1.91    0.23
  -3  -5  17    2.38    0.18
   5  17   3    2.74    0.24
  17   3   5    2.44    0.25
   3   5  17    2.55    0.25
  -5  17  -3    2.58    0.25
  -3  -5  17    2.30    0.25
  -5   5  17   -0.02    0.09
  17   5  -5    0.00    0.08
  -5  17   5   -0.03    0.09
   5 -17   5   -0.04    0.08
   5  -5  17   -0.27    0.08
 -17   5   5    0.07    0.09
   5  17  -5    0.01    0.08
  17  -5   5   -0.08    0.11
   5  17  -5    0.05    0.09
  -5   5  17    0.04    0.09
  -5  17   5   -0.08    0.07
   5   5  17    0.09    0.10
  -5 -17   5    0.01    0.08
  -5  -5  17    0.00    0.07
  -5  17  -5   -0.04    0.09
  -5  -5  17   -0.04    0.08
  17  -5  -5   -0.09    0.08
  17   5   5    0.00    0.09
   5   5  17   -0.14    0.09
   5  17   5   -0.18    0.09
  -5  17   7    0.05    0.10
  17  -7   5   -0.06    0.11
   7  -5  17   -0.02    0.09
  17   7  -5    0.11    0.09
 -17   7   5    0.10    0.11
   5 -17   7   -0.07    0.08
  -5  17   7   -0.05    0.09
  -7   5  17   -0.04    0.08
  -7   5  17    0.01    0.08
   5  17  -7   -0.15    0.08
  17   7   5    0.03    0.09
  -7  -5  17    0.03    0.08
  -5 -17   7   -0.01    0.08
   5  17   7    0.02    0.11
  17  -7  -5   -0.03    0.09
   7   5  17    0.08    0.11
  -5  17  -7    0.02    0.11
  -7  -5  17    0.08    0.10
   7   5  17   -0.05    0.08
  -5  17   9    0.05    0.09
   9  -5  17    0.08    0.12
   5 -17   9    0.30    0.14
  -5  17   9    0.27    0.14
  -9   5  17    0.31    0.12
   5  17  -9    0.15    0.11
 -17   9   5    0.15    0.12
  -9   5  17    0.25    0.12
  17  -9   5    0.41    0.14
  17   9  -5    0.24    0.12
   9   5  17    0.17    0.12
  17  -9  -5    0.39    0.14
  -9  -5  17    0.19    0.10
  -5 -17   9    0.31    0.12
  -9  -5  17    0.21    0.12
  -5  17  -9    0.09    0.13
   9   5  17    0.14    0.13
  17   9   5    0.33    0.13
   5  17   9    0.30    0.14
 -11   5  17   -0.01    0.08
   5 -17  11    0.06    0.12
 -17  11   5    0.07    0.10
  17 -11   5    0.09    0.13
  11  -5  17    0.06    0.12
   5  17 -11   -0.02    0.10
  -5  17  11    0.08    0.13
  17  11  -5   -0.09    0.10
 -11   5  17    0.12    0.11
  -5 -17  11    0.10    0.11
  -5  17 -11    0.02    0.11
  17  11   5    0.09    0.11
  17 -11  -5    0.18    0.12
  11   5  17   -0.05    0.11
 -17  11  -5   -0.03    0.12
 -11  -5  17   -0.13    0.09
  17  11   5   -0.08    0.10
 -11  -5  17    0.04    0.11
  11   5  17    0.09    0.12
   5  17  11   -0.10    0.10
  17  13  -5    2.06    0.26
   5 -17  13    1.66    0.24
  13  -5  17    2.04    0.26
  -5  17  13    1.69    0.25
 -13   5  17    1.94    0.24
   5  17 -13    2.08    0.24
 -17  13   5    1.84    0.23
 -13   5  17    1.66    0.22
  17 -13   5    2.00    0.25
  13   5  17    1.56    0.23
   5  17  13    2.48    0.30
  -5  17 -13    2.26    0.26
  -5 -17  13    2.01    0.25
 -17  13  -5    1.42    0.22
 -13  -5  17    1.90    0.25
 -13  -5  17    1.42    0.20
  17  13   5    1.87    0.26
  17 -13  -5    1.75    0.22
  17  13   5    1.89    0.24
  13   5  17    1.64    0.23
  17 -15   5    0.13    0.14
   5  17 -15    0.08    0.13
 -15   5  17    0.03    0.12
 -15   5  17   -0.06    0.13
   5 -17  15    0.04    0.13
 -17  15   5    0.21    0.13
  -5  17  15   -0.10    0.12
  17  15  -5   -0.03    0.12
  15  -5  17   -0.09    0.13
 -15  -5  17    0.29    0.15
   5  17  15    0.33    0.16
 -15  -5  17    0.07    0.12
  -5 -17  15    0.16    0.15
  -5  17 -15   -0.01    0.12
  17  15   5    0.18    0.13
  15   5  17   -0.11    0.15
 -17  15  -5   -0.09    0.14
  17  15   5   -0.01    0.13
  15   5  17    0.11    0.16
  17   1  -7    0.34    0.13
   7  17  -1    0.25    0.11
  -1   7  17    0.60    0.15
 -17   1   7    0.34    0.13
   1  -7  17    0.44    0.14
  -7  17   1    0.20    0.10
  -7  17   1    0.34    0.12
  -1   7  17    0.54    0.13
  17  -1   7    0.36    0.14
  -7  17  -1    0.45    0.11
   7  17   1    0.13    0.12
  -7 -17   1    0.27    0.10
  17  -1  -7    0.23    0.14
  -1  -7  17    0.32    0.14
   1   7  17    0.21    0.13
  -7  17  -1    0.22    0.11
  17   1   7    0.29    0.14
   1   7  17    0.40    0.12
   7  17  -3    1.56    0.18
  -7  17   3    1.83    0.20
  -7  17   3    1.64    0.20
  -3   7  17    1.53    0.20
   3  -7  17    1.94    0.24
   7 -17   3    1.38    0.16
  17   3  -7    1.75    0.23
 -17   3   7    1.73    0.21
   3   7 -17    1.33    0.18
   7  17  -3    1.77    0.20
  -3   7  17    1.65    0.18
  17  -3   7    1.51    0.22
   7  17   3    2.12    0.22
  -7  17  -3    1.51    0.20
  17  -3  -7    2.03    0.23
  -7 -17   3    1.73    0.17
   3   7  17    1.68    0.20
  -3  -7  17    1.93    0.24
  17   3   7    1.83    0.23
   3   7  17    1.71    0.21
   7 -17   5   -0.15    0.08
  -5   7  17    0.05    0.09
  -7  17   5    0.13    0.10
   5  -7  17    0.03    0.10
 -17   5   7   -0.06    0.09
  17  -5   7   -0.04    0.11
   5   7 -17    0.00    0.09
  -5   7  17   -0.04    0.06
  -7  17   5   -0.05    0.09
  17   5  -7   -0.04    0.08
   7  17  -5    0.00    0.10
   7  17  -5    0.06    0.09
  -7  17  -5   -0.07    0.08
   7  17   5   -0.09    0.09
  17  -5  -7   -0.03    0.10
   5   7  17   -0.03    0.10
  -7 -17   5   -0.02    0.08
  -5  -7  17   -0.02    0.09
   5   7  17    0.03    0.11
  17   5   7   -0.02    0.09
  -7  17   7   -0.09    0.08
  -7  17   7   -0.12    0.10
 -17   7   7   -0.18    0.09
   7  -7  17   -0.01    0.10
  -7   7  17    0.02    0.09
  17  -7   7   -0.22    0.12
  -7   7  17   -0.06    0.09
   7  17  -7    0.00    0.08
   7 -17   7    0.03    0.10
  17   7  -7    0.12    0.10
   7   7  17   -0.14    0.11
   7   7  17   -0.06    0.08
  17   7   7    0.00    0.10
   7  17   7    0.01    0.10
  -7 -17   7   -0.03    0.08
  -7  -7  17   -0.02    0.07
  17  -7  -7    0.06    0.11
  -7  17  -7    0.05    0.11
   9  -7  17    0.12    0.12
  -9   7  17    0.12    0.10
  17   9  -7   -0.02    0.09
 -17   9   7   -0.06    0.10
  -7  17   9   -0.18    0.09
  -7  17   9   -0.02    0.08
   7  17  -9   -0.13    0.09
  -9   7  17    0.02    0.09
  17  -9   7   -0.19    0.10
   7 -17   9   -0.02    0.11
  -7  17  -9    0.02    0.10
  17  -9  -7   -0.06    0.11
   9   7  17    0.07    0.11
  17   9   7    0.02    0.11
  -7 -17   9    0.02    0.10
  -9  -7  17   -0.03    0.09
  -9  -7  17    0.05    0.10
 -17  -9   7   -0.01    0.10
   7  17   9   -0.11    0.11
   9   7  17   -0.07    0.10
  17   9   7   -0.01    0.10
  -7  17  11    0.15    0.13
 -17  11   7    0.10    0.12
  11  -7  17    0.30    0.14
   7 -17  11    0.04    0.13
   7  17 -11    0.20    0.12
 -11   7  17    0.15    0.13
 -11   7  17    0.36    0.13
  17 -11   7    0.29    0.17
  -7  17  11    0.30    0.12
 -11  -7  17    0.36    0.13
   7  17  11    0.17    0.13
  17 -11  -7    0.45    0.15
  11   7  17    0.27    0.14
 -17  11  -7    0.22    0.13
  17  11   7   -0.04    0.14
 -11  -7  17    0.09    0.11
  -7  17 -11    0.10    0.13
  -7 -17  11    0.32    0.14
 -17 -11   7    0.21    0.15
  11   7  17    0.24    0.14
  17  11   7    0.14    0.12
   7  17 -13    2.44    0.26
  13  -7  17    2.37    0.29
 -17  13   7    2.08    0.25
 -13   7  17    2.32    0.25
  -7  17  13    3.14    0.28
 -13   7  17    2.06    0.26
  -7  17  13    2.19    0.27
  17 -13   7    1.87    0.25
   7 -17  13    2.59    0.30
   7  17  13    2.18    0.28
  13   7  17    2.89    0.29
  -7  17 -13    2.60    0.28
 -13  -7  17    2.58    0.29
  13   7  17    2.48    0.28
  17  13   7    2.00    0.25
 -17 -13   7    1.77    0.25
  17  13   7    1.64    0.24
 -17  13  -7    2.20    0.27
  17 -13  -7    2.33    0.24
  -7 -17  13    2.44    0.28
  15  -7  17   -0.04    0.12
 -17  15   7   -0.17    0.11
  17 -15   7    0.04    0.15
 -15   7  17   -0.20    0.10
 -15   7  17   -0.11    0.12
   7  17 -15   -0.10    0.11
   7 -17  15    0.08    0.16
  -7  17  15    0.13    0.13
   7  17  15   -0.07    0.12
  -7 -17  15   -0.07    0.14
  17  15   7   -0.18    0.15
 -15  -7  17   -0.10    0.11
  15   7  17   -0.26    0.13
 -17 -15   7   -0.17    0.13
  -7  17 -15   -0.26    0.14
 -17  15  -7   -0.04    0.13
  15   7  17    0.01    0.14
   9  17  -1   -0.01    0.10
  -9  17   1    0.00    0.09
 -17   1   9    0.00    0.09
  17   1  -9   -0.01    0.11
   1  -9  17   -0.08    0.09
  -9  17   1    0.06    0.10
  -1   9  17    0.07    0.11
  17  -1   9    0.07    0.12
   1   9 -17    0.08    0.10
  -1   9  17   -0.05    0.08
   1   9  17    0.02    0.08
  17  -1  -9    0.07    0.12
  -1  -9  17   -0.12    0.09
   9  17   1    0.05    0.10
  17   1   9   -0.14    0.10
  -9  17  -1    0.22    0.09
  -1   9 -17    0.13    0.12
  -9  17  -1    0.05    0.09
   1   9  17    0.03    0.10
  -9 -17   1    0.05    0.08
   3  -9  17    2.89    0.31
  17   3  -9    2.92    0.28
  -9  17   3    3.36    0.26
  -3   9  17    2.82    0.27
   9  17  -3    3.32    0.25
   9 -17   3    3.44    0.25
  -3   9  17    2.86    0.22
   3   9 -17    2.73    0.24
  -9  17   3    2.97    0.26
  17  -3   9    2.54    0.27
 -17   3   9    3.41    0.29
  17  -3  -9    2.91    0.27
  -3   9 -17    2.69    0.26
  -3  -9  17    3.56    0.32
   3   9  17    3.47    0.30
  -9  17  -3    3.39    0.28
  17   3   9    3.28    0.30
  -9 -17   3    2.98    0.24
 -17  -3   9    3.34    0.29
   3   9  17    3.10    0.25
   9  17   3    2.84    0.27
   9 -17   5    0.40    0.12
  -5   9  17    0.51    0.15
  -9  17   5    0.18    0.11
  17  -5   9    0.26    0.15
   5   9 -17    0.22    0.11
  -9  17   5    0.42    0.13
 -17   5   9    0.26    0.12
   9  17  -5    0.17    0.10
   5  -9  17    0.04    0.13
  -5   9  17    0.25    0.10
   9  17  -5    0.14    0.10
  17   5   9    0.32    0.14
  -9 -17   5    0.24    0.11
  -5  -9  17    0.49    0.17
 -17  -5   9    0.39    0.14
   5   9  17    0.46    0.13
  -9  17  -5    0.44    0.15
  17  -5  -9    0.20    0.13
   5   9  17    0.27    0.15
  17   5   9    0.18    0.13
   9  17   5    0.21    0.14
   9 -17   7   -0.16    0.10
   9  17  -7    0.06    0.09
  -9  17   7    0.05    0.09
   9  17  -7    0.12    0.09
   7  -9  17    0.08    0.13
  -7   9  17   -0.08    0.10
  -9  17   7   -0.06    0.09
 -17   7   9   -0.03    0.09
  17  -7   9   -0.12    0.12
  -7   9  17    0.05    0.08
  -9  17  -7    0.00    0.10
  17  -7  -9   -0.09    0.09
   9  17   7    0.05    0.13
   7   9  17   -0.05    0.11
  17   7   9   -0.06    0.10
 -17  -7   9   -0.06    0.09
  17   7   9   -0.12    0.09
  -7  -9  17   -0.10    0.09
  -9 -17   7    0.02    0.10
   7   9  17   -0.03    0.09
   9 -17   9    0.01    0.11
  17  -9   9   -0.16    0.13
  -9  17   9   -0.03    0.09
   9  -9  17    0.03    0.12
   9  17  -9    0.11    0.11
  -9   9  17   -0.02    0.08
 -17   9   9   -0.10    0.08
  -9   9  17   -0.11    0.11
  -9  17   9    0.09    0.12
  -9 -17   9    0.03    0.10
  -9  -9  17    0.05    0.13
   9   9  17   -0.02    0.11
  -9  17  -9   -0.06    0.11
   9   9  17    0.05    0.12
   9  17   9   -0.14    0.10
  17   9   9   -0.07    0.11
  17   9   9    0.09    0.13
  17  -9  -9   -0.17    0.09
 -17  -9   9    0.04    0.11
  11  -9  17    0.23    0.15
 -11   9  17    0.07    0.12
  -9  17  11    0.00    0.10
 -11   9  17    0.00    0.11
 -17  11   9    0.08    0.11
  17 -11   9   -0.06    0.13
   9  17 -11    0.18    0.12
  -9  17  11    0.26    0.14
   9 -17  11    0.12    0.14
  11   9  17    0.11    0.12
  -9 -17  11    0.33    0.15
  11   9  17   -0.01    0.13
  17  11   9    0.10    0.12
   9  17  11    0.08    0.13
 -17 -11   9    0.03    0.12
  -9  17 -11   -0.20    0.08
 -11  -9  17   -0.11    0.11
  17  11   9    0.18    0.15
  17 -11  -9   -0.06    0.12
  17 -13   9    0.48    0.17
  -9  17  13    0.17    0.16
   9  17 -13    0.50    0.15
 -13   9  17    0.27    0.13
 -13   9  17    0.11    0.14
  13  -9  17    0.42    0.18
 -17  13   9    0.43    0.15
   9 -17  13    0.44    0.17
 -17  13  -9    0.29    0.16
  13   9  17    0.58    0.17
  17  13   9    0.37    0.16
   9  17  13    0.17    0.16
 -17 -13   9    0.20    0.15
  13   9  17    0.24    0.17
  -9  17 -13    0.46    0.18
  17  13   9    0.39    0.18
 -13  -9  17    0.38    0.17
  -9 -17  13    0.36    0.16
  -9  17  15    0.18    0.15
  15  -9  17   -0.13    0.17
  17 -15   9    0.36    0.17
 -17  15   9    0.07    0.14
   9 -17  15   -0.03    0.13
 -15   9  17   -0.02    0.13
  -9  17 -15    0.18    0.15
  -9 -17  15    0.15    0.16
  17  15   9    0.08    0.15
  15   9  17    0.26    0.16
 -17  15  -9    0.18    0.18
  15   9  17   -0.02    0.16
   9  17  15    0.00    0.16
 -17 -15   9   -0.02    0.13
 -15  -9  17   -0.06    0.16
 -11  17   1   -0.01    0.09
   1  11 -17   -0.01    0.11
  11  17  -1    0.03    0.10
   1 -11  17    0.03    0.12
  17  -1  11    0.09    0.12
  -1  11  17    0.09    0.13
 -11  17   1   -0.02    0.11
  11  17  -1    0.01    0.09
 -17   1  11   -0.09    0.09
 -11  17  -1    0.15    0.10
   1  11  17    0.06    0.13
 -11  17  -1    0.11    0.11
 -17  -1  11    0.05    0.11
  -1 -11  17   -0.04    0.11
  11  17   1    0.02    0.12
  -1  11 -17    0.06    0.12
  17   1  11    0.07    0.11
  17  -1 -11    0.14    0.12
 -17  -1  11    0.11    0.10
  17   1  11    0.14    0.13
  -3  11  17    0.75    0.18
 -11  17   3    0.66    0.15
   3  11 -17    0.42    0.15
  17  -3  11    0.37    0.15
  11  17  -3    0.68    0.16
  11 -17   3    0.30    0.13
 -17   3  11    0.47    0.16
 -11  17   3    0.54    0.14
   3 -11  17    0.61    0.18
  17  -3 -11    0.49    0.16
  17   3  11    0.27    0.14
  11  17   3    0.38    0.14
 -17  -3  11    0.53    0.16
 -11 -17   3    0.51    0.14
 -11  17  -3    0.33    0.15
  -3  11 -17    0.75    0.17
  -3 -11  17    0.78    0.20
  17   3  11    0.52    0.15
   3  11  17    0.59    0.18
   5  11 -17   -0.06    0.09
  -5  11  17    0.07    0.12
  11 -17   5   -0.07    0.10
  11  17  -5   -0.01    0.10
 -11  17   5    0.12    0.10
   5 -11  17    0.14    0.14
  11  17  -5   -0.08    0.10
 -11  17   5   -0.08    0.09
 -17   5  11    0.13    0.13
  17  -5  11   -0.08    0.13
  -5  11 -17    0.03    0.12
  11  17   5    0.00    0.13
   5  11  17    0.05    0.13
 -11  17  -5   -0.10    0.11
  17  -5 -11   -0.07    0.11
 -11 -17   5    0.01    0.09
  -5 -11  17    0.01    0.12
 -17  -5  11    0.02    0.10
  17   5  11    0.11    0.13
  17   5  11   -0.04    0.12
  11  17  -7    0.22    0.13
  11 -17   7    0.15    0.13
 -11  17   7    0.26    0.12
  -7  11  17    0.52    0.17
   7 -11  17    0.33    0.17
 -17   7  11    0.08    0.12
 -11  17   7    0.39    0.14
  17  -7  11    0.06    0.14
  11  17  -7    0.22    0.12
   7  11  17    0.16    0.14
  17   7  11    0.27    0.15
 -17  -7  11    0.32    0.16
  -7  11 -17    0.21    0.15
  17  -7 -11    0.29    0.14
 -11 -17   7    0.25    0.13
  -7 -11  17    0.23    0.15
 -11  17  -7    0.19    0.15
  11  17   7    0.26    0.13
  17   7  11    0.29    0.14
 -17   9  11    0.15    0.12
  11 -17   9    0.00    0.13
  11  17  -9    0.04    0.12
  -9  11  17    0.24    0.15
 -11  17   9    0.07    0.10
   9 -11  17    0.16    0.14
 -11  17   9   -0.01    0.11
  17  -9  11   -0.08    0.12
  11  17   9    0.13    0.12
 -17  -9  11    0.12    0.14
  17   9  11    0.27    0.15
  17   9  11    0.07    0.13
 -11 -17   9    0.02    0.11
   9  11  17    0.18    0.13
  17  -9 -11   -0.17    0.11
 -11  17  -9    0.22    0.16
  -9 -11  17    0.12    0.14
 -11  11  17   -0.02    0.11
 -11  17  11    0.17    0.11
  17 -11  11   -0.25    0.13
 -17  11  11   -0.10    0.10
  11  17 -11   -0.12    0.11
  11 -11  17    0.33    0.18
  11 -17  11    0.01    0.12
 -11 -17  11    0.01    0.12
  11  11  17    0.13    0.15
  17  11  11   -0.25    0.14
 -17 -11  11   -0.08    0.13
 -11 -11  17    0.14    0.15
  11  17  11   -0.05    0.12
 -11  17 -11   -0.25    0.11
  17  11  11    0.21    0.14
  17 -11 -11    0.09    0.13
 -13  11  17    1.10    0.23
  17 -13  11    1.51    0.25
 -11  17  13    1.10    0.23
  13 -11  17    1.08    0.24
  11 -17  13    1.17    0.24
 -17  13  11    1.41    0.24
 -11  17 -13    1.34    0.24
 -13 -11  17    1.01    0.24
  11  17  13    1.16    0.23
 -11 -17  13    1.48    0.25
  17  13  11    1.90    0.28
 -17 -13  11    1.08    0.23
  13  11  17    1.02    0.24
  15 -11  17    1.07    0.25
 -11  17  15    1.50    0.26
  11 -17  15    1.53    0.27
 -17  15  11    1.50    0.26
 -15  11  17    1.12    0.24
  17 -15  11    1.12    0.25
 -11 -17  15    1.40    0.25
 -15 -11  17    1.03    0.23
 -11  17 -15    1.13    0.25
  15  11  17    1.59    0.28
  11  17  15    1.03    0.25
 -17  15 -11    1.30    0.26
  17  15  11    1.28    0.28
 -17 -15  11    1.44    0.26
  13  17  -1    0.98    0.19
 -17   1  13    0.85    0.17
   1  13 -17    1.04    0.19
  17  -1  13    1.03    0.18
 -13  17   1    0.85    0.16
  17  -1  13    0.84    0.20
  -1  13  17    1.10    0.21
   1 -13  17    1.10    0.24
 -17   1  13    0.82    0.19
 -13  17   1    1.05    0.19
  13  17  -1    0.82    0.17
  17   1  13    0.96    0.18
  13  17   1    1.15    0.20
 -13  17  -1    1.03    0.17
   1  13  17    0.87    0.21
 -17  -1  13    0.82    0.18
  17   1  13    1.13    0.23
 -13  17  -1    0.78    0.18
  -1  13 -17    1.20    0.20
  -1 -13  17    0.94    0.22
 -17  -1  13    0.80    0.18
   3 -13  17    0.33    0.17
 -13  17   3    0.49    0.14
 -17   3  13    0.43    0.14
  -3  13  17    0.46    0.18
  17  -3  13    0.50    0.17
 -17   3  13    0.45    0.16
  13  17  -3    0.26    0.13
  13  17  -3    0.47    0.15
  17  -3  13    0.28    0.12
  13 -17   3    0.59    0.14
   3  13 -17    0.39    0.14
 -13  17   3    0.44    0.14
 -17  -3  13    0.29    0.14
   3  13  17    0.39    0.17
  -3 -13  17    0.38    0.17
 -17  -3  13    0.58    0.17
  17   3  13    0.65    0.18
  13  17   3    0.24    0.15
 -13  17  -3    0.69    0.16
  -3  13 -17    0.53    0.17
  17   3  13    0.25    0.13
  17  -3 -13    0.36    0.15
 -13  17   5    1.68    0.21
  13  17  -5    1.93    0.22
  13 -17   5    2.01    0.23
 -13  17   5    1.93    0.23
 -17   5  13    1.89    0.24
   5  13 -17    1.75    0.22
   5 -13  17    2.27    0.29
  -5  13  17    2.14    0.27
  17  -5  13    1.98    0.26
  13  17   5    2.17    0.26
 -13 -17   5    1.62    0.22
  -5 -13  17    1.86    0.27
  17   5  13    1.87    0.25
 -17  -5  13    1.98    0.25
   5  13  17    1.61    0.26
  17   5  13    1.84    0.25
  -5  13 -17    1.91    0.26
  17  -5 -13    1.82    0.24
 -13  17  -5    2.35    0.27
 -17   7  13    2.45    0.27
 -13  17   7    2.18    0.26
 -13  17   7    2.63    0.25
  17  -7  13    2.29    0.28
  13 -17   7    2.60    0.27
   7 -13  17    2.20    0.30
  -7  13  17    2.63    0.31
  13  17  -7    2.56    0.25
  -7 -13  17    1.89    0.27
  17   7  13    2.63    0.28
 -13  17  -7    2.46    0.28
 -13 -17   7    2.19    0.25
  17  -7 -13    1.82    0.23
  17   7  13    1.87    0.26
  -7  13 -17    2.36    0.28
 -17  -7  13    2.96    0.32
   7  13  17    2.50    0.30
  13  17   7    2.21    0.28
 -13  17   9    0.41    0.16
  13 -17   9    0.37    0.16
 -17   9  13    0.38    0.14
  17  -9  13    0.30    0.16
   9 -13  17    0.14    0.15
  -9  13  17    0.38    0.17
  13  17  -9    0.34    0.14
  17   9  13    0.41    0.17
 -13  17  -9    0.39    0.16
  -9  13 -17    0.53    0.19
  17  -9 -13    0.36    0.15
  17   9  13    0.61    0.18
  -9 -13  17    0.29    0.17
   9  13  17    0.30    0.18
 -17  -9  13    0.53    0.18
 -13 -17   9    0.50    0.17
  13  17   9    0.39    0.18
 -17  11  13    1.49    0.23
 -11  13  17    0.97    0.22
  11 -13  17    1.16    0.25
  13 -17  11    1.81    0.27
  17 -11  13    1.97    0.28
 -13  17  11    1.38    0.24
  11  13  17    1.07    0.25
 -17 -11  13    1.23    0.24
 -11 -13  17    1.17    0.24
 -11  13 -17    1.09    0.23
 -13  17 -11    0.97    0.22
  17  11  13    1.76    0.25
 -13 -17  11    1.31    0.23
  13  17  11    1.22    0.23
  17  11  13    1.79    0.28
 -13  13  17   -0.06    0.14
  13 -13  17   -0.17    0.12
  17 -13  13    0.31    0.19
  13 -17  13   -0.20    0.14
 -17  13  13   -0.19    0.09
 -13  17  13    0.13    0.15
 -17 -13  13   -0.02    0.14
 -13 -17  13    0.23    0.16
  13  13  17   -0.17    0.16
  17  13  13   -0.01    0.16
 -13  17 -13    0.12    0.15
  13  17  13   -0.10    0.12
 -13 -13  17    0.00    0.12
  17 -15  13    0.82    0.22
  13 -17  15    0.84    0.24
 -13  17  15    1.16    0.25
  15 -13  17    0.95    0.26
 -17  15  13    0.96    0.22
 -15  13  17    1.02    0.23
  17  15  13    1.52    0.29
 -17 -15  13    1.34    0.25
  13  17  15    1.02    0.27
 -13 -17  15    0.87    0.24
  15  13  17    0.72    0.24
 -13  17 -15    0.81    0.22
 -15 -13  17    0.64    0.21
 -17  15 -13    0.75    0.24
  -1  15  17    0.18    0.16
 -17   1  15   -0.20    0.12
   1  15 -17    0.34    0.15
  15  17  -1   -0.11    0.12
 -17   1  15    0.13    0.14
 -15  17   1    0.01    0.11
  17  -1  15   -0.01    0.13
   1 -15  17    0.14    0.15
  17  -1  15   -0.08    0.13
  15  17  -1    0.06    0.11
 -15  17   1   -0.06    0.12
  -1  15 -17   -0.15    0.14
  17   1  15   -0.28    0.14
 -15  17  -1    0.10    0.13
 -17  -1  15    0.05    0.16
   1  15  17    0.20    0.16
  15  17   1    0.16    0.17
 -15  17  -1    0.00    0.11
  -1 -15  17    0.14    0.16
 -17  -1  15    0.03    0.12
  17   1  15    0.24    0.14
 -17   3  15    0.43    0.17
  15  17  -3    0.35    0.17
  15  17  -3    0.55    0.17
   3  15 -17    0.33    0.18
 -15  17   3    0.51    0.16
  15 -17   3    0.16    0.15
 -15  17   3    0.42    0.15
 -17   3  15    0.22    0.15
   3 -15  17    0.62    0.20
  -3  15  17    0.22    0.18
  17  -3  15    0.17    0.17
  -3  15 -17    0.54    0.18
  15  17   3    0.21    0.15
 -17  -3  15    0.43    0.17
  17   3  15    0.43    0.18
  17   3  15    0.39    0.16
   3  15  17    0.31    0.18
  -3 -15  17    0.16    0.15
 -17  -3  15    0.25    0.16
 -15  17  -3    0.31    0.17
  17  -5  15   -0.12    0.13
   5  15 -17    0.08    0.12
 -15  17   5    0.00    0.11
 -17   5  15    0.16    0.14
   5 -15  17    0.33    0.17
  -5  15  17   -0.09    0.13
 -17   5  15   -0.06    0.13
 -15  17   5   -0.09    0.11
  15 -17   5   -0.15    0.13
  17  -5 -15    0.13    0.14
 -15  17  -5    0.14    0.13
 -17  -5  15    0.06    0.11
  15  17   5   -0.34    0.12
 -15 -17   5    0.07    0.12
   5  15  17    0.36    0.19
  -5  15 -17   -0.19    0.12
  17   5  15    0.10    0.14
  -5 -15  17    0.10    0.14
  17   5  15    0.05    0.14
 -15  17   7   -0.14    0.10
  17  -7  15    0.07    0.18
  15  17  -7   -0.01    0.12
  -7  15  17    0.18    0.14
 -17   7  15    0.05    0.14
   7 -15  17    0.08    0.15
  15 -17   7    0.01    0.15
 -15 -17   7   -0.01    0.12
  17   7  15    0.06    0.14
  17   7  15    0.07    0.17
   7  15  17    0.04    0.14
 -15  17  -7   -0.10    0.14
 -17  -7  15   -0.15    0.11
  -7  15 -17   -0.09    0.12
  17  -7 -15   -0.10    0.13
  -7 -15  17   -0.01    0.13
  15  17   7    0.01    0.13
  17  -9  15   -0.05    0.16
  -9  15  17    0.01    0.13
  15 -17   9    0.05    0.16
 -17   9  15    0.00    0.11
 -15  17   9    0.24    0.16
   9 -15  17    0.14    0.15
   9  15  17   -0.07    0.15
  17  -9 -15    0.08    0.16
 -15 -17   9   -0.08    0.12
  15  17   9    0.00    0.15
  -9  15 -17   -0.14    0.15
  -9 -15  17    0.08    0.16
 -17  -9  15    0.21    0.16
 -15  17  -9    0.03    0.15
  17   9  15    0.26    0.18
  17   9  15    0.22    0.16
 -17  11  15    1.47    0.25
  17 -11  15    1.53    0.28
 -11  15  17    1.89    0.28
  11 -15  17    1.16    0.26
  15 -17  11    1.43    0.25
 -15  17  11    1.24    0.23
 -17 -11  15    1.33    0.27
 -15  17 -11    0.80    0.24
 -11 -15  17    1.14    0.26
  11  15  17    0.75    0.23
 -15 -17  11    1.23    0.23
 -11  15 -17    1.14    0.24
  17  11  15    1.09    0.25
  15  17  11    1.47    0.26
  13 -15  17    0.83    0.24
 -13  15  17    0.51    0.19
  15 -17  13    0.71    0.23
 -17  13  15    0.87    0.22
  17 -13  15    1.29    0.28
 -15  17  13    0.91    0.22
  13  15  17    0.43    0.21
 -13  15 -17    0.93    0.24
  15  17  13    0.97    0.25
 -17 -13  15    0.92    0.24
  17  13  15    1.10    0.25
 -15  17 -13    0.81    0.24
 -13 -15  17    0.97    0.25
 -15 -17  13    0.66    0.22
 -17  15  15   -0.06    0.15
  15 -17  15   -0.04    0.15
 -15  15  17   -0.07    0.15
 -15  17  15    0.09    0.15
  17 -15  15   -0.51    0.17
  15 -15  17   -0.06    0.17
  17  15  15   -0.08    0.19
  15  15  17   -0.22    0.17
 -15 -15  17   -0.15    0.17
 -17 -15  15   -0.27    0.17
 -15  17 -15   -0.31    0.16
  15  17  15    0.01    0.16
 -15 -17  15   -0.10    0.16
   1 -17  17   -0.17    0.13
  17  17  -1   -0.08    0.11
 -17   1  17   -0.07    0.11
 -17  17   1    0.10    0.13
  -1  17  17   -0.02    0.15
   1  17 -17   -0.11    0.12
  17  17  -1    0.22    0.14
 -17   1  17   -0.05    0.11
  17  -1  17   -0.12    0.11
 -17  17   1   -0.10    0.12
 -17  -1  17    0.04    0.14
  17  17   1   -0.16    0.13
 -17  17  -1   -0.10    0.11
 -17  -1  17   -0.08    0.11
  17   1  17   -0.17    0.13
   1  17  17   -0.16    0.13
  17   1  17   -0.01    0.10
  -1  17 -17   -0.07    0.13
  -1 -17  17   -0.12    0.12
 -17   3  17    0.02    0.13
  -3  17  17   -0.07    0.12
   3  17 -17   -0.11    0.12
  17  17  -3   -0.01    0.12
  17 -17   3    0.30    0.15
  17  17  -3    0.00    0.12
 -17   3  17    0.09    0.12
 -17  17   3    0.00    0.13
   3 -17  17   -0.15    0.13
 -17  17   3    0.01    0.12
  17  -3  17   -0.22    0.12
  17   3  17   -0.05    0.14
 -17  17  -3    0.00    0.12
   3  17  17   -0.21    0.13
 -17  -3  17   -0.04    0.12
 -17  -3  17    0.06    0.13
  -3 -17  17   -0.10    0.12
  17   3  17   -0.05    0.14
  17  17   3   -0.08    0.11
  -3  17 -17   -0.10    0.10
   5 -17  17   -0.10    0.16
  17  17  -5   -0.08    0.11
  -5  17  17   -0.23    0.11
 -17   5  17    0.12    0.15
  17  -5  17    0.15    0.15
 -17   5  17    0.12    0.12
  17 -17   5   -0.04    0.14
 -17  17   5   -0.19    0.10
   5  17 -17    0.02    0.13
  17   5  17   -0.09    0.13
   5  17  17   -0.12    0.15
  17   5  17    0.01    0.13
 -17  17  -5   -0.04    0.13
  -5  17 -17   -0.04    0.13
  -5 -17  17   -0.11    0.14
  17  17   5   -0.14    0.11
 -17  -5  17    0.03    0.12
   7 -17  17   -0.05    0.16
 -17  17   7    0.06    0.12
  17 -17   7   -0.05    0.14
  -7  17  17   -0.09    0.14
 -17   7  17   -0.12    0.13
  17  -7  17    0.00    0.13
  17   7  17    0.09    0.15
  17  -7 -17   -0.10    0.13
  -7 -17  17   -0.05    0.15
  17   7  17    0.07    0.15
   7  17  17    0.08    0.17
 -17  -7  17   -0.02    0.11
 -17 -17   7   -0.06    0.13
 -17  17  -7    0.00    0.13
  -7  17 -17    0.00    0.14
  17  17   7   -0.05    0.13
  17 -17   9   -0.05    0.15
  17  -9  17   -0.11    0.15
   9 -17  17   -0.18    0.15
 -17   9  17   -0.03    0.13
 -17  17   9   -0.21    0.09
  -9  17  17   -0.03    0.14
  17   9  17    0.00    0.16
   9  17  17    0.00    0.15
  17   9  17   -0.20    0.12
 -17  -9  17    0.06    0.14
  -9 -17  17    0.10    0.15
  -9  17 -17    0.09    0.15
  17  17   9   -0.14    0.13
 -17 -17   9   -0.21    0.10
 -17  17  -9   -0.08    0.14
  11 -17  17   -0.17    0.15
 -11  17  17   -0.05    0.14
  17 -11  17   -0.09    0.15
  17 -17  11    0.06    0.18
 -17  11  17   -0.22    0.11
 -17  17  11   -0.20    0.12
 -17 -11  17   -0.07    0.13
 -11  17 -17   -0.16    0.13
 -11 -17  17   -0.06    0.16
 -17 -17  11   -0.08    0.14
  11  17  17    0.01    0.17
  17  17  11   -0.11    0.12
  17  11  17    0.13    0.18
 -17  17 -11   -0.29    0.14
 -17  17  13   -0.11    0.11
  17 -17  13   -0.08    0.15
 -13  17  17   -0.17    0.13
  17 -13  17    0.12    0.19
  13 -17  17   -0.20    0.17
 -17  13  17   -0.19    0.12
 -17 -17  13    0.06    0.15
 -17  17 -13   -0.24    0.14
  13  17  17    0.04    0.20
  17  13  17    0.03    0.19
 -17 -13  17   -0.08    0.13
 -13 -17  17    0.27    0.18
 -13  17 -17    0.03    0.14
  17  17  13   -0.01    0.19
 -17  15  17   -0.24    0.12
 -15  17  17   -0.23    0.14
  17 -15  17    0.11    0.18
 -17  17  15   -0.11    0.15
  17 -17  15    0.05    0.19
  15 -17  17   -0.20    0.19
 -15  17 -17    0.14    0.16
 -15 -17  17   -0.25    0.18
  15  17  17   -0.34    0.18
  17  17  15    0.05    0.19
 -17 -17  15   -0.16    0.18
 -17 -15  17   -0.10    0.15
  17  15  17   -0.28    0.14
 -17  17 -15   -0.15    0.16
 -17  17  17    0.25    0.17
  17 -17  17    0.29    0.21
 -17 -17  17    0.03    0.17
  17  17  17    0.34    0.24
   0   0  18    0.05    0.07
   0   0  18    0.10    0.11
  18   0   0    0.06    0.10
   0  18   0   -0.04    0.08
   0  18   0    0.02    0.09
  18  -2   0    1.01    0.18
   0  18   2    0.60    0.15
   2   0  18    0.32    0.13
   0  18   2    0.44    0.13
  18   2   0    0.84    0.16
   2   0  18    0.37    0.10
   0  18  -2    0.53    0.14
  -2   0  18    0.56    0.15
   0  18  -2    0.61    0.13
  -2   0  18    0.46    0.11
   0 -18   4    0.10    0.07
  -4   0  18    0.08    0.08
   0  18   4   -0.06    0.09
  -4   0  18    0.08    0.10
  18   4   0   -0.01    0.09
   0  18  -4    0.07    0.11
   4   0  18    0.00    0.08
  18  -4   0   -0.05    0.10
   4   0  18    0.02    0.09
  18  -6   0    4.30    0.33
  18   6   0    3.93    0.31
  -6   0  18    4.06    0.32
  -6   0  18    3.83    0.27
   0  18   6    4.33    0.33
   6   0  18    3.81    0.26
   0 -18   6    4.32    0.28
   0  18  -6    3.97    0.31
   6   0  18    3.75    0.32
   0  18   8    0.09    0.12
  18   8   0    0.00    0.09
   8   0  18    0.12    0.10
  -8   0  18   -0.01    0.09
   0  18  -8    0.08    0.10
   0 -18   8    0.08    0.09
   8   0  18    0.02    0.09
  -8   0  18    0.05    0.09
  18  -8   0    0.09    0.12
  18  10   0    1.59    0.23
   0  18  10    1.32    0.23
 -18  10   0    1.98    0.22
 -10   0  18    1.48    0.20
  10   0  18    1.33    0.22
 -18  10   0    1.69    0.20
   0 -18  10    2.06    0.24
 -10   0  18    1.79    0.24
  10   0  18    1.98    0.20
  18 -10   0    1.66    0.23
   0  18 -10    2.03    0.24
   0 -18  12   -0.02    0.10
   0  18 -12   -0.18    0.10
 -12   0  18   -0.05    0.12
  12   0  18    0.04    0.12
  18 -12   0    0.07    0.13
  12   0  18    0.04    0.10
 -18  12   0    0.17    0.11
 -12   0  18    0.11    0.10
   0  18  12    0.05    0.12
  18  12   0   -0.07    0.10
 -18  12   0    0.01    0.11
   0  18 -14    1.81    0.25
  14   0  18    2.46    0.25
 -18  14   0    2.22    0.25
   0  18  14    2.22    0.29
   0 -18  14    1.58    0.26
 -14   0  18    2.47    0.27
  18  14   0    1.66    0.25
  14   0  18    1.44    0.25
  18 -14   0    2.02    0.25
 -18  14   0    2.27    0.25
 -14   0  18    1.91    0.26
 -16   0  18   -0.03    0.11
 -16   0  18    0.19    0.14
   0 -18  16   -0.16    0.12
   0  18  16    0.25    0.17
  16   0  18    0.33    0.17
 -18  16   0    0.20    0.13
   0  18 -16    0.19    0.15
  18  16   0   -0.02    0.12
  18 -16   0    0.41    0.17
 -18  16   0    0.18    0.15
  18  16   0    0.12    0.13
   2  18   0    0.67    0.13
   0   2  18    0.30    0.11
  18   0   2    0.60    0.15
  -2  18   0    0.62    0.14
   0  -2  18    0.39    0.15
  -2  18   0    0.31    0.11
   0   2  18    0.75    0.17
   0  -2  18    0.43    0.11
   2  18   0    0.63    0.14
  18   0  -2    0.49    0.15
   2  18  -2   41.47    1.25
  -2  18   2   40.95    1.25
  -2  18   2   41.22    1.20
  -2   2  18   41.00    1.16
  -2   2  18   39.16    1.28
   2  -2  18   40.87    1.10
   2  -2  18   40.05    1.33
  18   2  -2   43.48    1.31
   2  18  -2   42.28    1.17
  18  -2   2   40.38    1.29
  -2  -2  18   42.19    1.12
  18  -2  -2   41.16    1.29
  -2  18  -2   40.86    1.13
   2   2  18   40.53    1.30
  -2  -2  18   40.36    1.33
   2  18   2   43.93    1.23
  18   2   2   40.85    1.29
   2   2  18   40.49    1.16
  -2  18  -2   39.16    1.25
   2  18  -4    4.13    0.26
  -4   2  18    3.92    0.32
  -4   2  18    4.05    0.28
  18   4  -2    4.36    0.33
   2  18  -4    4.20    0.31
   4  -2  18    4.20    0.34
   4  -2  18    4.29    0.24
  -2  18   4    4.11    0.31
  18  -4   2    4.37    0.33
  -2  18   4    4.32    0.30
   2 -18   4    4.12    0.26
   4   2  18    5.00    0.35
  -4  -2  18    4.27    0.34
   4   2  18    4.01    0.27
  18  -4  -2    4.87    0.34
  -2  18  -4    4.59    0.32
   2  18   4    4.14    0.31
  18   4   2    4.95    0.34
  -2 -18   4    4.72    0.26
  -4  -2  18    4.11    0.26
  -6   2  18   26.17    0.84
   6  -2  18   24.83    0.95
 -18   6   2   26.06    0.90
   2 -18   6   26.33    0.86
  -2  18   6   26.10    0.89
  -2  18   6   26.16    0.91
  18   6  -2   25.52    0.95
  18  -6   2   25.37    0.92
  -6   2  18   25.60    0.92
   2  18  -6   25.07    0.90
  -6  -2  18   26.34    0.82
  -6  -2  18   25.29    0.96
   6   2  18   25.30    0.94
  18  -6  -2   26.78    0.92
  18   6   2   26.34    0.94
  -2 -18   6   26.91    0.85
  -2  18  -6   24.86    0.91
   2  18   6   25.04    0.90
   6   2  18   26.62    0.84
   2 -18   8    0.06    0.10
  -2  18   8    0.06    0.13
  18  -8   2    0.10    0.11
   8  -2  18    0.18    0.13
 -18   8   2   -0.03    0.09
  18   8  -2   -0.07    0.07
  -8   2  18    0.06    0.09
  -8   2  18   -0.03    0.07
   2  18  -8    0.05    0.11
  18  -8  -2   -0.09    0.10
  -2 -18   8   -0.10    0.08
   8   2  18    0.46    0.15
   2  18   8    0.21    0.14
  -2  18  -8    0.34    0.13
  -8  -2  18    0.10    0.11
  -8  -2  18    0.03    0.09
   8   2  18    0.02    0.10
  18   8   2    0.13    0.12
   2 -18  10   24.07    0.89
 -18  10   2   26.49    0.85
 -10   2  18   23.17    0.90
  -2  18  10   28.43    0.98
  18  10  -2   25.11    0.96
   2  18 -10   24.46    0.90
  10  -2  18   25.19    0.96
  18 -10   2   23.79    0.90
 -18  10   2   25.61    0.89
 -10   2  18   24.66    0.86
  10   2  18   24.33    0.93
  -2  18 -10   25.70    0.93
 -18  10  -2   25.97    0.89
   2  18  10   24.38    0.93
 -10  -2  18   24.89    0.95
 -10  -2  18   25.32    0.85
  -2 -18  10   25.81    0.91
  10   2  18   25.53    0.85
  18  10   2   26.41    0.95
  18 -10  -2   24.67    0.89
 -12   2  18    2.68    0.27
  18  12  -2    2.50    0.28
  -2  18  12    2.73    0.30
   2  18 -12    2.13    0.26
  12  -2  18    2.44    0.28
  18 -12   2    2.15    0.25
 -12   2  18    2.58    0.27
 -18  12   2    2.97    0.25
   2 -18  12    2.35    0.27
 -18  12   2    2.48    0.25
 -18  12  -2    2.62    0.26
 -12  -2  18    2.89    0.27
 -12  -2  18    2.98    0.30
  -2 -18  12    3.04    0.29
  12   2  18    2.65    0.29
  12   2  18    1.99    0.24
  18  12   2    2.40    0.27
  18 -12  -2    2.65    0.27
  -2  18 -12    1.77    0.24
   2  18  12    2.23    0.29
  14  -2  18   27.19    1.05
 -14   2  18   28.13    1.03
 -14   2  18   27.38    0.98
  18  14  -2   27.05    1.04
   2 -18  14   27.19    1.03
 -18  14   2   28.61    0.96
 -18  14   2   28.65    0.98
  18 -14   2   27.91    1.00
  -2  18  14   28.58    1.07
   2  18 -14   28.93    1.02
 -14  -2  18   28.65    0.99
  18  14   2   27.57    1.03
  -2  18 -14   28.68    1.04
  18 -14  -2   28.76    0.99
  14   2  18   27.29    0.96
 -18  14  -2   27.68    0.94
 -14  -2  18   27.95    1.06
  14   2  18   28.63    1.06
  18  14   2   27.54    1.03
  -2 -18  14   28.30    1.05
   2  18  14   26.99    1.05
 -18  14  -2   29.98    1.01
  -2  18  16    0.22    0.15
 -16   2  18    0.38    0.16
   2 -18  16    0.34    0.18
  18 -16   2    0.11    0.15
   2  18 -16    0.47    0.18
  18  16  -2    0.12    0.15
 -16   2  18    0.27    0.15
 -18  16   2    0.09    0.12
  16  -2  18    0.24    0.15
 -18  16   2    0.26    0.14
 -16  -2  18    0.17    0.15
  16   2  18    0.18    0.15
  -2 -18  16   -0.03    0.15
   2  18  16    0.12    0.16
  -2  18 -16    0.41    0.17
  16   2  18    0.18    0.15
 -16  -2  18    0.40    0.16
  18  16   2    0.42    0.16
 -18  16  -2    0.24    0.15
  18  16   2    0.22    0.16
   0   4  18    0.08    0.10
  18   0   4    0.26    0.13
   0  -4  18   -0.03    0.09
  18   0  -4    0.01    0.10
  -4  18   0   -0.18    0.08
   0   4  18    0.11    0.10
   4  18   0    0.16    0.11
  -4  18   0   -0.03    0.09
  18  -2   4    4.02    0.33
   2  -4  18    4.14    0.33
  -4  18   2    4.42    0.30
  -2   4  18    4.23    0.31
  -4  18   2    4.35    0.31
  18   2  -4    3.94    0.32
   4  18  -2    4.43    0.31
  -2   4  18    4.49    0.30
   4  18  -2    4.48    0.28
  -2  -4  18    3.79    0.33
   2   4  18    4.68    0.33
  18  -2  -4    4.53    0.33
   4  18   2    4.15    0.30
  -2  -4  18    3.85    0.23
  -4  18  -2    3.74    0.25
   2   4  18    4.29    0.29
  18   2   4    3.81    0.31
  -4  18  -2    3.96    0.30
   4  18  -4   -0.02    0.08
  -4  18   4    0.03    0.10
  18   4  -4    0.09    0.10
   4  -4  18    0.17    0.12
  18  -4   4    0.04    0.10
 -18   4   4    0.08    0.09
   4  18  -4    0.10    0.10
  -4   4  18    0.12    0.10
  -4  18   4    0.07    0.10
   4 -18   4    0.04    0.09
  -4   4  18    0.17    0.11
   4  18   4    0.22    0.13
   4   4  18    0.16    0.11
   4   4  18    0.07    0.11
  -4  18  -4    0.11    0.10
  -4  -4  18   -0.04    0.08
  18   4   4    0.18    0.10
  18  -4  -4    0.16    0.11
  -4 -18   4    0.09    0.08
  -4  -4  18    0.04    0.08
   4 -18   6    0.33    0.13
  18  -6   4    0.32    0.14
  -6   4  18    0.13    0.10
  18   6  -4    0.19    0.11
  -4  18   6    0.14    0.10
  -4  18   6   -0.08    0.10
   6  -4  18    0.16    0.12
   4  18  -6    0.20    0.12
 -18   6   4    0.28    0.12
  -6   4  18    0.05    0.10
  18   6   4    0.10    0.12
   4  18   6    0.38    0.14
  -6  -4  18    0.41    0.11
   6   4  18    0.27    0.12
  -6  -4  18    0.16    0.12
  -4  18  -6    0.25    0.13
  18  -6  -4    0.16    0.12
   6   4  18   -0.04    0.10
  -4 -18   6    0.25    0.11
 -18   8   4    0.06    0.10
  18   8  -4    0.03    0.10
  -8   4  18    0.18    0.11
   4 -18   8   -0.01    0.10
  -4  18   8    0.08    0.12
   4  18  -8   -0.04    0.10
   8  -4  18   -0.02    0.10
  -8   4  18    0.17    0.11
  18  -8   4   -0.04    0.12
  -4  18   8   -0.01    0.09
   4  18   8    0.07    0.12
  -4  18  -8    0.04    0.11
  -8  -4  18    0.02    0.08
   8   4  18    0.06    0.10
  18   8   4    0.09    0.11
  18  -8  -4    0.16    0.12
  -8  -4  18    0.05    0.09
  -4 -18   8    0.12    0.10
   8   4  18    0.07    0.10
 -18  10   4    0.55    0.15
   4  18 -10    0.51    0.16
 -10   4  18    0.62    0.16
  -4  18  10    0.52    0.18
  18  10  -4    0.59    0.18
  18 -10   4    0.64    0.17
 -10   4  18    0.49    0.14
   4 -18  10    0.54    0.16
  10  -4  18    0.74    0.18
  10   4  18    0.43    0.15
  18  10   4    0.54    0.15
  10   4  18    0.44    0.15
 -10  -4  18    0.60    0.14
 -10  -4  18    0.58    0.16
   4  18  10    0.53    0.16
  -4  18 -10    0.72    0.18
  -4 -18  10    0.69    0.16
  18 -10  -4    0.65    0.16
  12  -4  18    0.35    0.14
  18 -12   4    0.39    0.16
 -18  12   4    0.25    0.13
   4  18 -12    0.08    0.11
  -4  18  12    0.44    0.17
  18  12  -4    0.42    0.16
   4 -18  12    0.15    0.13
 -12   4  18    0.10    0.13
 -12   4  18    0.40    0.14
  18 -12  -4    0.47    0.15
 -18  12  -4    0.15    0.14
 -12  -4  18    0.16    0.11
  12   4  18    0.12    0.13
  -4  18 -12    0.39    0.16
  18  12   4    0.16    0.14
 -12  -4  18    0.18    0.13
  12   4  18    0.30    0.15
  -4 -18  12    0.32    0.15
  18  12   4    0.39    0.15
   4  18  12    0.52    0.17
  -4  18  14    2.73    0.32
  18  14  -4    3.41    0.33
   4  18 -14    3.45    0.31
   4 -18  14    2.71    0.31
  18 -14   4    2.74    0.30
  14  -4  18    2.74    0.31
 -14   4  18    3.04    0.31
 -18  14   4    3.23    0.29
 -14   4  18    2.81    0.28
   4  18  14    2.81    0.32
  14   4  18    3.04    0.33
  -4  18 -14    3.25    0.31
  18 -14  -4    3.04    0.29
  18  14   4    3.52    0.32
 -14  -4  18    2.99    0.32
 -14  -4  18    3.33    0.30
  -4 -18  14    2.95    0.31
  14   4  18    3.10    0.31
  18  14   4    3.47    0.33
 -18  14  -4    3.16    0.31
 -16   4  18    0.14    0.13
   4 -18  16    0.10    0.14
  18  16  -4    0.10    0.13
  18 -16   4   -0.03    0.15
   4  18 -16    0.06    0.13
 -18  16   4   -0.07    0.10
 -16   4  18   -0.01    0.12
  -4  18  16    0.09    0.15
  16  -4  18    0.08    0.14
  -4 -18  16    0.21    0.15
 -16  -4  18    0.10    0.14
 -16  -4  18    0.14    0.12
  18  16   4   -0.07    0.12
  -4  18 -16    0.03    0.14
   4  18  16    0.01    0.15
  16   4  18    0.33    0.16
  16   4  18    0.03    0.15
 -18  16  -4    0.04    0.13
  18   0   6    4.06    0.32
   0   6  18    3.96    0.30
  -6  18   0    3.65    0.30
  18   0  -6    3.92    0.31
   0  -6  18    4.56    0.36
   6  18   0    3.83    0.28
  -6  18   0    3.98    0.27
   0   6  18    3.88    0.29
   6  18  -2   25.62    0.89
   6  18  -2   26.29    0.84
 -18   2   6   23.67    0.89
  -2   6  18   26.32    0.89
  18   2  -6   25.75    0.94
  -6  18   2   26.29    0.90
  -6  18   2   25.63    0.84
   2  -6  18   25.52    0.97
  18  -2   6   25.12    0.94
  -2   6  18   26.91    0.88
   2   6  18   28.26    0.92
  -6  18  -2   25.06    0.77
  -6  18  -2   25.08    0.91
   6  18   2   24.94    0.86
  -2  -6  18   26.45    0.99
  18   2   6   25.06    0.94
  18  -2  -6   25.69    0.93
   2   6  18   26.17    0.88
  -6  18   4    0.11    0.10
  18   4  -6    0.14    0.10
  -4   6  18    0.25    0.10
  -6  18   4   -0.01    0.09
   6 -18   4    0.14    0.09
 -18   4   6    0.22    0.12
   4  -6  18    0.09    0.11
  18  -4   6    0.47    0.15
   6  18  -4    0.13    0.10
  -4   6  18    0.17    0.11
   6  18  -4    0.19    0.10
   4   6  18    0.01    0.09
  -4  -6  18    0.16    0.12
   4   6  18    0.23    0.12
  -6 -18   4    0.10    0.08
  -6  18  -4    0.09    0.09
  18  -4  -6    0.46    0.14
  18   4   6    0.18    0.12
   6  18   4    0.21    0.11
   6  -6  18   31.46    1.11
  18  -6   6   28.35    1.04
  -6   6  18   28.85    0.97
   6  18  -6   31.90    1.02
  -6   6  18   29.70    0.98
  -6  18   6   31.52    1.01
   6 -18   6   29.90    0.98
  18   6  -6   29.89    1.06
  -6  18   6   28.88    0.99
 -18   6   6   29.13    0.99
  18  -6  -6   30.89    1.02
   6   6  18   28.52    1.01
   6  18   6   29.71    1.01
  -6 -18   6   31.75    0.97
   6   6  18   29.52    0.98
  18   6   6   28.88    1.04
  -6  -6  18   29.67    1.09
  -6  18  -6   29.99    1.03
  -6  18   8    0.26    0.14
 -18   8   6   -0.06    0.09
  18  -8   6    0.17    0.15
  -6  18   8   -0.01    0.10
  -8   6  18    0.12    0.11
  18   8  -6    0.05    0.11
   6 -18   8    0.02    0.11
   8  -6  18    0.02    0.10
  -8   6  18    0.01    0.10
   6  18  -8    0.21    0.12
  18  -8  -6    0.25    0.13
  -6 -18   8    0.02    0.10
  -6  18  -8    0.13    0.11
  -8  -6  18    0.35    0.13
   8   6  18    0.16    0.12
   6  18   8    0.19    0.14
  -8  -6  18    0.00    0.08
   8   6  18    0.08    0.11
  18   8   6    0.05    0.11
   6  18 -10   25.35    0.90
  -6  18  10   24.96    0.94
  18  10  -6   24.83    0.96
   6 -18  10   24.01    0.90
 -18  10   6   24.98    0.90
  10  -6  18   26.06    0.98
  -6  18  10   26.18    0.88
  18 -10   6   24.08    0.93
 -10   6  18   24.25    0.88
 -10   6  18   25.15    0.90
  -6 -18  10   26.34    0.91
  10   6  18   24.25    0.89
  18  10   6   24.28    0.93
  10   6  18   24.04    0.91
  18  10   6   24.09    0.93
  -6  18 -10   24.76    0.93
  18 -10  -6   25.72    0.89
 -10  -6  18   23.96    0.97
   6  18  10   25.10    0.93
 -10  -6  18   24.75    0.83
  18 -12   6   -0.03    0.12
 -12   6  18    0.02    0.11
  12  -6  18    0.02    0.12
  18  12  -6    0.09    0.13
 -12   6  18    0.04    0.11
   6 -18  12    0.07    0.12
  -6  18  12    0.09    0.11
   6  18 -12    0.14    0.13
 -18  12   6   -0.03    0.11
  -6  18  12    0.28    0.13
  -6  18 -12   -0.01    0.10
  18  12   6    0.21    0.14
  18 -12  -6    0.29    0.14
  18  12   6    0.01    0.11
  12   6  18    0.21    0.14
  12   6  18    0.01    0.12
 -18  12  -6    0.20    0.14
 -12  -6  18    0.23    0.13
  -6 -18  12    0.08    0.13
 -12  -6  18    0.11    0.12
   6  18  12   -0.13    0.09
  14  -6  18   24.20    0.97
  18 -14   6   24.69    0.92
  -6  18  14   21.40    0.92
  18  14  -6   22.84    0.93
   6  18 -14   24.52    0.89
   6 -18  14   21.87    0.91
 -14   6  18   23.47    0.90
 -18  14   6   23.55    0.89
 -14   6  18   24.62    0.90
  18  14   6   23.49    0.92
  14   6  18   23.19    0.92
  -6  18 -14   23.00    0.92
  -6 -18  14   24.95    0.95
  18  14   6   22.64    0.92
  14   6  18   22.91    0.89
   6  18  14   25.29    0.96
 -18  14  -6   22.09    0.90
 -14  -6  18   22.83    0.86
 -14  -6  18   22.29    0.96
 -18  16   6    0.11    0.13
 -16   6  18    0.25    0.15
 -16   6  18    0.21    0.16
  -6  18  16   -0.04    0.15
   6  18 -16    0.11    0.14
  18 -16   6    0.06    0.16
  18  16  -6    0.09    0.14
   6 -18  16    0.35    0.18
  16  -6  18    0.11    0.14
  18  16   6    0.09    0.13
  16   6  18    0.27    0.16
 -18  16  -6    0.02    0.16
  -6  18 -16   -0.05    0.12
  -6 -18  16    0.15    0.15
 -16  -6  18   -0.04    0.13
  16   6  18    0.25    0.17
   6  18  16    0.15    0.15
   8  18   0    0.07    0.10
   0  -8  18   -0.07    0.10
   0   8  18    0.06    0.09
  -8  18   0    0.13    0.10
  18   0  -8   -0.13    0.08
   0   8  18    0.03    0.11
  -8  18   0    0.06    0.08
  18   0   8   -0.04    0.10
   2  -8  18    0.33    0.15
  -2   8  18    0.05    0.09
  -2   8  18    0.04    0.10
  -8  18   2    0.02    0.09
   2   8 -18    0.06    0.09
 -18   2   8    0.05    0.11
   8  18  -2    0.15    0.10
  18  -2   8    0.04    0.11
  -8  18   2    0.25    0.12
  18   2  -8   -0.08    0.10
  -8  18  -2    0.09    0.10
  18   2   8    0.22    0.13
  -2  -8  18   -0.01    0.11
   8  18   2    0.16    0.12
   2   8  18   -0.05    0.10
  18  -2  -8    0.24    0.14
   2   8  18    0.12    0.11
   8  18  -4    0.13    0.10
 -18   4   8    0.17    0.11
   4  -8  18    0.05    0.10
   8  18  -4   -0.04    0.10
   4   8 -18    0.36    0.12
  -4   8  18    0.21    0.11
  -8  18   4    0.26    0.13
  -8  18   4   -0.04    0.10
  -4   8  18    0.19    0.11
   8 -18   4    0.19    0.11
  18  -4   8    0.23    0.14
  18   4  -8   -0.04    0.10
  -8 -18   4    0.18    0.11
   4   8  18   -0.05    0.10
  -4  -8  18   -0.09    0.07
   8  18   4    0.11    0.11
  18  -4  -8    0.05    0.12
  18   4   8    0.15    0.13
   4   8  18   -0.06    0.09
  -8  18  -4    0.10    0.11
  18  -6   8    0.29    0.16
  -8  18   6    0.12    0.12
 -18   6   8   -0.06    0.09
   6  -8  18    0.03    0.12
   8 -18   6   -0.07    0.10
   8  18  -6   -0.05    0.09
  -6   8  18    0.08    0.12
  18   6  -8    0.33    0.13
  -8  18   6   -0.01    0.09
   8  18  -6    0.28    0.10
  -6   8  18    0.10    0.10
   8  18   6    0.04    0.12
  -8  18  -6    0.06    0.12
  -8 -18   6   -0.05    0.09
  -6  -8  18    0.06    0.11
  18  -6  -8    0.09    0.13
   6   8  18    0.03    0.12
  18   6   8    0.15    0.12
   6   8  18    0.06    0.12
  18   8  -8    0.23    0.13
 -18   8   8    0.13    0.12
   8 -18   8    0.29    0.14
   8  -8  18    0.37    0.16
  18  -8   8   -0.03    0.13
  -8  18   8    0.12    0.11
  -8   8  18    0.03    0.12
  -8   8  18    0.27    0.11
   8  18  -8    0.45    0.14
  -8  18   8    0.19    0.13
   8   8  18    0.19    0.14
  -8 -18   8    0.07    0.12
  -8  -8  18    0.00    0.10
   8  18   8    0.20    0.12
  18   8   8    0.06    0.13
  -8  18  -8   -0.13    0.10
 -18  -8   8    0.08    0.11
  18   8   8    0.25    0.14
   8   8  18    0.37    0.14
  18  -8  -8    0.14    0.13
 -10   8  18    3.50    0.28
  -8  18  10    3.07    0.31
   8 -18  10    3.18    0.30
  -8  18  10    3.65    0.30
  18  10  -8    3.11    0.32
  18 -10   8    3.21    0.32
   8  18 -10    2.93    0.28
 -10   8  18    3.44    0.30
  10  -8  18    2.93    0.32
 -18  10   8    3.44    0.30
  18  10   8    3.35    0.33
  -8  18 -10    4.02    0.33
 -10  -8  18    3.45    0.34
  18  10   8    3.39    0.32
  10   8  18    2.93    0.30
  -8 -18  10    3.13    0.29
 -18 -10   8    3.17    0.32
  18 -10  -8    3.72    0.30
  10   8  18    3.26    0.30
   8  18  10    3.64    0.33
  12  -8  18   -0.17    0.12
 -18  12   8   -0.09    0.08
   8  18 -12   -0.06    0.11
 -12   8  18    0.22    0.13
   8 -18  12   -0.06    0.12
  -8  18  12    0.03    0.12
  -8  18  12    0.09    0.11
  18 -12   8    0.18    0.14
 -12   8  18    0.05    0.11
  -8 -18  12    0.22    0.14
  18  12   8   -0.11    0.11
   8  18  12   -0.13    0.11
 -18 -12   8   -0.03    0.11
  -8  18 -12   -0.04    0.13
 -12  -8  18    0.00    0.11
  18  12   8    0.17    0.14
  12   8  18    0.06    0.12
  18 -12  -8    0.12    0.13
  12   8  18   -0.08    0.09
 -14   8  18    0.34    0.15
   8 -18  14    0.02    0.15
   8  18 -14    0.20    0.14
  -8  18  14    0.06    0.15
 -18  14   8    0.33    0.16
  14  -8  18    0.38    0.19
  18 -14   8    0.00    0.16
 -14   8  18    0.08    0.15
 -14  -8  18    0.13    0.13
 -18 -14   8    0.12    0.14
  18  14   8    0.49    0.17
  -8 -18  14    0.07    0.13
 -18  14  -8    0.06    0.15
  -8  18 -14    0.61    0.19
  14   8  18    0.30    0.16
   8  18  14    0.45    0.19
  14   8  18    0.22    0.18
 -18  16   8    0.03    0.12
 -16   8  18    0.15    0.15
  16  -8  18    0.17    0.16
  -8  18  16   -0.08    0.16
   8 -18  16    0.20    0.16
  18 -16   8    0.37    0.18
 -16   8  18    0.26    0.13
  16   8  18    0.11    0.15
  18  16   8    0.28    0.18
 -18 -16   8   -0.03    0.12
   8  18  16    0.28    0.18
  16   8  18    0.11    0.16
 -18  16  -8    0.10    0.16
  -8  18 -16    0.00    0.12
 -16  -8  18    0.11    0.14
  -8 -18  16    0.07    0.15
  10  18   0    1.90    0.22
 -10  18   0    1.21    0.19
   0  10 -18    1.64    0.22
  18   0  10    2.18    0.26
 -18   0  10    1.68    0.23
 -10  18   0    1.58    0.19
  18   0 -10    1.97    0.24
   0  10  18    1.83    0.24
   0 -10  18    1.80    0.27
   2  10 -18   26.14    0.88
   2 -10  18   25.63    0.99
 -10  18   2   25.20    0.90
 -18   2  10   25.28    0.92
  -2  10  18   25.68    0.93
  10  18  -2   25.89    0.86
  18  -2  10   25.15    0.96
 -10  18   2   24.08    0.83
  18   2 -10   25.16    0.95
 -10 -18   2   25.35    0.85
  10  18   2   25.73    0.89
   2  10  18   26.33    0.94
  18  -2 -10   24.08    0.91
  -2  10 -18   24.74    0.90
  -2 -10  18   25.52    1.00
  18   2  10   25.51    0.96
 -10  18  -2   25.00    0.91
   4  10 -18    0.46    0.14
 -10  18   4    0.50    0.15
 -18   4  10    0.52    0.16
  10 -18   4    0.72    0.15
  18   4 -10    0.64    0.18
  18  -4  10    0.55    0.18
  10  18  -4    0.60    0.14
  -4  10  18    0.91    0.19
   4 -10  18    0.58    0.18
 -10  18   4    0.38    0.13
  10  18   4    0.57    0.15
  18  -4 -10    1.13    0.20
  -4  10 -18    0.58    0.17
 -10  18  -4    0.64    0.17
 -18  -4  10    0.74    0.17
  -4 -10  18    0.72    0.19
 -10 -18   4    0.85    0.16
   4  10  18    0.58    0.17
  18   4  10    0.51    0.16
  18   4  10    0.92    0.20
 -10  18   6   25.17    0.90
  10  18  -6   24.63    0.88
  18  -6  10   24.30    0.95
  10 -18   6   25.20    0.88
  10  18  -6   25.00    0.83
  -6  10  18   24.76    0.92
 -10  18   6   24.27    0.88
 -18   6  10   26.23    0.93
   6 -10  18   24.28    0.98
  10  18   6   25.51    0.92
 -18  -6  10   23.82    0.95
   6  10  18   25.07    0.93
  18   6  10   24.51    0.95
  18  -6 -10   25.73    0.92
 -10  18  -6   24.42    0.93
 -10 -18   6   26.64    0.90
  18   6  10   25.53    0.93
  -6 -10  18   24.24    0.99
 -10  18   8    2.70    0.29
  10 -18   8    3.76    0.31
  10  18  -8    3.41    0.29
   8 -10  18    3.21    0.34
 -10  18   8    3.52    0.29
  18  -8  10    3.73    0.35
 -18   8  10    2.89    0.28
  -8  10  18    2.94    0.30
 -10  18  -8    3.76    0.33
  18  -8 -10    3.35    0.29
 -18  -8  10    3.57    0.33
  18   8  10    3.15    0.31
   8  10  18    3.29    0.32
  -8 -10  18    3.74    0.36
  18   8  10    3.30    0.32
  10  18   8    3.75    0.33
 -10 -18   8    3.52    0.30
  18 -10  10   16.72    0.76
  10 -18  10   18.43    0.75
 -10  18  10   18.73    0.72
  10  18 -10   17.64    0.71
 -18  10  10   17.45    0.74
 -10  10  18   17.98    0.75
  10 -10  18   16.72    0.78
 -10  18  10   18.02    0.77
  10  10  18   17.21    0.75
 -18 -10  10   18.33    0.80
 -10 -10  18   17.26    0.80
 -10  18 -10   17.06    0.77
 -10 -18  10   18.28    0.74
  18 -10 -10   18.49    0.72
  18  10  10   16.25    0.74
  10  18  10   17.57    0.77
  18  10  10   16.77    0.77
 -10  18  12    1.10    0.22
  18 -12  10    1.09    0.22
  12 -10  18    1.12    0.24
 -12  10  18    1.32    0.24
 -18  12  10    1.24    0.22
  10  18 -12    1.07    0.19
  10 -18  12    1.15    0.23
 -18 -12  10    1.14    0.23
  12  10  18    1.36    0.25
 -12 -10  18    1.19    0.24
  18  12  10    1.01    0.21
 -10  18 -12    1.15    0.22
 -10 -18  12    1.40    0.24
  18  12  10    1.21    0.25
  10  18  12    1.05    0.22
 -18  14  10   17.67    0.78
 -10  18  14   18.64    0.84
 -14  10  18   18.98    0.81
  10 -18  14   18.16    0.81
  14 -10  18   16.70    0.82
  18 -14  10   20.12    0.84
 -18 -14  10   18.50    0.84
 -14 -10  18   18.25    0.86
  14  10  18   19.04    0.83
 -10 -18  14   18.81    0.83
 -18  14 -10   19.65    0.85
 -10  18 -14   20.12    0.86
  18  14  10   18.04    0.84
  10  18  14   18.48    0.83
 -10  18  16    0.25    0.17
  10 -18  16    0.28    0.17
 -18  16  10    0.68    0.19
  18 -16  10    0.22    0.19
  16 -10  18    0.21    0.19
 -16  10  18    0.46    0.19
  10  18  16    0.30    0.20
 -18  16 -10    0.06    0.17
  18  16  10    0.45    0.18
 -16 -10  18    0.42    0.21
  16  10  18    0.34    0.20
 -10  18 -16    0.40    0.18
 -10 -18  16    0.21    0.17
 -18 -16  10    0.49    0.19
   0  12  18    0.03    0.13
   0  12 -18    0.26    0.13
 -18   0  12   -0.03    0.08
  18   0  12   -0.05    0.09
  12  18   0    0.00    0.11
 -12  18   0    0.06    0.11
  18   0 -12   -0.03    0.11
 -18   0  12    0.09    0.11
 -12  18   0   -0.06    0.09
   0 -12  18   -0.02    0.12
  18   0  12    0.24    0.14
  -2  12  18    3.09    0.32
  12  18  -2    2.43    0.25
 -18   2  12    2.01    0.25
  12  18  -2    2.54    0.25
 -12  18   2    2.38    0.23
   2 -12  18    2.47    0.30
  18  -2  12    3.09    0.32
   2  12 -18    2.32    0.25
 -12  18   2    2.64    0.27
  -2  12 -18    2.44    0.27
 -18  -2  12    1.74    0.24
  18   2  12    2.53    0.29
  12  18   2    2.01    0.25
  18   2  12    1.83    0.23
  -2 -12  18    2.99    0.32
 -12  18  -2    2.28    0.25
   2  12  18    2.36    0.29
  18  -2 -12    1.81    0.25
 -12  18   4    0.36    0.15
 -18   4  12    0.22    0.14
  12 -18   4    0.31    0.12
  -4  12  18    0.41    0.16
 -12  18   4    0.17    0.11
   4 -12  18    0.27    0.16
   4  12 -18    0.19    0.13
  12  18  -4    0.20    0.12
  18  -4  12    0.21    0.15
  12  18   4    0.36    0.16
   4  12  18    0.35    0.17
  -4 -12  18    0.30    0.17
 -12  18  -4    0.45    0.17
 -12 -18   4    0.32    0.14
  18  -4 -12    0.50    0.16
  18   4  12    0.34    0.17
 -18  -4  12    0.47    0.16
  18   4  12    0.56    0.17
  -4  12 -18    0.62    0.18
   6 -12  18    0.21    0.17
  -6  12  18    0.31    0.17
 -18   6  12    0.09    0.12
  18  -6  12    0.15    0.17
 -12  18   6    0.14    0.12
  12  18  -6    0.12    0.12
 -12  18   6    0.13    0.12
  12 -18   6   -0.01    0.13
  12  18  -6    0.11    0.12
   6  12  18    0.09    0.15
  18  -6 -12    0.13    0.12
  18   6  12    0.03    0.13
 -18  -6  12    0.26    0.14
  18   6  12    0.21    0.14
  12  18   6    0.01    0.13
  -6  12 -18    0.15    0.14
 -12  18  -6    0.14    0.14
  -6 -12  18    0.21    0.16
 -12 -18   6   -0.04    0.11
   8 -12  18   -0.04    0.12
  12  18  -8    0.00    0.12
 -12  18   8   -0.01    0.10
  -8  12  18    0.11    0.14
 -18   8  12    0.17    0.13
  18  -8  12    0.06    0.15
 -12  18   8    0.07    0.11
  12 -18   8    0.17    0.14
  18  -8 -12    0.14    0.13
 -12 -18   8    0.04    0.12
 -18  -8  12   -0.01    0.10
  -8  12 -18    0.20    0.14
 -12  18  -8   -0.03    0.11
  18   8  12   -0.02    0.12
   8  12  18   -0.25    0.13
  18   8  12    0.17    0.14
  -8 -12  18    0.02    0.12
  12  18   8   -0.07    0.13
  10 -12  18    1.42    0.25
 -10  12  18    0.85    0.22
 -18  10  12    0.96    0.21
 -12  18  10    1.78    0.26
  12 -18  10    0.88    0.20
  18 -10  12    1.09    0.23
  12  18 -10    1.11    0.20
  10  12  18    1.32    0.24
 -12  18 -10    1.14    0.23
 -18 -10  12    1.26    0.24
  12  18  10    1.18    0.23
  18  10  12    1.68    0.25
 -10 -12  18    0.69    0.21
  18  10  12    0.72    0.21
  18 -10 -12    1.37    0.22
 -12 -18  10    1.40    0.23
  18 -12  12   -0.10    0.16
 -12  18  12   -0.01    0.11
  12 -12  18    0.14    0.15
 -18  12  12    0.11    0.13
  12 -18  12    0.33    0.18
 -12  12  18    0.16    0.16
  12  12  18   -0.21    0.13
  12  18  12    0.10    0.14
 -12 -18  12   -0.04    0.13
 -12 -12  18    0.04    0.15
  18  12  12   -0.03    0.13
 -12  18 -12   -0.02    0.14
 -18 -12  12    0.08    0.15
 -18  14  12    2.04    0.28
  12 -18  14    1.50    0.26
 -14  12  18    1.39    0.27
 -12  18  14    2.06    0.29
  14 -12  18    2.02    0.30
  18 -14  12    2.10    0.30
  18  14  12    1.55    0.29
 -18 -14  12    1.82    0.30
 -12 -18  14    2.02    0.29
  14  12  18    1.99    0.29
 -14 -12  18    2.27    0.31
 -12  18 -14    1.85    0.27
  12  18  14    1.78    0.29
  12 -18  16    0.26    0.17
  16 -12  18    0.10    0.17
  18 -16  12    0.26    0.18
 -18  16  12    0.11    0.15
 -16  12  18   -0.18    0.14
 -12  18  16    0.11    0.15
  12  18  16    0.09    0.18
  16  12  18    0.02    0.17
 -12  18 -16    0.17    0.15
 -12 -18  16    0.06    0.15
 -16 -12  18    0.15    0.18
 -18 -16  12    0.32    0.19
  18  16  12    0.15    0.19
 -18  16 -12    0.37    0.20
  14  18   0    1.93    0.25
  18   0  14    1.57    0.22
   0  14 -18    1.25    0.22
   0 -14  18    1.99    0.30
 -18   0  14    2.01    0.26
  18   0  14    2.19    0.28
   0  14  18    2.71    0.32
 -14  18   0    1.81    0.24
 -18   0  14    2.07    0.26
 -14  18   0    1.95    0.22
  -2  14  18   28.47    1.05
 -14  18   2   28.27    0.94
  18  -2  14   26.77    1.04
   2  14 -18   25.62    0.96
  14  18  -2   28.47    0.98
 -18   2  14   26.99    1.00
   2 -14  18   27.95    1.08
 -14  18   2   27.40    0.98
 -18   2  14   28.75    1.04
  18  -2  14   28.09    0.94
  14  18  -2   28.16    0.99
  18   2  14   27.11    0.97
   2  14  18   27.57    1.04
  14  18   2   27.81    1.00
 -18  -2  14   27.49    1.04
 -14  18  -2   27.85    1.00
  -2  14 -18   27.32    1.00
 -18  -2  14   27.63    1.01
  18  -2 -14   27.55    1.02
  18   2  14   28.48    1.07
  -2 -14  18   27.66    1.08
   4 -14  18    3.51    0.36
 -14  18   4    3.01    0.29
  14  18  -4    3.78    0.32
 -14  18   4    3.00    0.28
  14  18  -4    2.81    0.30
  14 -18   4    3.83    0.32
  18  -4  14    3.68    0.35
 -18   4  14    2.85    0.30
  -4  14  18    3.32    0.35
   4  14 -18    3.43    0.30
   4  14  18    3.49    0.35
  18   4  14    3.24    0.34
 -18  -4  14    2.98    0.31
  14  18   4    3.30    0.32
  18  -4 -14    2.98    0.30
 -14  18  -4    3.55    0.33
  18   4  14    3.54    0.33
  -4  14 -18    3.28    0.31
  -4 -14  18    3.32    0.37
 -14 -18   4    2.95    0.29
  14  18  -6   24.30    0.88
 -14  18   6   22.70    0.87
  14  18  -6   25.05    0.88
  18  -6  14   24.85    0.98
  14 -18   6   24.82    0.90
   6 -14  18   23.17    0.97
 -18   6  14   23.64    0.92
  -6  14  18   22.90    0.94
 -14  18   6   24.03    0.87
 -18  -6  14   24.35    0.98
   6  14  18   21.10    0.91
  18   6  14   25.42    0.94
  18  -6 -14   22.78    0.90
  -6  14 -18   25.20    0.96
  18   6  14   23.54    0.95
 -14 -18   6   23.19    0.90
  14  18   6   24.43    0.94
 -14  18  -6   22.74    0.92
  -6 -14  18   24.05    0.99
  -8  14  18    0.51    0.21
 -18   8  14    0.23    0.15
  18  -8  14    0.11    0.18
   8 -14  18    0.21    0.17
  14 -18   8    0.22    0.16
  14  18  -8    0.01    0.12
 -14  18   8    0.09    0.12
 -18  -8  14    0.15    0.16
  14  18   8    0.14    0.15
  -8 -14  18    0.09    0.16
  18   8  14    0.21    0.16
 -14 -18   8    0.25    0.15
   8  14  18    0.14    0.15
  18   8  14    0.05    0.14
  -8  14 -18    0.41    0.18
 -14  18  -8    0.22    0.15
  18  -8 -14    0.28    0.16
 -14  18  10   18.95    0.82
 -10  14  18   19.67    0.86
  18 -10  14   19.06    0.86
  14 -18  10   19.61    0.82
  10 -14  18   18.66    0.86
 -18  10  14   18.81    0.81
 -14 -18  10   19.06    0.81
  18  10  14   18.34    0.84
  18  10  14   19.88    0.83
 -10 -14  18   20.39    0.90
 -14  18 -10   18.54    0.84
  14  18  10   19.18    0.85
  10  14  18   19.06    0.85
 -10  14 -18   17.53    0.82
  18 -10 -14   18.59    0.78
 -18 -10  14   19.62    0.88
  18 -12  14    2.09    0.31
  12 -14  18    1.94    0.31
  14 -18  12    1.74    0.28
 -18  12  14    1.72    0.27
 -14  18  12    1.49    0.26
 -12  14  18    1.85    0.29
 -14 -18  12    1.95    0.29
 -12 -14  18    2.27    0.32
  12  14  18    1.70    0.28
 -14  18 -12    1.74    0.27
 -18 -12  14    2.05    0.30
  18  12  14    1.97    0.29
  14  18  12    1.76    0.28
 -18  14  14   20.77    0.91
 -14  18  14   21.64    0.94
  14 -14  18   20.83    0.95
  14 -18  14   22.31    0.93
 -14  14  18   20.19    0.91
  18 -14  14   22.15    0.95
 -14 -14  18   22.85    1.00
  18  14  14   22.91    0.98
  14  14  18   21.10    0.93
 -14 -18  14   22.37    0.95
 -18 -14  14   21.43    0.96
  14  18  14   22.04    0.96
 -14  18 -14   20.62    0.94
 -14  18  16    0.20    0.18
 -16  14  18    0.05    0.14
 -18  16  14   -0.03    0.15
  16 -14  18    0.05    0.18
  14 -18  16    0.14    0.19
  18 -16  14    0.29    0.19
  16  14  18    0.20    0.20
  14  18  16    0.07    0.19
 -16 -14  18    0.31    0.17
  18  16  14    0.20    0.20
 -14  18 -16    0.20    0.17
 -14 -18  16    0.17    0.19
 -18 -16  14    0.21    0.19
 -16  18   0    0.30    0.15
  18   0  16    0.10    0.13
  16  18   0    0.23    0.14
 -18   0  16    0.04    0.11
 -18   0  16    0.42    0.17
  18   0  16   -0.08    0.11
   0  16 -18    0.22    0.15
   0  16  18   -0.10    0.13
   0 -16  18    0.03    0.16
  18  -2  16    0.42    0.18
 -18   2  16    0.33    0.16
   2 -16  18   -0.10    0.14
  16  18  -2    0.24    0.15
  16  18  -2    0.32    0.15
 -18   2  16    0.00    0.12
 -16  18   2    0.29    0.14
  -2  16  18    0.28    0.19
   2  16 -18    0.55    0.18
 -16  18   2    0.27    0.15
  -2  16 -18    0.40    0.17
  18   2  16    0.30    0.17
  18   2  16    0.29    0.16
  16  18   2    0.19    0.17
  -2 -16  18    0.10    0.17
 -18  -2  16    0.43    0.17
   2  16  18   -0.14    0.15
 -18  -2  16    0.45    0.18
 -16  18  -2    0.35    0.16
  16  18  -4   -0.03    0.13
  16 -18   4    0.12    0.15
 -18   4  16    0.15    0.13
   4  16 -18   -0.12    0.12
  18  -4  16   -0.10    0.12
  16  18  -4    0.34    0.15
   4 -16  18   -0.09    0.15
 -16  18   4    0.13    0.12
 -18   4  16    0.02    0.15
 -16  18   4   -0.09    0.11
  -4  16  18    0.04    0.15
  16  18   4    0.07    0.14
  -4 -16  18    0.15    0.15
 -18  -4  16    0.01    0.12
  18  -4 -16    0.07    0.13
  18   4  16    0.14    0.14
  -4  16 -18    0.07    0.13
 -16  18  -4   -0.01    0.12
   4  16  18   -0.07    0.18
  18   4  16   -0.10    0.12
  16  18  -6    0.03    0.11
  -6  16  18    0.23    0.18
 -16  18   6    0.00    0.12
 -18   6  16   -0.04    0.12
  18  -6  16    0.12    0.16
   6 -16  18    0.26    0.18
  16 -18   6   -0.03    0.15
 -16  18  -6    0.06    0.15
 -16 -18   6   -0.09    0.12
  -6 -16  18   -0.09    0.14
  18  -6 -16    0.10    0.15
  18   6  16    0.03    0.14
  18   6  16   -0.09    0.15
  -6  16 -18    0.06    0.13
  16  18   6    0.41    0.18
   6  16  18   -0.03    0.15
 -18  -6  16    0.27    0.14
 -16  18   8    0.07    0.13
   8 -16  18    0.07    0.16
  18  -8  16    0.17    0.18
  -8  16  18    0.04    0.14
  16 -18   8    0.07    0.15
 -18   8  16    0.08    0.14
  18   8  16    0.28    0.16
  16  18   8    0.02    0.14
   8  16  18   -0.12    0.16
 -16 -18   8    0.25    0.16
  18   8  16    0.13    0.16
 -16  18  -8   -0.04    0.15
 -18  -8  16    0.09    0.14
  -8 -16  18   -0.07    0.13
  18  -8 -16    0.34    0.16
  -8  16 -18    0.27    0.17
 -18  10  16    0.30    0.19
  16 -18  10    0.65    0.20
 -10  16  18    0.33    0.18
  10 -16  18    0.29    0.20
  18 -10  16    0.13    0.18
 -16  18  10    0.07    0.15
 -10  16 -18    0.71    0.22
 -18 -10  16    0.34    0.18
 -16 -18  10    0.36    0.18
  10  16  18    0.47    0.22
  18  10  16    0.63    0.21
  18  10  16    0.32    0.19
 -10 -16  18    0.35    0.20
 -16  18 -10    0.43    0.21
  16  18  10    0.41    0.20
 -18  12  16    0.03    0.12
  16 -18  12   -0.02    0.16
 -16  18  12   -0.02    0.14
  18 -12  16    0.19    0.20
  12 -16  18    0.29    0.20
 -12  16  18    0.08    0.14
 -12 -16  18    0.33    0.18
 -12  16 -18   -0.05    0.15
 -18 -12  16    0.23    0.16
  16  18  12   -0.07    0.14
 -16 -18  12    0.09    0.17
  12  16  18    0.12    0.16
 -16  18 -12   -0.15    0.14
  18  12  16   -0.07    0.16
 -14  16  18   -0.02    0.14
  16 -18  14    0.25    0.20
 -16  18  14    0.16    0.15
  14 -16  18    0.12    0.19
 -18  14  16    0.00    0.13
  18 -14  16    0.29    0.22
 -14 -16  18    0.15    0.19
 -16 -18  14    0.09    0.18
  18  14  16    0.20    0.20
 -18 -14  16    0.22    0.18
  14  16  18   -0.20    0.17
  16  18  14    0.20    0.19
 -16  18 -14    0.15    0.17
 -16  16  18    0.43    0.21
 -18  16  16    0.11    0.17
 -16  18  16    0.17    0.16
  16 -16  18    0.39    0.21
  18 -16  16    0.26    0.21
  16 -18  16    0.31    0.21
 -18 -16  16    0.16    0.19
  16  16  18    0.22    0.21
 -16 -16  18    0.05    0.17
 -16 -18  16    0.13    0.17
  18  16  16    0.17    0.20
  16  18  16   -0.06    0.17
 -16  18 -16    0.04    0.18
   0 -18  18    0.02    0.18
  18   0  18    0.08    0.15
 -18  18   0    0.11    0.14
 -18   0  18    0.08    0.15
  18  18   0    0.28    0.17
   0  18  18    0.03    0.15
   0  18 -18    0.02    0.13
 -18   0  18    0.12    0.14
 -18   2  18   18.30    0.82
  18  -2  18   19.84    0.90
   2 -18  18   19.59    0.89
  18  18  -2   18.28    0.82
 -18  18   2   20.37    0.82
 -18  18   2   19.90    0.79
 -18   2  18   19.34    0.86
  -2  18  18   19.32    0.88
  18  18  -2   21.19    0.88
   2  18 -18   18.08    0.81
  18   2  18   19.70    0.89
  -2 -18  18   19.25    0.89
 -18  -2  18   20.79    0.85
 -18  18  -2   20.10    0.84
  -2  18 -18   21.44    0.87
   2  18  18   20.09    0.90
  18   2  18   19.20    0.80
  18  18   2   19.49    0.85
 -18  -2  18   19.13    0.88
  -4  18  18   -0.11    0.12
  18  -4  18    0.28    0.17
   4  18 -18    0.08    0.14
 -18   4  18   -0.07    0.11
   4 -18  18    0.17    0.19
 -18  18   4    0.03    0.12
  18  18  -4    0.01    0.14
 -18   4  18    0.00    0.14
  18 -18   4    0.04    0.16
  18  18  -4   -0.03    0.13
  18   4  18    0.08    0.16
  -4 -18  18    0.14    0.19
  18  18   4    0.07    0.15
 -18  18  -4    0.01    0.13
 -18  -4  18    0.02    0.14
  -4  18 -18   -0.02    0.13
 -18  -4  18    0.11    0.14
   4  18  18    0.08    0.16
  18   4  18    0.19    0.17
   6 -18  18   16.70    0.82
 -18  18   6   18.77    0.79
  -6  18  18   18.02    0.85
  18  -6  18   18.20    0.86
 -18   6  18   18.20    0.80
  18  18  -6   17.92    0.82
  18 -18   6   19.67    0.81
 -18   6  18   17.96    0.81
  18  18   6   17.76    0.85
  18   6  18   17.74    0.81
  18  -6 -18   17.63    0.79
 -18  18  -6   18.30    0.83
  18   6  18   18.49    0.84
  -6  18 -18   18.72    0.85
  -6 -18  18   18.31    0.86
 -18  -6  18   18.35    0.87
   6  18  18   18.08    0.86
 -18   8  18    0.60    0.20
  -8  18  18    0.30    0.19
  18  -8  18    0.11    0.20
   8 -18  18    0.42    0.19
  18  18  -8    0.37    0.17
 -18  18   8    0.56    0.20
  18 -18   8    0.24    0.19
  18   8  18    0.30    0.21
 -18 -18   8    0.33    0.19
   8  18  18    0.46    0.21
 -18  18  -8    0.51    0.20
  18   8  18    0.19    0.18
  -8  18 -18    0.82    0.23
 -18  -8  18    0.32    0.18
  18  18   8    0.55    0.20
  -8 -18  18    0.07    0.15
  18  -8 -18    0.20    0.16
 -18  18  10   15.17    0.75
  10 -18  18   15.86    0.80
 -18  10  18   15.37    0.77
  18 -10  18   15.54    0.80
 -10  18  18   15.30    0.79
  18 -18  10   15.63    0.76
 -10  18 -18   14.52    0.78
  18  10  18   16.69    0.80
 -10 -18  18   15.08    0.79
  18  18  10   16.28    0.81
  10  18  18   15.00    0.78
 -18 -10  18   14.01    0.79
 -18 -18  10   15.81    0.78
 -18  18 -10   14.57    0.77
  18 -12  18    0.03    0.20
 -18  18  12    0.06    0.15
  12 -18  18   -0.02    0.17
 -18  12  18   -0.03    0.14
 -12  18  18    0.08    0.17
  18 -18  12    0.10    0.18
 -12  18 -18    0.16    0.15
  18  12  18    0.17    0.19
 -12 -18  18    0.07    0.21
 -18  18 -12    0.29    0.20
  18  18  12    0.05    0.17
  12  18  18    0.00    0.19
 -18 -12  18    0.04    0.18
 -18 -18  12    0.17    0.18
 -14  18  18   17.97    0.89
  14 -18  18   15.35    0.82
 -18  14  18   16.82    0.84
 -18  18  14   17.93    0.86
  18 -18  14   17.63    0.86
  18 -14  18   17.25    0.88
  14  18  18   17.49    0.87
  18  14  18   16.83    0.87
 -18 -14  18   17.85    0.91
 -14 -18  18   18.28    0.90
 -18 -18  14   17.99    0.88
 -14  18 -18   18.31    0.90
  18  18  14   16.38    0.87
 -18  18 -14   16.24    0.85
  16 -18  18   -0.10    0.18
 -18  18  16   -0.04    0.17
 -18  16  18    0.21    0.19
  18 -16  18    0.22    0.24
  18 -18  16    0.24    0.23
 -16  18  18    0.25    0.19
  18  18  16    0.07    0.20
  16  18  18   -0.18    0.19
  18  16  18    0.12    0.23
 -18 -18  16    0.22    0.21
 -16 -18  18   -0.06    0.18
 -18 -16  18   -0.11    0.18
  18 -18  18   13.59    0.80
 -18  18  18   15.07    0.83
 -18 -18  18   14.68    0.84
  18  18  18   14.81    0.84
  -1   1  19    0.00    0.08
  19  -1   1   -0.04    0.11
   1  19  -1    0.05    0.10
  -1  19   1   -0.02    0.10
   1  19  -1   -0.05    0.09
  -1   1  19    0.04    0.09
  19   1  -1    0.08    0.12
   1  -1  19    0.03    0.07
   1  -1  19    0.00    0.10
  -1  19   1    0.00    0.09
  19  -1  -1    0.02    0.11
   1   1  19    0.06    0.11
   1  19   1   -0.02    0.08
   1  19   1   -0.15    0.07
  19   1   1    0.12    0.10
   1   1  19   -0.02    0.07
  -1  19  -1    0.18    0.11
  -1  -1  19   -0.01    0.09
  -1  19  -1   -0.04    0.08
  -1  -1  19   -0.04    0.07
  -1  19   3    1.71    0.22
   1  19  -3    2.16    0.20
  -3   1  19    1.70    0.22
  19   3  -1    1.78    0.22
   3  -1  19    2.39    0.27
  -3   1  19    1.74    0.19
   3  -1  19    1.57    0.17
  19  -3   1    1.61    0.22
  -1  19   3    1.62    0.21
   1  19  -3    1.56    0.21
   3   1  19    1.88    0.19
  -3  -1  19    1.74    0.18
  -1  19  -3    1.40    0.21
  19   3   1    1.60    0.22
   1  19   3    1.79    0.21
   1  19   3    1.79    0.22
   3   1  19    2.42    0.27
  -3  -1  19    1.44    0.22
  19  -3  -1    1.70    0.23
  -5   1  19   -0.03    0.08
   5  -1  19    0.01    0.08
   1  19  -5   -0.15    0.07
   1 -19   5    0.15    0.09
  19  -5   1    0.09    0.12
  -1  19   5    0.15    0.10
   5  -1  19    0.04    0.11
  19   5  -1   -0.12    0.07
  -1  19   5    0.12    0.11
  -5   1  19   -0.03    0.08
  -1  19  -5   -0.03    0.09
   5   1  19    0.05    0.09
   1  19   5    0.23    0.13
  19   5   1   -0.03    0.10
  -5  -1  19    0.00    0.09
  -5  -1  19   -0.04    0.09
  19  -5  -1    0.19    0.13
   5   1  19    0.02    0.10
  -1 -19   5    0.02    0.08
  -1  19   7    1.66    0.24
  -7   1  19    1.13    0.18
  19  -7   1    1.38    0.21
  19   7  -1    1.24    0.21
   1  19  -7    1.13    0.20
   7  -1  19    1.33    0.22
   1 -19   7    1.55    0.19
  -7   1  19    1.32    0.20
  -1  19  -7    1.12    0.19
  -1 -19   7    1.38    0.18
   1  19   7    1.22    0.20
  19   7   1    1.39    0.22
  -7  -1  19    1.45    0.18
  19  -7  -1    1.12    0.20
  -7  -1  19    1.48    0.22
   7   1  19    1.24    0.17
   7   1  19    1.44    0.22
   9  -1  19    0.37    0.15
  19   9  -1    0.57    0.17
  -1  19   9    0.37    0.17
   1  19  -9    0.38    0.15
 -19   9   1    0.43    0.14
  -9   1  19    0.68    0.16
   1 -19   9    0.92    0.17
  -9   1  19    0.80    0.16
  19  -9   1    0.83    0.19
   9   1  19    0.33    0.14
  -9  -1  19    0.47    0.15
  -1  19  -9    0.23    0.14
  19  -9  -1    0.79    0.19
  -1 -19   9    0.49    0.14
   9   1  19    0.58    0.14
   1  19   9    0.44    0.17
  -9  -1  19    0.30    0.14
  19   9   1    0.59    0.17
 -19  11   1    2.70    0.27
 -19  11   1    3.04    0.26
 -11   1  19    2.94    0.28
  19 -11   1    2.60    0.29
   1  19 -11    2.38    0.29
  19  11  -1    2.67    0.30
  -1  19  11    2.68    0.30
 -11   1  19    2.76    0.28
   1 -19  11    2.87    0.28
  11  -1  19    2.85    0.31
 -11  -1  19    2.62    0.29
 -11  -1  19    2.86    0.26
 -19  11  -1    3.11    0.28
  -1  19 -11    2.69    0.28
   1  19  11    2.33    0.28
  11   1  19    2.36    0.24
  19 -11  -1    2.64    0.28
  11   1  19    2.90    0.31
  19  11   1    2.97    0.30
  -1 -19  11    3.38    0.30
  19 -13   1   -0.14    0.13
  19  13  -1   -0.16    0.11
  13  -1  19   -0.21    0.13
 -19  13   1    0.08    0.12
  -1  19  13    0.08    0.14
 -19  13   1   -0.11    0.11
 -13   1  19    0.01    0.11
 -13   1  19    0.04    0.12
   1 -19  13    0.11    0.14
   1  19 -13   -0.03    0.12
  13   1  19    0.16    0.13
  13   1  19   -0.07    0.11
 -19  13  -1   -0.03    0.13
 -13  -1  19   -0.13    0.09
  -1  19 -13    0.02    0.13
  -1 -19  13    0.13    0.13
 -19  13  -1   -0.17    0.11
  19 -13  -1    0.00    0.13
   1  19  13   -0.14    0.13
 -13  -1  19   -0.12    0.11
  19  13   1   -0.02    0.12
 -19  15   1    0.05    0.11
 -19  15   1    0.03    0.13
  15  -1  19    0.00    0.14
  -1  19  15    0.14    0.16
   1  19 -15   -0.09    0.11
 -15   1  19    0.03    0.14
 -15   1  19    0.08    0.12
  19  15  -1    0.04    0.13
  19 -15   1    0.00    0.15
   1 -19  15    0.11    0.16
  15   1  19   -0.11    0.10
  19  15   1   -0.08    0.11
  -1 -19  15    0.06    0.13
  -1  19 -15    0.16    0.14
 -15  -1  19    0.03    0.12
 -15  -1  19   -0.17    0.11
  19 -15  -1    0.05    0.14
 -19  15  -1   -0.02    0.11
  15   1  19    0.00    0.13
  19  15   1   -0.03    0.12
   1  19  15    0.12    0.15
 -19  15  -1   -0.03    0.13
 -17   1  19   -0.01    0.15
 -19  17   1   -0.16    0.12
  19  17  -1    0.06    0.14
  17  -1  19    0.05    0.16
   1  19 -17   -0.06    0.13
   1 -19  17    0.13    0.17
 -19  17   1   -0.26    0.13
  -1  19  17   -0.34    0.12
  19  17  -1   -0.12    0.14
 -17   1  19   -0.06    0.13
 -19  17  -1   -0.02    0.12
 -17  -1  19   -0.08    0.13
  -1 -19  17   -0.07    0.14
  19  17   1   -0.15    0.14
 -17  -1  19   -0.33    0.12
  17   1  19   -0.06    0.12
  -1  19 -17    0.02    0.17
   1  19  17   -0.08    0.13
  19  -1   3    2.17    0.25
   3  19  -1    1.81    0.20
  19   1  -3    1.88    0.23
   3  19  -1    1.52    0.20
  -3  19   1    1.74    0.22
  -1   3  19    1.83    0.19
  -1   3  19    1.57    0.22
   1  -3  19    1.66    0.23
  -3  19   1    1.37    0.18
  19  -1  -3    1.51    0.21
  -3  19  -1    1.57    0.21
   3  19   1    1.86    0.21
  -3  19  -1    1.80    0.19
  19   1   3    2.07    0.24
   1   3  19    1.61    0.22
   1   3  19    2.09    0.20
   3  19   1    1.56    0.20
  -1  -3  19    1.38    0.23
  19  -3   3    0.05    0.12
  -3   3  19    0.06    0.10
   3  19  -3    0.07    0.09
   3  -3  19    0.22    0.13
  19   3  -3    0.19    0.13
  -3  19   3   -0.02    0.09
  -3   3  19   -0.03    0.08
  -3  19   3   -0.01    0.09
   3  19  -3    0.10    0.09
  19   3   3    0.02    0.09
  19  -3  -3    0.04    0.10
  -3  -3  19    0.04    0.08
   3  19   3    0.04    0.11
   3   3  19    0.04    0.09
   3   3  19    0.02    0.10
  -3  19  -3   -0.07    0.08
  -3  -3  19    0.02    0.10
  19  -5   3    0.51    0.16
   5  -3  19    0.83    0.19
  19   5  -3    0.53    0.16
  -3  19   5    0.39    0.14
   3  19  -5    0.60    0.15
  -5   3  19    0.31    0.13
  -5   3  19    0.69    0.14
  -3  19   5    0.78    0.16
   5   3  19    0.60    0.17
  -5  -3  19    0.57    0.12
  -3  19  -5    0.47    0.15
  19  -5  -3    0.72    0.17
  -5  -3  19    0.31    0.15
   5   3  19    0.59    0.14
  -3 -19   5    0.47    0.12
  19   5   3    0.69    0.17
   3  19   5    0.61    0.17
  -3  19   7    0.75    0.17
  -3  19   7    0.78    0.19
  -7   3  19    0.43    0.13
 -19   7   3    0.85    0.17
  -7   3  19    0.66    0.15
   3  19  -7    0.69    0.16
  19   7  -3    0.40    0.15
   3 -19   7    0.55    0.15
  19  -7   3    0.41    0.17
   7  -3  19    0.45    0.15
  -3 -19   7    0.75    0.14
  -3  19  -7    0.69    0.17
  19   7   3    0.66    0.17
   7   3  19    0.41    0.15
  -7  -3  19    0.80    0.14
   3  19   7    0.72    0.17
  -7  -3  19    0.73    0.18
  19  -7  -3    0.69    0.16
   7   3  19    0.77    0.15
  -3  19   9    0.03    0.14
   3 -19   9    0.20    0.12
   3  19  -9    0.02    0.12
  -9   3  19    0.19    0.12
  19  -9   3    0.32    0.16
 -19   9   3    0.14    0.12
  -9   3  19    0.07    0.13
  19   9  -3    0.06    0.10
   9  -3  19    0.34    0.16
  -3  19  -9    0.27    0.14
  -3 -19   9    0.31    0.13
  19  -9  -3    0.13    0.13
   3  19   9    0.25    0.15
  -9  -3  19   -0.11    0.10
  19   9   3    0.27    0.13
  -9  -3  19    0.17    0.12
   9   3  19    0.01    0.11
   9   3  19    0.10    0.11
 -19  11   3    0.72    0.17
  19  11  -3    0.47    0.17
  11  -3  19    0.48    0.18
   3 -19  11    0.40    0.16
  -3  19  11    0.56    0.18
 -11   3  19    0.28    0.15
 -11   3  19    0.55    0.16
  19 -11   3    0.60    0.18
   3  19 -11    0.33    0.15
  -3 -19  11    0.55    0.16
  -3  19 -11    0.38    0.16
  11   3  19    0.46    0.16
  19  11   3    0.40    0.16
 -11  -3  19    0.41    0.14
  11   3  19    0.77    0.17
 -11  -3  19    0.25    0.16
   3  19  11    0.27    0.15
  19 -11  -3    0.48    0.16
  13  -3  19   -0.04    0.12
   3 -19  13   -0.07    0.12
 -19  13   3    0.06    0.10
 -13   3  19    0.03    0.12
   3  19 -13   -0.15    0.11
  -3  19  13    0.03    0.15
  19  13  -3   -0.05    0.12
  19 -13   3   -0.33    0.13
 -13   3  19   -0.03    0.11
  19 -13  -3    0.13    0.15
 -13  -3  19   -0.11    0.09
  -3  19 -13    0.00    0.13
  -3 -19  13   -0.09    0.11
 -13  -3  19    0.04    0.12
  13   3  19    0.04    0.13
   3  19  13    0.02    0.12
  19  13   3   -0.19    0.11
 -19  13  -3   -0.17    0.10
  13   3  19   -0.13    0.11
  19  13   3    0.05    0.13
 -19  15   3   -0.13    0.10
 -15   3  19   -0.10    0.12
  19 -15   3   -0.01    0.14
  19  15  -3    0.02    0.12
   3 -19  15    0.11    0.15
  -3  19  15    0.10    0.15
  15  -3  19    0.03    0.13
 -15   3  19   -0.08    0.10
   3  19 -15   -0.13    0.12
  19  15   3    0.00    0.11
  19 -15  -3    0.16    0.14
 -15  -3  19   -0.02    0.10
  19  15   3   -0.06    0.12
   3  19  15   -0.05    0.13
  15   3  19   -0.03    0.14
  -3  19 -15   -0.05    0.12
  -3 -19  15    0.16    0.16
 -15  -3  19   -0.06    0.13
 -19  15  -3   -0.07    0.12
  15   3  19    0.06    0.14
 -17   3  19   -0.10    0.13
  17  -3  19   -0.25    0.13
  19  17  -3    0.05    0.15
 -19  17   3    0.10    0.14
 -17   3  19   -0.08    0.15
   3 -19  17   -0.10    0.14
  -3  19  17   -0.34    0.13
   3  19 -17   -0.23    0.14
  19 -17   3   -0.22    0.14
  17   3  19    0.07    0.16
 -17  -3  19   -0.17    0.11
   3  19  17    0.04    0.13
 -17  -3  19    0.03    0.15
  17   3  19   -0.19    0.12
  -3  19 -17    0.08    0.14
 -19  17  -3   -0.16    0.14
  -3 -19  17   -0.20    0.14
  19  17   3    0.09    0.15
   1  -5  19   -0.07    0.09
  -5  19   1    0.11    0.11
  19  -1   5   -0.03    0.09
   5  19  -1    0.03    0.09
  19   1  -5    0.16    0.12
  -5  19   1   -0.02    0.10
   5  19  -1    0.02    0.09
  -1   5  19    0.03    0.09
  -1   5  19    0.11    0.11
   5  19   1   -0.03    0.10
   1   5  19   -0.03    0.09
  -5  19  -1    0.15    0.11
  -1  -5  19    0.07    0.11
  19   1   5    0.03    0.11
  -5  19  -1    0.10    0.09
   1   5  19    0.16    0.10
  19  -1  -5   -0.13    0.09
  -3   5  19    0.40    0.13
   5  19  -3    0.43    0.13
  -3   5  19    0.70    0.14
  -5  19   3    0.49    0.15
  19  -3   5    0.32    0.15
   3  -5  19    1.12    0.21
  -5  19   3    0.28    0.13
   5  19  -3    0.54    0.15
  19   3  -5    0.62    0.16
  -5  19  -3    0.39    0.14
   5  19   3    0.71    0.16
   3   5  19    0.81    0.16
  19  -3  -5    0.48    0.15
   3   5  19    0.33    0.14
  -3  -5  19    0.60    0.17
  19   3   5    0.54    0.16
  -5   5  19    0.00    0.10
  19   5  -5   -0.07    0.09
   5  19  -5    0.10    0.11
  -5   5  19    0.13    0.11
  -5  19   5    0.02    0.10
  19  -5   5    0.00    0.13
 -19   5   5   -0.20    0.09
  -5  19   5    0.00    0.10
   5  -5  19    0.06    0.11
  19   5   5   -0.10    0.08
  -5  19  -5   -0.08    0.08
  -5  -5  19    0.03    0.09
  -5 -19   5    0.08    0.09
  19  -5  -5    0.12    0.13
   5  19   5   -0.10    0.09
   5   5  19   -0.16    0.09
   5   5  19    0.05    0.09
  -5  19   7    0.06    0.13
   7  -5  19    0.20    0.13
 -19   7   5    0.22    0.13
  -7   5  19    0.14    0.11
  19  -7   5   -0.10    0.13
   5  19  -7   -0.07    0.10
  -7   5  19   -0.10    0.08
  19   7  -5    0.23    0.15
  -5  19   7    0.18    0.12
   5 -19   7    0.07    0.12
   5  19   7    0.57    0.18
   7   5  19    0.14    0.13
  19   7   5    0.11    0.13
  19  -7  -5    0.11    0.12
  -5  19  -7    0.16    0.13
  -7  -5  19    0.20    0.14
  -5 -19   7    0.13    0.11
   7   5  19    0.11    0.12
  -9   5  19    0.52    0.15
  -5  19   9    0.35    0.14
  -9   5  19    0.43    0.14
   5  19  -9    0.72    0.18
   5 -19   9    0.58    0.17
  -5  19   9    0.48    0.18
 -19   9   5    0.11    0.12
  19   9  -5    0.01    0.13
   9  -5  19    0.19    0.14
  19  -9   5    0.22    0.16
  -5  19  -9    0.34    0.15
  -5 -19   9    0.54    0.15
   5  19   9    0.27    0.15
  19   9   5    0.61    0.17
  19  -9  -5    0.17    0.12
   9   5  19    0.21    0.13
   9   5  19    0.61    0.17
  -9  -5  19    0.37    0.14
  -9  -5  19    0.83    0.19
  19 -11   5    0.00    0.14
 -11   5  19    0.09    0.11
  11  -5  19   -0.08    0.11
  -5  19  11   -0.01    0.12
  19  11  -5    0.09    0.12
  -5  19  11   -0.13    0.12
 -19  11   5    0.05    0.11
 -11   5  19   -0.08    0.11
   5  19 -11   -0.15    0.11
   5 -19  11   -0.03    0.13
 -11  -5  19    0.01    0.10
  11   5  19    0.04    0.12
  19 -11  -5    0.10    0.12
  -5 -19  11    0.09    0.12
  19  11   5    0.04    0.12
  11   5  19   -0.03    0.13
  -5  19 -11   -0.11    0.09
  19  11   5    0.22    0.15
 -11  -5  19    0.04    0.11
   5  19  11    0.14    0.14
 -13   5  19   -0.07    0.10
  13  -5  19   -0.18    0.12
  19  13  -5   -0.11    0.11
 -19  13   5   -0.21    0.11
   5 -19  13   -0.08    0.14
  -5  19  13   -0.07    0.14
  19 -13   5   -0.14    0.13
 -13   5  19    0.00    0.13
   5  19 -13   -0.05    0.13
  19 -13  -5   -0.13    0.12
 -19  13  -5   -0.10    0.11
  13   5  19   -0.02    0.13
  19  13   5    0.04    0.13
  19  13   5   -0.21    0.12
   5  19  13    0.09    0.13
 -13  -5  19   -0.17    0.10
 -13  -5  19    0.00    0.11
  -5  19 -13   -0.23    0.12
  -5 -19  13    0.08    0.13
  13   5  19   -0.24    0.10
 -19  15   5    0.79    0.18
 -15   5  19    0.83    0.21
  19 -15   5    0.60    0.20
 -15   5  19    0.54    0.17
  15  -5  19    1.30    0.26
  19  15  -5    0.84    0.20
  -5  19  15    0.91    0.23
   5 -19  15    0.83    0.22
   5  19 -15    0.32    0.16
  19  15   5    0.85    0.22
  15   5  19    0.96    0.21
   5  19  15    0.96    0.23
 -15  -5  19    0.73    0.19
 -19  15  -5    0.66    0.20
 -15  -5  19    0.53    0.18
  -5  19 -15    0.77    0.21
  15   5  19    1.17    0.22
  -5 -19  15    0.71    0.21
  19  15   5    0.85    0.19
   5 -19  17    0.33    0.19
 -19  17   5    0.22    0.17
  -5  19  17   -0.07    0.16
   5  19 -17    0.15    0.16
 -17   5  19    0.25    0.18
  17  -5  19    0.03    0.18
  19  17  -5    0.24    0.18
 -17   5  19    0.51    0.19
  19 -17   5    0.16    0.18
 -17  -5  19    0.47    0.19
  19  17   5   -0.06    0.17
  17   5  19    0.14    0.17
  -5 -19  17    0.24    0.17
  -5  19 -17    0.03    0.17
 -19  17  -5    0.10    0.15
   5  19  17    0.45    0.19
  17   5  19    0.02    0.17
  19   1  -7    1.03    0.21
  -1   7  19    1.27    0.18
  -7  19   1    0.95    0.18
  -1   7  19    1.91    0.23
   7  19  -1    1.49    0.20
  19  -1   7    1.12    0.21
   1  -7  19    1.04    0.21
  -7  19   1    0.92    0.16
   1   7  19    1.46    0.20
  -7  19  -1    1.47    0.17
  -1  -7  19    1.43    0.23
   7  19   1    1.28    0.19
   1   7  19    1.44    0.19
  19   1   7    1.46    0.22
  -7  19  -1    1.90    0.24
  19  -1  -7    1.49    0.21
  -7  19   3    0.38    0.14
   7  19  -3    0.54    0.15
  -3   7  19    0.73    0.17
  19   3  -7    0.59    0.17
  -3   7  19    0.65    0.14
   3  -7  19    0.84    0.19
   7  19  -3    0.55    0.14
 -19   3   7    0.65    0.16
  19  -3   7    0.50    0.18
  -7  19   3    0.69    0.15
   3   7  19    1.00    0.18
  -3  -7  19    0.76    0.19
   3   7  19    0.35    0.14
  19   3   7    0.46    0.16
   7  19   3    0.64    0.16
  19  -3  -7    0.78    0.18
  -7  19  -3    0.56    0.16
  -7  19   5    0.26    0.14
   5  -7  19    0.06    0.12
  19  -5   7   -0.15    0.13
   7  19  -5   -0.04    0.09
  -5   7  19   -0.04    0.10
 -19   5   7    0.09    0.11
  19   5  -7    0.10    0.11
  -7  19   5    0.17    0.12
  -5   7  19    0.10    0.10
   7  19  -5    0.15    0.11
   5   7  19    0.01    0.12
  -5  -7  19    0.13    0.12
  -7  19  -5    0.08    0.14
   5   7  19    0.24    0.13
  -7 -19   5    0.08    0.10
  19  -5  -7   -0.04    0.10
   7  19   5    0.10    0.13
  19   5   7    0.20    0.13
  -7  19   7   -0.06    0.10
   7 -19   7    0.02    0.11
  -7   7  19   -0.04    0.10
  19   7  -7    0.01    0.10
   7  -7  19   -0.11    0.10
  -7   7  19    0.02    0.10
  19  -7   7    0.03    0.12
 -19   7   7    0.06    0.10
  -7  19   7    0.01    0.11
   7  19  -7    0.05    0.11
   7   7  19    0.03    0.12
  -7  19  -7    0.01    0.13
  -7  -7  19   -0.18    0.09
   7   7  19   -0.02    0.11
  19  -7  -7    0.04    0.12
  19   7   7   -0.15    0.11
  -7 -19   7   -0.18    0.08
   7  19   7   -0.07    0.12
  -7  19   9    0.50    0.16
 -19   9   7    0.67    0.18
  -9   7  19    1.07    0.18
  19  -9   7    0.62    0.20
  -7  19   9    0.83    0.21
   7  19  -9    0.71    0.18
  -9   7  19    0.55    0.17
   7 -19   9    1.03    0.19
  19   9  -7    0.76    0.19
   9  -7  19    0.87    0.21
   9   7  19    0.58    0.17
  -7 -19   9    1.06    0.18
  19   9   7    0.76    0.20
  -7  19  -9    0.46    0.16
   9   7  19    0.47    0.16
  19   9   7    0.65    0.18
   7  19   9    0.71    0.19
  19  -9  -7    0.66    0.17
  -9  -7  19    0.62    0.19
 -11   7  19    0.12    0.11
  -7  19  11    0.09    0.13
   7 -19  11    0.04    0.13
 -19  11   7   -0.03    0.10
  19 -11   7    0.15    0.17
 -11   7  19   -0.11    0.13
  19  11  -7    0.16    0.14
   7  19 -11   -0.01    0.12
  -7  19  11    0.23    0.13
  11  -7  19    0.11    0.12
  -7  19 -11    0.04    0.13
  11   7  19   -0.12    0.12
  -7 -19  11    0.00    0.12
  19  11   7    0.05    0.11
   7  19  11   -0.12    0.11
  19  11   7    0.00    0.12
  11   7  19    0.04    0.13
 -11  -7  19   -0.04    0.10
  19 -11  -7    0.03    0.13
  13  -7  19    0.10    0.14
 -19  13   7    0.48    0.17
   7 -19  13    0.15    0.14
 -13   7  19    0.37    0.18
  -7  19  13    0.08    0.14
  -7  19  13    0.19    0.16
  19 -13   7    0.64    0.20
   7  19 -13    0.49    0.17
 -13   7  19    0.53    0.16
  19  13  -7    0.33    0.15
   7  19  13    0.49    0.19
  -7  19 -13    0.30    0.17
  19  13   7    0.54    0.20
  13   7  19    0.43    0.18
  19 -13  -7    0.82    0.19
  -7 -19  13    0.91    0.21
 -13  -7  19    0.35    0.18
 -19  13  -7    0.75    0.21
  19  13   7    0.32    0.17
  13   7  19    0.62    0.19
  19 -15   7    0.18    0.17
 -15   7  19    0.11    0.13
   7  19 -15    0.14    0.14
 -15   7  19    0.23    0.17
   7 -19  15   -0.14    0.13
  -7  19  15    0.29    0.17
  19  15  -7    0.35    0.17
 -19  15   7    0.18    0.13
  15  -7  19    0.44    0.20
  -7  19 -15    0.23    0.14
 -15  -7  19    0.07    0.14
 -19  15  -7   -0.02    0.15
  15   7  19    0.43    0.19
  19  15   7    0.36    0.17
  15   7  19    0.06    0.15
  -7 -19  15    0.06    0.14
   7  19  15   -0.06    0.15
 -17   7  19    0.83    0.20
   7 -19  17    1.16    0.25
  19  17  -7    0.43    0.19
 -19  17   7    0.41    0.19
  19 -17   7    1.00    0.24
  17  -7  19    0.55    0.22
 -17   7  19    1.00    0.25
  -7  19  17    0.81    0.23
  17   7  19    0.45    0.20
   7  19  17    0.58    0.22
 -19  17  -7    0.69    0.22
  19  17   7    0.86    0.23
  17   7  19    1.21    0.26
  -7 -19  17    1.13    0.25
  -7  19 -17    0.87    0.23
 -17  -7  19    1.19    0.26
  -1   9  19    0.46    0.16
  -9  19   1    0.71    0.14
 -19   1   9    0.65    0.18
   9  19  -1    0.52    0.15
  19   1  -9    0.53    0.18
  19  -1   9    0.56    0.18
   1  -9  19    0.32    0.16
  -9  19   1    0.61    0.17
   1   9 -19    0.85    0.18
  19   1   9    0.51    0.17
   9  19   1    0.90    0.18
  19  -1  -9    0.52    0.16
  -1  -9  19    0.65    0.19
  -9  19  -1    0.45    0.14
   1   9  19    0.69    0.17
  19   3  -9    0.01    0.13
  -9  19   3    0.20    0.14
  -9  19   3    0.06    0.11
  -3   9  19    0.23    0.14
   3   9 -19    0.22    0.13
   9  19  -3    0.30    0.13
 -19   3   9    0.18    0.12
  19  -3   9    0.26    0.14
   3  -9  19    0.14    0.13
  19   3   9    0.16    0.16
   3   9  19    0.20    0.14
  19  -3  -9    0.00    0.12
   9  19   3    0.30    0.14
  -9  19  -3    0.12    0.13
  -3  -9  19    0.63    0.19
  -9  19   5    0.34    0.14
  -5   9  19    0.52    0.17
   9  19  -5    0.35    0.14
   5  -9  19    0.48    0.17
 -19   5   9    0.50    0.16
  19   5  -9    0.23    0.15
  19  -5   9    0.14    0.18
   9  19  -5    0.43    0.14
  -9  19   5    0.55    0.16
  19  -5  -9    0.31    0.14
  -5  -9  19    0.26    0.17
  -9 -19   5    0.24    0.13
   9  19   5    0.46    0.16
  -9  19  -5    0.24    0.15
  19   5   9    0.55    0.18
   5   9  19    0.53    0.18
  -7   9  19    0.48    0.16
  19  -7   9    0.78    0.21
   9  19  -7    0.82    0.18
   9 -19   7    0.55    0.17
 -19   7   9    0.41    0.15
  19   7  -9    0.77    0.19
   7  -9  19    0.76    0.21
  -9  19   7    0.72    0.18
  -9  19   7    0.79    0.18
  19   7   9    0.34    0.16
  -7  -9  19    0.81    0.22
  19  -7  -9    0.54    0.16
   7   9  19    0.73    0.19
  19   7   9    0.81    0.20
  -9 -19   7    0.58    0.17
   9  19   7    0.95    0.21
  -9  19  -7    0.87    0.20
  -9  19   9   -0.03    0.11
 -19   9   9   -0.16    0.11
  -9   9  19    0.05    0.14
  -9  19   9    0.02    0.11
   9  19  -9   -0.11    0.11
  19  -9   9   -0.23    0.13
   9 -19   9    0.08    0.14
  19   9  -9   -0.11    0.12
   9  -9  19   -0.03    0.14
 -19  -9   9   -0.13    0.11
  19  -9  -9    0.00    0.12
  19   9   9   -0.22    0.13
  -9 -19   9   -0.09    0.11
   9   9  19   -0.15    0.12
  -9  -9  19   -0.01    0.11
   9  19   9   -0.12    0.10
  19   9   9   -0.06    0.11
  -9  19  -9   -0.08    0.14
   9  19 -11    0.18    0.15
 -11   9  19    0.28    0.16
  -9  19  11    0.06    0.13
  11  -9  19    0.28    0.18
  -9  19  11    0.57    0.20
   9 -19  11    0.10    0.15
  19  11  -9    0.29    0.16
 -19  11   9    0.30    0.14
  19 -11   9    0.40    0.17
  -9 -19  11    0.22    0.16
  19  11   9    0.17    0.15
  -9  19 -11    0.42    0.18
  19 -11  -9    0.23    0.17
  11   9  19    0.10    0.15
   9  19  11    0.08    0.15
  19  11   9    0.28    0.17
 -19 -11   9    0.39    0.18
 -11  -9  19    0.07    0.13
  -9  19  13    0.10    0.14
  19 -13   9   -0.07    0.17
  13  -9  19    0.05    0.16
   9 -19  13    0.15    0.17
   9  19 -13   -0.02    0.12
 -19  13   9   -0.10    0.11
 -13   9  19   -0.13    0.15
  19  13   9   -0.30    0.14
 -19 -13   9    0.00    0.14
  19  13   9   -0.01    0.13
  13   9  19    0.10    0.16
 -13  -9  19   -0.03    0.14
  -9 -19  13    0.12    0.15
   9  19  13    0.24    0.15
  -9  19 -13   -0.27    0.12
 -19  15   9    0.09    0.13
   9 -19  15    0.22    0.19
  19 -15   9    0.14    0.18
  -9  19  15   -0.19    0.12
 -15   9  19    0.14    0.17
  15  -9  19    0.10    0.18
  -9  19 -15    0.04    0.15
  15   9  19   -0.01    0.16
 -19  15  -9    0.23    0.18
 -19 -15   9   -0.16    0.15
  19  15   9    0.04    0.14
   9  19  15   -0.18    0.12
  -9 -19  15   -0.03    0.15
 -15  -9  19    0.09    0.14
  17  -9  19    0.49    0.22
  -9  19  17    0.33    0.20
 -19  17   9    0.54    0.20
   9 -19  17    0.45    0.20
 -17   9  19    0.54    0.20
  19  17  -9    0.36    0.20
  19 -17   9    0.28    0.21
 -19  17  -9    0.66    0.21
  17   9  19    0.25    0.19
  -9  19 -17    0.60    0.23
 -19 -17   9    0.64    0.21
  19  17   9    0.29    0.21
  -9 -19  17    0.90    0.24
 -17  -9  19    0.76    0.23
   9  19  17    0.51    0.22
  -1  11  19    2.92    0.31
   1  11 -19    2.49    0.26
 -11  19   1    2.92    0.25
  19  -1  11    2.72    0.31
 -11  19   1    2.02    0.27
 -19   1  11    2.87    0.30
   1 -11  19    2.78    0.32
  19   1 -11    2.93    0.30
  11  19  -1    3.01    0.27
  -1  11 -19    2.69    0.28
  11  19   1    2.69    0.27
  19  -1 -11    2.71    0.30
  -1 -11  19    2.74    0.31
  19   1  11    3.21    0.33
   1  11  19    2.57    0.30
 -11  19  -1    2.49    0.27
 -11  19   3    0.34    0.15
  19  -3  11    0.81    0.19
 -19   3  11    0.51    0.17
   3  11 -19    0.20    0.13
  -3  11  19    0.81    0.19
   3 -11  19    1.01    0.22
 -11  19   3    0.36    0.15
  19   3 -11    0.56    0.18
  11  19  -3    0.70    0.16
  -3  11 -19    0.51    0.16
  11  19   3    0.05    0.11
  19   3  11    0.38    0.17
  19   3  11    0.55    0.18
  19  -3 -11    0.16    0.15
   3  11  19    0.34    0.18
 -11  19  -3    0.49    0.17
  -3 -11  19    0.55    0.18
 -11  19   5    0.08    0.11
 -11  19   5   -0.11    0.10
  19  -5  11   -0.05    0.14
  11  19  -5    0.08    0.11
  -5  11  19   -0.04    0.13
  11  19  -5    0.01    0.12
 -19   5  11    0.02    0.13
   5 -11  19    0.12    0.15
  -5 -11  19    0.89    0.23
  19   5  11    0.17    0.14
 -19  -5  11    0.01    0.10
  -5  11 -19   -0.01    0.11
  19  -5 -11    0.00    0.13
 -11  19  -5   -0.11    0.12
 -11 -19   5   -0.05    0.11
   5  11  19    0.33    0.17
  11  19   5    0.12    0.13
  19   5  11    0.06    0.14
  -7  11  19    0.10    0.13
   7 -11  19    0.02    0.13
 -11  19   7    0.15    0.14
  11  19  -7    0.11    0.13
 -11  19   7   -0.10    0.11
  11 -19   7   -0.08    0.12
  19  -7  11   -0.06    0.12
 -19   7  11    0.10    0.12
  11  19   7    0.05    0.13
  19   7  11   -0.03    0.14
 -11  19  -7   -0.18    0.11
  19  -7 -11   -0.01    0.13
  19   7  11    0.11    0.13
   7  11  19    0.19    0.15
 -11 -19   7   -0.20    0.10
  -7 -11  19    0.07    0.13
 -19  -7  11    0.15    0.12
  -9  11  19    0.22    0.16
  19  -9  11    0.04    0.16
 -11  19   9    0.61    0.17
  11  19  -9    0.38    0.16
  11 -19   9    0.64    0.19
 -19   9  11    0.32    0.15
 -11  19   9    0.23    0.16
   9 -11  19    0.23    0.16
 -19  -9  11    0.33    0.16
  11  19   9    0.49    0.19
  19   9  11    0.64    0.18
 -11  19  -9    0.33    0.18
 -11 -19   9    0.09    0.14
   9  11  19    0.33    0.18
  19  -9 -11    0.36    0.17
  19   9  11    0.55    0.20
  -9 -11  19    0.21    0.18
 -11  11  19    0.11    0.15
  11 -11  19   -0.24    0.13
 -11  19  11   -0.07    0.12
 -19  11  11    0.01    0.12
  11 -19  11    0.10    0.15
  11  19 -11   -0.06    0.12
  19 -11  11   -0.31    0.13
  19  11  11    0.04    0.15
  19  11  11   -0.05    0.13
 -19 -11  11   -0.07    0.12
 -11 -11  19   -0.09    0.15
 -11  19 -11   -0.13    0.13
  11  11  19   -0.09    0.12
  19 -11 -11   -0.11    0.14
  11  19  11   -0.07    0.13
 -11 -19  11   -0.16    0.10
 -13  11  19   -0.18    0.13
 -11  19  13   -0.08    0.12
 -19  13  11   -0.09    0.12
  13 -11  19    0.15    0.17
  11 -19  13   -0.21    0.13
  19 -13  11   -0.05    0.15
  19  13  11    0.02    0.16
 -11 -19  13   -0.14    0.13
 -19 -13  11   -0.10    0.14
  11  19  13   -0.01    0.13
  13  11  19    0.00    0.16
 -11  19 -13   -0.20    0.11
 -13 -11  19   -0.03    0.13
  11 -19  15    0.23    0.17
 -11  19  15    0.02    0.13
  19 -15  11    0.20    0.19
 -19  15  11   -0.16    0.12
 -15  11  19    0.09    0.16
  15 -11  19    0.50    0.22
 -11 -19  15    0.20    0.17
 -15 -11  19    0.23    0.21
  15  11  19    0.11    0.17
  19  15  11    0.36    0.21
 -11  19 -15    0.09    0.12
 -19 -15  11    0.22    0.17
  11  19  15    0.05    0.16
  19 -17  11   -0.06    0.17
 -17  11  19    0.00    0.17
 -19  17  11   -0.09    0.13
  11 -19  17   -0.06    0.18
 -11  19  17   -0.20    0.14
  17 -11  19   -0.19    0.15
 -11  19 -17   -0.07    0.14
 -17 -11  19   -0.11    0.17
  19  17  11    0.07    0.16
  17  11  19   -0.05    0.19
 -11 -19  17    0.05    0.17
  11  19  17    0.03    0.18
 -19 -17  11    0.08    0.17
 -19  17 -11   -0.06    0.18
  19  -1  13   -0.07    0.11
   1 -13  19    0.01    0.11
  19   1 -13   -0.15    0.13
 -13  19   1    0.01    0.13
 -19   1  13   -0.09    0.13
  13  19  -1   -0.18    0.11
  19  -1  13   -0.11    0.13
   1  13 -19   -0.24    0.13
 -13  19   1    0.00    0.11
  -1  13  19    0.12    0.16
  13  19   1    0.00    0.12
  -1  13 -19   -0.03    0.13
 -19  -1  13   -0.14    0.12
  19   1  13    0.01    0.13
 -19  -1  13   -0.02    0.09
  -1 -13  19   -0.04    0.12
  19   1  13   -0.29    0.09
 -13  19  -1   -0.15    0.12
   1  13  19    0.08    0.14
  19  -1 -13    0.03    0.14
   3 -13  19    0.02    0.14
  19  -3  13   -0.03    0.13
  -3  13  19    0.06    0.15
   3  13 -19   -0.23    0.10
  13  19  -3   -0.01    0.12
  19  -3  13   -0.21    0.10
 -19   3  13    0.00    0.12
 -13  19   3   -0.14    0.10
 -13  19   3    0.10    0.13
  -3  13 -19   -0.09    0.12
  13  19   3   -0.35    0.10
 -19  -3  13   -0.07    0.11
   3  13  19   -0.11    0.14
  -3 -13  19    0.23    0.16
  19   3  13   -0.11    0.13
 -13  19  -3    0.19    0.14
  19   3  13   -0.20    0.12
  19  -3 -13   -0.16    0.13
 -13  19   5   -0.09    0.11
 -19   5  13   -0.08    0.14
 -13  19   5    0.01    0.11
  -5  13  19    0.16    0.16
  13  19  -5   -0.15    0.11
  19  -5  13    0.02    0.14
  13  19  -5   -0.02    0.11
   5 -13  19   -0.04    0.14
 -19  -5  13   -0.20    0.08
  19   5  13    0.02    0.15
  13  19   5    0.02    0.12
   5  13  19    0.05    0.15
 -13 -19   5   -0.18    0.11
  -5 -13  19   -0.05    0.13
  -5  13 -19    0.04    0.12
 -13  19  -5   -0.09    0.13
  19  -5 -13   -0.10    0.12
  19   5  13   -0.13    0.14
   7 -13  19    0.70    0.22
 -13  19   7    0.63    0.18
  13 -19   7    0.21    0.16
  19  -7  13    0.45    0.22
 -13  19   7    0.78    0.19
  13  19  -7    0.63    0.17
  13  19  -7    0.39    0.16
  -7  13  19    0.63    0.21
 -19   7  13    0.67    0.20
  13  19   7    0.49    0.19
  19   7  13    0.54    0.19
 -13 -19   7    0.57    0.19
 -19  -7  13    0.43    0.19
  -7 -13  19    0.53    0.20
  -7  13 -19    0.69    0.21
  19   7  13    0.29    0.17
 -13  19  -7    1.01    0.22
   7  13  19    0.91    0.22
  19  -7 -13    0.48    0.18
 -13  19   9    0.15    0.13
  19  -9  13   -0.24    0.15
  13  19  -9    0.00    0.13
  -9  13  19   -0.10    0.13
 -19   9  13   -0.08    0.10
   9 -13  19   -0.09    0.14
  13 -19   9   -0.04    0.15
 -13 -19   9   -0.04    0.13
  -9 -13  19    0.11    0.14
   9  13  19   -0.19    0.15
  19   9  13   -0.17    0.15
  19   9  13   -0.12    0.14
  19  -9 -13   -0.12    0.14
 -19  -9  13    0.10    0.14
 -13  19  -9   -0.11    0.15
  13  19   9   -0.03    0.12
  19 -11  13    0.17    0.18
 -19  11  13   -0.03    0.12
 -13  19  11   -0.01    0.14
 -11  13  19   -0.12    0.14
  11 -13  19   -0.41    0.14
  13 -19  11    0.07    0.16
 -13 -19  11   -0.03    0.14
 -11 -13  19    0.10    0.15
 -13  19 -11    0.14    0.14
  19  11  13   -0.03    0.14
  13  19  11    0.25    0.17
 -19 -11  13   -0.11    0.14
  19  11  13   -0.04    0.14
  11  13  19   -0.10    0.15
  19 -13  13   -0.18    0.17
 -13  19  13   -0.01    0.13
 -19  13  13   -0.25    0.09
 -13  13  19   -0.07    0.14
  13 -19  13    0.18    0.16
  13 -13  19   -0.04    0.14
 -13 -19  13   -0.02    0.16
  19  13  13   -0.20    0.16
 -13 -13  19   -0.18    0.14
 -13  19 -13   -0.40    0.11
  13  19  13   -0.21    0.11
  13  13  19   -0.01    0.16
 -19 -13  13   -0.06    0.15
 -13  19  15   -0.09    0.15
  19 -15  13    0.09    0.18
 -19  15  13    0.02    0.13
 -15  13  19   -0.07    0.17
  13 -19  15   -0.05    0.19
  15 -13  19    0.13    0.20
  19  15  13    0.03    0.19
  13  19  15   -0.02    0.17
 -13  19 -15    0.12    0.16
 -15 -13  19    0.12    0.19
 -13 -19  15   -0.12    0.16
 -19 -15  13    0.03    0.17
  15  13  19   -0.06    0.18
 -13  19  17    0.26    0.18
  13 -19  17    0.38    0.22
 -17  13  19    0.20    0.18
 -19  17  13    0.02    0.15
  17 -13  19   -0.06    0.18
  19 -17  13    0.19    0.22
  13  19  17    0.18    0.21
 -19 -17  13   -0.20    0.16
 -13  19 -17    0.22    0.19
 -17 -13  19   -0.02    0.17
 -13 -19  17   -0.17    0.15
  19  17  13    0.01    0.22
  17  13  19    0.17    0.22
 -19   1  15    0.00    0.11
 -15  19   1   -0.03    0.13
  -1  15  19   -0.12    0.14
  19  -1  15   -0.09    0.11
 -15  19   1   -0.02    0.11
  19  -1  15    0.02    0.15
   1  15 -19    0.06    0.14
 -19   1  15    0.06    0.14
   1 -15  19   -0.07    0.12
  15  19  -1    0.15    0.13
  15  19   1   -0.01    0.14
  -1  15 -19    0.04    0.14
   1  15  19    0.15    0.19
  -1 -15  19    0.03    0.14
 -15  19  -1   -0.08    0.11
  19   1  15   -0.11    0.13
  19   1  15   -0.04    0.13
 -19  -1  15   -0.03    0.13
 -19  -1  15   -0.02    0.11
  15  19  -3   -0.21    0.12
   3  15 -19    0.09    0.14
 -15  19   3    0.00    0.13
  19  -3  15   -0.12    0.12
 -19   3  15    0.01    0.12
  -3  15  19   -0.15    0.14
 -15  19   3   -0.13    0.11
   3 -15  19    0.03    0.14
 -15  19  -3   -0.12    0.12
  15  19   3    0.10    0.14
  19  -3 -15   -0.06    0.13
  19   3  15    0.15    0.14
 -19  -3  15    0.05    0.12
  -3  15 -19   -0.04    0.12
  -3 -15  19   -0.07    0.12
  19   3  15    0.17    0.16
   3  15  19    0.00    0.17
  15  19  -5    0.41    0.16
  15  19  -5    0.85    0.19
 -19   5  15    0.48    0.19
  19  -5  15    0.79    0.21
   5 -15  19    0.43    0.19
  -5  15  19    0.86    0.24
 -15  19   5    0.83    0.19
 -15  19   5    0.59    0.18
  19  -5 -15    0.63    0.19
  19   5  15    0.93    0.22
  -5  15 -19    0.64    0.20
  -5 -15  19    0.77    0.22
 -15 -19   5    0.66    0.20
  15  19   5    0.61    0.20
  19   5  15    0.91    0.22
 -15  19  -5    1.17    0.23
 -19  -5  15    0.70    0.20
   5  15  19    0.58    0.20
  15 -19   7    0.18    0.16
  15  19  -7    0.54    0.17
 -19   7  15    0.07    0.15
  15  19  -7   -0.06    0.11
 -15  19   7    0.19    0.15
  -7  15  19    0.03    0.15
  19  -7  15    0.30    0.18
   7 -15  19   -0.02    0.16
 -19  -7  15    0.13    0.13
   7  15  19    0.36    0.20
  19  -7 -15   -0.02    0.15
  19   7  15    0.37    0.19
  19   7  15    0.47    0.19
 -15 -19   7   -0.01    0.14
 -15  19  -7    0.08    0.14
  -7 -15  19   -0.10    0.14
  15  19   7    0.47    0.18
  -7  15 -19    0.42    0.19
  19  -9  15    0.15    0.18
  -9  15  19   -0.12    0.14
   9 -15  19    0.00    0.16
 -15  19   9   -0.11    0.13
  15 -19   9   -0.04    0.15
 -19   9  15   -0.17    0.13
  -9  15 -19   -0.11    0.12
 -19  -9  15    0.13    0.15
 -15  19  -9    0.00    0.14
  -9 -15  19   -0.08    0.17
  19   9  15   -0.05    0.15
  15  19   9   -0.08    0.12
   9  15  19    0.07    0.17
  19  -9 -15   -0.16    0.12
 -15 -19   9    0.02    0.14
  19   9  15    0.15    0.17
 -19  11  15    0.13    0.15
  19 -11  15    0.28    0.21
  15 -19  11    0.42    0.20
  11 -15  19    0.42    0.21
 -11  15  19    0.20    0.18
 -15  19  11    0.46    0.17
  19  11  15    0.39    0.21
 -15 -19  11    0.31    0.19
 -11  15 -19    0.31    0.18
 -15  19 -11    0.51    0.19
  15  19  11    0.25    0.15
 -11 -15  19    0.23    0.20
 -19 -11  15    0.37    0.20
  11  15  19    0.09    0.15
  15 -19  13   -0.10    0.16
 -19  13  15    0.21    0.17
 -15  19  13    0.39    0.18
  19 -13  15    0.25    0.20
 -13  15  19    0.06    0.18
  13 -15  19    0.09    0.20
  19  13  15    0.30    0.19
 -15  19 -13    0.22    0.19
  13  15  19   -0.27    0.17
 -19 -13  15    0.16    0.18
  15  19  13    0.08    0.16
 -13 -15  19   -0.06    0.16
 -15 -19  13   -0.10    0.15
 -15  19  15   -0.14    0.14
 -15  15  19    0.06    0.15
  15 -19  15   -0.02    0.17
  15 -15  19    0.01    0.17
 -19  15  15   -0.10    0.17
  19 -15  15    0.32    0.22
  15  19  15    0.05    0.18
 -15 -15  19   -0.19    0.16
 -15 -19  15   -0.13    0.17
 -19 -15  15   -0.21    0.14
  19  15  15    0.02    0.19
  15  15  19    0.14    0.20
 -15  19 -15   -0.07    0.16
 -15  19  17    0.04    0.17
  19 -17  15    0.08    0.18
 -19  17  15    0.06    0.17
  17 -15  19   -0.21    0.20
 -17  15  19   -0.03    0.18
  15 -19  17    0.17    0.21
 -19 -17  15    0.10    0.20
  19  17  15    0.13    0.20
  15  19  17   -0.20    0.20
 -15 -19  17    0.09    0.19
  17  15  19   -0.23    0.21
 -17 -15  19   -0.18    0.20
 -15  19 -17    0.02    0.15
  17  19  -1   -0.23    0.12
   1 -17  19   -0.05    0.15
 -17  19   1   -0.03    0.14
 -19   1  17   -0.05    0.12
 -19   1  17   -0.03    0.15
  -1  17  19    0.19    0.17
   1  17 -19   -0.32    0.13
  19  -1  17   -0.13    0.14
  19   1  17   -0.30    0.13
 -19  -1  17   -0.10    0.13
   1  17  19    0.10    0.16
 -19  -1  17   -0.06    0.14
  -1 -17  19   -0.01    0.15
 -17  19  -1   -0.31    0.12
  19   1  17   -0.10    0.13
  17  19   1   -0.09    0.11
  -1  17 -19   -0.17    0.11
  19  -3  17   -0.06    0.14
   3 -17  19   -0.08    0.15
 -19   3  17   -0.03    0.11
   3  17 -19    0.10    0.14
 -19   3  17   -0.20    0.13
 -17  19   3   -0.23    0.12
  -3  17  19    0.06    0.16
  17  19  -3    0.18    0.15
 -17  19   3   -0.25    0.14
  -3  17 -19   -0.04    0.14
  -3 -17  19    0.01    0.17
  17  19   3   -0.32    0.13
  19   3  17    0.01    0.15
 -17  19  -3   -0.21    0.11
   3  17  19   -0.18    0.14
 -19  -3  17   -0.16    0.14
 -19  -3  17   -0.11    0.13
  19   3  17   -0.03    0.14
  -5  17  19    0.34    0.19
  17  19  -5    0.25    0.16
   5 -17  19    0.15    0.16
 -19   5  17    0.11    0.18
  19  -5  17   -0.02    0.19
  17  19  -5    0.24    0.18
 -17  19   5    0.23    0.16
 -17  19  -5   -0.15    0.15
   5  17  19    0.12    0.21
  17  19   5    0.30    0.17
  19  -5 -17    0.15    0.16
  19   5  17    0.43    0.20
  -5 -17  19    0.32    0.20
  -5  17 -19    0.12    0.15
  19   5  17    0.11    0.19
 -19  -5  17   -0.25    0.13
  17  19  -7    0.95    0.20
 -17  19   7    0.72    0.22
 -19   7  17    1.16    0.25
  17  19  -7    0.63    0.20
  17 -19   7    0.39    0.19
   7 -17  19    0.69    0.23
  -7  17  19    0.49    0.19
  19  -7  17    0.83    0.23
  19  -7 -17    0.49    0.21
 -17 -19   7    0.69    0.21
 -19  -7  17    0.59    0.20
 -17  19  -7    0.53    0.19
  17  19   7    0.54    0.23
  19   7  17    0.96    0.23
   7  17  19    0.86    0.25
  -7  17 -19    0.68    0.24
  -7 -17  19    0.91    0.25
  19   7  17    0.59    0.21
  19  -9  17    0.54    0.24
  17 -19   9    0.41    0.20
  -9  17  19    0.50    0.20
 -17  19   9    0.65    0.20
   9 -17  19    0.57    0.22
 -19   9  17    0.63    0.21
  19   9  17    0.34    0.19
  19   9  17    0.42    0.23
 -19  -9  17    0.27    0.21
  -9 -17  19    0.60    0.23
 -17  19  -9    0.31    0.21
  17  19   9    0.60    0.22
   9  17  19    0.95    0.25
 -17 -19   9    0.38    0.19
  -9  17 -19    0.32    0.18
  11 -17  19    0.08    0.18
  17 -19  11   -0.08    0.17
 -11  17  19   -0.04    0.12
 -17  19  11   -0.04    0.15
 -19  11  17   -0.05    0.14
  19 -11  17   -0.04    0.17
  19  11  17   -0.13    0.18
 -17  19 -11   -0.17    0.15
 -11  17 -19   -0.32    0.12
 -17 -19  11   -0.15    0.15
  17  19  11   -0.22    0.15
  11  17  19    0.23    0.22
 -11 -17  19   -0.27    0.15
 -19 -11  17    0.07    0.18
 -13  17  19    0.10    0.17
 -17  19  13   -0.01    0.16
 -19  13  17    0.58    0.22
  19 -13  17    0.25    0.22
  17 -19  13    0.14    0.20
  13 -17  19    0.16    0.20
 -13  17 -19    0.10    0.16
  17  19  13    0.17    0.17
  13  17  19    0.03    0.18
 -13 -17  19    0.26    0.20
 -17  19 -13   -0.20    0.18
 -17 -19  13    0.07    0.16
 -19 -13  17   -0.02    0.20
  19  13  17    0.24    0.22
 -15  17  19   -0.03    0.16
  15 -17  19    0.02    0.21
 -17  19  15   -0.05    0.17
  17 -19  15   -0.06    0.20
  19 -15  17    0.09    0.21
 -19  15  17    0.25    0.19
  19  15  17    0.19    0.20
  17  19  15    0.24    0.23
  15  17  19   -0.04    0.22
 -17  19 -15    0.13    0.19
 -17 -19  15    0.15    0.20
 -15 -17  19    0.06    0.18
 -19 -15  17   -0.15    0.19
  17 -19  17   -0.05    0.20
 -17  17  19   -0.11    0.15
 -19  17  17   -0.10    0.13
  17 -17  19    0.03    0.19
  19 -17  17   -0.31    0.17
 -17  19  17   -0.04    0.17
 -19 -17  17   -0.30    0.18
  17  19  17    0.02    0.19
 -17 -19  17   -0.29    0.18
  19  17  17   -0.34    0.17
  17  17  19    0.20    0.23
 -17 -17  19   -0.18    0.17
  19  19  -1   -0.05    0.14
   1 -19  19    0.09    0.17
  19  -1  19    0.09    0.18
 -19   1  19    0.14    0.16
 -19   1  19   -0.02    0.17
  -1  19  19   -0.07    0.14
   1  19 -19    0.12    0.16
 -19  19   1   -0.04    0.14
 -19  19  -1   -0.04    0.14
 -19  -1  19   -0.06    0.14
   1  19  19    0.08    0.18
  -1 -19  19    0.20    0.18
  19  19   1    0.10    0.15
  -1  19 -19   -0.07    0.13
 -19  -1  19   -0.01    0.12
  19   1  19    0.14    0.17
   3 -19  19    0.01    0.16
 -19   3  19   -0.16    0.11
 -19   3  19    0.01    0.15
 -19  19   3    0.03    0.12
  -3  19  19   -0.26    0.13
  19  19  -3   -0.09    0.13
  19  -3  19    0.14    0.17
   3  19 -19    0.01    0.14
  19   3  19   -0.08    0.16
  -3  19 -19   -0.16    0.14
 -19  -3  19   -0.11    0.16
  19   3  19   -0.18    0.14
 -19  19  -3    0.01    0.15
  -3 -19  19    0.10    0.18
  19  19   3    0.03    0.15
 -19  -3  19   -0.03    0.13
   3  19  19   -0.09    0.17
  -5  19  19    0.03    0.13
  19  19  -5    0.02    0.17
  19  -5  19    0.01    0.16
   5 -19  19    0.07    0.16
 -19  19   5    0.12    0.14
 -19   5  19    0.04    0.13
  19  19  -5    0.06    0.14
 -19   5  19    0.08    0.18
  -5  19 -19    0.17    0.17
   5  19  19   -0.01    0.17
  19  -5 -19   -0.09    0.15
  -5 -19  19   -0.13    0.13
 -19  19  -5    0.03    0.16
  19  19   5   -0.06    0.16
 -19  -5  19   -0.22    0.12
  19   5  19   -0.08    0.16
  19   5  19    0.02    0.17
  19 -19   7   -0.08    0.17
 -19  19   7    0.04    0.14
  19  -7  19   -0.12    0.14
 -19   7  19    0.02    0.16
  19  19  -7   -0.13    0.14
   7 -19  19   -0.12    0.17
  -7  19  19    0.27    0.18
 -19  19  -7   -0.10    0.15
  19  -7 -19    0.08    0.17
  -7  19 -19    0.21    0.17
  19   7  19   -0.14    0.16
  -7 -19  19   -0.14    0.18
  19  19   7   -0.17    0.13
  19   7  19   -0.13    0.16
   7  19  19   -0.26    0.17
 -19  -7  19    0.01    0.14
  -9  19  19   -0.04    0.17
  19  -9  19   -0.02    0.18
 -19   9  19   -0.21    0.13
 -19  19   9    0.05    0.15
  19  19  -9    0.03    0.16
   9 -19  19   -0.16    0.14
  19 -19   9    0.11    0.17
 -19  -9  19    0.08    0.16
 -19  19  -9    0.01    0.14
   9  19  19    0.08    0.19
  19  19   9   -0.08    0.15
  -9 -19  19    0.05    0.20
  -9  19 -19   -0.15    0.14
  19   9  19   -0.10    0.16
 -19 -19   9   -0.06    0.17
 -19  19  11   -0.01    0.16
  19 -11  19    0.21    0.21
  11 -19  19   -0.09    0.15
  19 -19  11   -0.12    0.15
 -19  11  19   -0.10    0.16
 -11  19  19   -0.16    0.15
  11  19  19   -0.18    0.18
 -19  19 -11   -0.04    0.18
 -11  19 -19    0.30    0.18
 -19 -11  19    0.01    0.18
  19  11  19    0.27    0.21
 -11 -19  19   -0.19    0.16
  19  19  11    0.12    0.21
 -19 -19  11   -0.14    0.17
 -19  19  13    0.07    0.17
 -13  19  19   -0.37    0.13
  19 -13  19   -0.17    0.18
  13 -19  19   -0.17    0.16
 -19  13  19    0.14    0.20
  19 -19  13    0.12    0.21
 -13 -19  19   -0.12    0.16
  19  19  13    0.05    0.18
 -19 -19  13   -0.10    0.18
  13  19  19   -0.08    0.17
 -13  19 -19   -0.01    0.14
 -19 -13  19    0.09    0.19
  19  13  19   -0.07    0.21
 -19  19 -13   -0.17    0.17
 -19  19  15   -0.02    0.17
  19 -15  19    0.29    0.23
 -19  15  19    0.03    0.18
  15 -19  19    0.10    0.21
  19 -19  15    0.08    0.21
 -15  19  19    0.08    0.16
  15  19  19    0.35    0.25
 -19 -15  19    0.02    0.22
 -19 -19  15   -0.25    0.19
  19  19  15    0.01    0.21
 -15 -19  19   -0.04    0.18
  19  15  19    0.13    0.22
  17 -19  19    0.10    0.25
 -19  19  17    0.06    0.19
  19 -19  17   -0.22    0.20
  19 -17  19   -0.26    0.22
 -19  17  19    0.15    0.19
 -17  19  19   -0.18    0.18
 -17 -19  19   -0.27    0.21
  19  19  17    0.01    0.23
 -19 -17  19    0.08    0.24
  17  19  19    0.09    0.23
 -19 -19  17    0.28    0.25
  19  17  19    0.04    0.23
 -19  19  19    0.03    0.16
  19  19  19    0.10    0.25
   0   0  20   50.83    1.60
  20   0   0   52.52    1.60
   0   0  20   52.21    1.40
   0  20   0   54.64    1.47
   0  20   0   50.04    1.53
   0  20  -2    0.01    0.10
   0  20   2   -0.12    0.08
   0  20   2   -0.07    0.11
  20   2   0    0.14    0.13
   2   0  20    0.01    0.13
   0  20  -2    0.15    0.13
  -2   0  20    0.02    0.11
   2   0  20    0.04    0.10
  -2   0  20   -0.22    0.11
  20  -2   0    0.07    0.13
  20   4   0   91.18    2.52
   4   0  20   91.22    2.25
   0  20   4   94.59    2.39
  -4   0  20   90.93    2.53
   0  20  -4   88.96    2.44
   0  20   4   91.39    2.43
  20  -4   0   88.74    2.48
   4   0  20   88.58    2.53
  -4   0  20   89.40    2.27
   0  20   6    0.02    0.13
   0  20  -6    0.13    0.10
   6   0  20    0.21    0.11
  20  -6   0   -0.14    0.11
   6   0  20   -0.08    0.10
  -6   0  20    0.09    0.09
  20   6   0    0.04    0.11
  -6   0  20   -0.05    0.10
  -8   0  20   78.22    2.33
  20  -8   0   82.09    2.31
   0 -20   8   84.16    2.24
   0  20  -8   82.84    2.28
  -8   0  20   83.79    2.15
  20   8   0   81.67    2.35
   8   0  20   82.20    2.37
   0  20   8   84.41    2.27
  20 -10   0   -0.08    0.15
  20  10   0    0.10    0.12
 -10   0  20    0.01    0.11
   0  20 -10    0.05    0.13
  10   0  20    0.03    0.12
   0  20  10   -0.15    0.12
 -10   0  20    0.04    0.11
   0 -20  10    0.12    0.13
  20  12   0   71.84    2.15
  12   0  20   72.23    2.17
 -20  12   0   75.87    2.03
  20 -12   0   71.24    2.10
   0 -20  12   73.18    2.10
   0  20 -12   75.98    2.11
 -12   0  20   71.33    2.14
 -12   0  20   72.39    1.99
 -20  12   0   73.33    2.01
   0  20  12   72.96    2.11
   0  20  14    0.07    0.15
   0 -20  14    0.21    0.16
 -20  14   0    0.22    0.15
 -14   0  20    0.18    0.14
  14   0  20    0.20    0.15
 -20  14   0    0.09    0.13
 -14   0  20    0.19    0.14
  20 -14   0    0.12    0.15
  20  14   0    0.13    0.14
   0  20 -14    0.14    0.13
   0  20  16   63.05    2.00
   0 -20  16   64.80    2.03
 -16   0  20   65.03    1.93
  20  16   0   66.84    1.99
  20  16   0   68.87    2.06
 -16   0  20   63.35    2.04
 -20  16   0   68.52    1.90
   0  20 -16   66.34    1.99
 -20  16   0   73.00    1.97
  20 -16   0   65.98    1.97
  16   0  20   69.19    2.09
  20  18   0    0.04    0.15
   0 -20  18    0.12    0.18
   0  20 -18   -0.07    0.15
 -18   0  20    0.00    0.12
 -20  18   0   -0.27    0.12
 -18   0  20    0.15    0.17
  18   0  20    0.03    0.15
   0  20  18   -0.02    0.16
  -2  20   0    0.05    0.10
   0   2  20    0.07    0.09
   0  -2  20   -0.08    0.10
   2  20   0    0.09    0.11
  20   0  -2    0.07    0.12
  20   0   2    0.03    0.11
   0   2  20    0.06    0.11
   2  20   0    0.13    0.12
  -2  20   0    0.33    0.14
  -2   2  20    1.65    0.19
   2  20  -2    0.68    0.19
  -2  20   2    1.49    0.20
  -2  20   2    1.50    0.23
   2  -2  20    1.67    0.25
   2  20  -2    1.83    0.20
  20   2  -2    1.74    0.23
  -2   2  20    1.65    0.23
  20  -2   2    1.55    0.24
  20  -2  -2    1.46    0.22
  -2  -2  20    1.91    0.18
   2   2  20    1.38    0.18
  -2  20  -2    1.27    0.21
   2  20   2    1.35    0.20
  20   2   2    1.74    0.24
   2  20   2    1.66    0.21
   2   2  20    1.43    0.22
  -2  -2  20    1.35    0.23
  -2  20   4    0.76    0.19
   4  -2  20    1.01    0.20
  20   4  -2    0.64    0.18
  -4   2  20    0.70    0.15
  -4   2  20    0.90    0.19
  -2  20   4    0.85    0.17
   2  20  -4    0.69    0.18
  20  -4   2    0.78    0.18
  -4  -2  20    0.75    0.18
  -2  20  -4    0.78    0.17
   4   2  20    0.98    0.20
   2  20   4    0.66    0.18
  -4  -2  20    0.88    0.15
   4   2  20    1.30    0.17
  20  -4  -2    0.81    0.18
  20   4   2    0.29    0.16
  -2  20   6    1.11    0.21
  20  -6   2    1.15    0.21
  20   6  -2    1.33    0.22
  -6   2  20    1.36    0.20
  -6   2  20    0.81    0.16
   2  20  -6    0.74    0.18
  -2  20   6    0.62    0.16
   6  -2  20    0.95    0.21
   6   2  20    0.91    0.16
   6   2  20    1.01    0.20
  -6  -2  20    0.62    0.14
  20   6   2    0.94    0.19
  -6  -2  20    0.90    0.19
  -2  20  -6    0.77    0.19
   2  20   6    1.37    0.22
  20  -6  -2    1.07    0.21
  -8   2  20    0.76    0.16
   8  -2  20    0.63    0.19
  20   8  -2    0.62    0.18
   2  20  -8    0.69    0.18
  20  -8   2    0.41    0.18
   2 -20   8    0.28    0.16
  -2  20   8    0.47    0.19
  -8   2  20    0.75    0.17
  20  -8  -2    0.59    0.19
  20   8   2    0.53    0.17
  -2  20  -8    0.56    0.16
  -8  -2  20    0.43    0.13
   8   2  20    0.78    0.17
   2  20   8    0.45    0.20
   8   2  20    0.90    0.19
  -8  -2  20    0.40    0.15
  -2 -20   8   -0.09    0.14
  20  10  -2    0.19    0.14
  10  -2  20    0.35    0.17
  -2  20  10    0.21    0.16
   2  20 -10   -0.14    0.12
 -10   2  20    0.39    0.15
 -20  10   2    0.03    0.11
 -10   2  20    0.18    0.12
  20 -10   2    0.34    0.17
   2 -20  10    0.10    0.14
  -2 -20  10    0.26    0.14
  10   2  20    0.05    0.12
   2  20  10   -0.12    0.14
  10   2  20    0.07    0.11
 -10  -2  20    0.37    0.14
 -10  -2  20    0.28    0.15
  20  10   2    0.28    0.16
  20 -10  -2   -0.13    0.13
  -2  20 -10    0.13    0.13
  20  12  -2    0.53    0.18
  12  -2  20    0.53    0.18
  20 -12   2    0.66    0.19
  -2  20  12    0.11    0.16
 -12   2  20    0.74    0.18
 -20  12   2    0.68    0.17
 -12   2  20    0.79    0.19
   2  20 -12    0.56    0.17
   2 -20  12    0.43    0.19
   2  20  12    0.36    0.19
  12   2  20    0.65    0.19
  20  12   2    0.77    0.19
 -20  12  -2    0.53    0.17
  20 -12  -2    0.38    0.19
 -12  -2  20    0.27    0.15
  -2 -20  12    0.22    0.18
  12   2  20    0.80    0.18
  -2  20 -12    0.86    0.20
 -12  -2  20    0.86    0.19
   2  20 -14    3.61    0.33
 -14   2  20    3.24    0.34
   2 -20  14    3.55    0.34
  14  -2  20    3.24    0.35
 -14   2  20    3.79    0.34
  -2  20  14    3.29    0.37
 -20  14   2    3.36    0.31
  20  14  -2    2.88    0.33
  20 -14   2    3.30    0.34
  20 -14  -2    2.91    0.31
 -14  -2  20    3.29    0.32
  20  14   2    3.36    0.34
  14   2  20    3.39    0.35
  20  14   2    3.56    0.34
 -14  -2  20    3.74    0.37
  14   2  20    3.98    0.33
  -2  20 -14    4.38    0.38
   2  20  14    3.13    0.36
 -20  14  -2    3.59    0.34
  -2 -20  14    3.49    0.35
  -2  20  16    0.69    0.23
 -16   2  20    0.77    0.21
  16  -2  20    1.30    0.26
   2 -20  16    0.37    0.23
 -16   2  20    0.77    0.19
  20 -16   2    1.04    0.23
 -20  16   2    1.38    0.23
  20  16  -2    0.94    0.23
   2  20 -16    0.74    0.20
  16   2  20    0.71    0.22
  -2  20 -16    0.97    0.22
  20  16   2    1.00    0.23
 -16  -2  20    0.82    0.21
 -20  16  -2    1.02    0.22
  20  16   2    0.93    0.23
 -16  -2  20    1.26    0.25
  -2 -20  16    0.26    0.23
   2  20  16    0.43    0.23
 -20  18   2    0.30    0.16
   2  20 -18    0.44    0.18
  20  18  -2    0.18    0.14
   2 -20  18    0.32    0.19
  18  -2  20    0.16    0.17
  20  18  -2    0.23    0.17
 -18   2  20    0.36    0.16
 -18   2  20    0.09    0.16
  -2  20  18   -0.01    0.16
 -20  18  -2    0.15    0.17
   2  20  18    0.09    0.18
  -2  20 -18    0.09    0.16
 -18  -2  20    0.27    0.17
  18   2  20    0.53    0.21
 -18  -2  20   -0.01    0.16
  20  18   2    0.19    0.17
  -2 -20  18    0.19    0.20
  -4  20   0   92.80    2.45
  -4  20   0   90.80    2.28
   0  -4  20   88.94    2.55
   0   4  20   92.44    2.32
   4  20   0   89.09    2.31
  20   0  -4   89.08    2.50
   4  20   0   86.41    2.41
   0   4  20   92.96    2.50
  20   0   4   91.80    2.52
   4  20  -2    0.55    0.16
   2  -4  20    0.71    0.20
  -4  20   2    0.67    0.17
  20  -2   4    0.85    0.19
  -2   4  20    0.47    0.15
  -4  20   2    0.82    0.17
  20   2  -4    0.48    0.16
   4  20  -2    0.78    0.15
  -2   4  20    0.52    0.17
  20  -2  -4    0.85    0.19
   2   4  20    0.75    0.16
   2   4  20    0.65    0.18
  -2  -4  20    0.35    0.19
  20   2   4    0.89    0.19
  -4  20  -2    0.66    0.17
   4  20   2    0.78    0.17
   4  -4  20   59.41    1.86
  20   4  -4   59.50    1.84
  -4  20   4   62.89    1.77
  -4  20   4   62.42    1.71
  20  -4   4   58.46    1.82
  -4   4  20   59.33    1.78
   4  20  -4   61.05    1.76
  -4   4  20   61.99    1.68
  -4  -4  20   60.31    1.87
   4   4  20   60.84    1.67
  20  -4  -4   61.72    1.80
  20   4   4   64.16    1.85
   4   4  20   61.38    1.81
   4  20   4   61.33    1.72
  -4  20  -4   59.84    1.77
  -6   4  20    1.35    0.21
  20  -6   4    1.18    0.22
  20   6  -4    1.31    0.22
   4  20  -6    0.61    0.18
  -6   4  20    0.78    0.18
 -20   6   4    0.93    0.18
  -4  20   6    0.87    0.19
  -4  20   6    1.05    0.19
   6  -4  20    1.15    0.22
  -6  -4  20    1.00    0.21
  -4  20  -6    1.28    0.20
  20   6   4    0.59    0.18
  20  -6  -4    1.16    0.20
   4  20   6    0.92    0.19
   6   4  20    0.79    0.19
   6   4  20    0.95    0.18
   8  -4  20  127.25    3.42
  -4  20   8  130.14    3.24
   4 -20   8  126.78    3.27
  -8   4  20  124.16    3.14
  -8   4  20  119.30    3.30
 -20   8   4  122.38    3.18
  20  -8   4  121.20    3.35
   4  20  -8  129.19    3.27
  20   8  -4  125.24    3.40
  -4  20   8  128.48    3.24
  -4 -20   8  131.52    3.27
  20   8   4  131.38    3.39
  -4  20  -8  127.19    3.30
   8   4  20  124.36    3.36
  20  -8  -4  121.14    3.30
  -8  -4  20  129.01    3.08
   8   4  20  125.99    3.14
  -8  -4  20  129.56    3.44
   4  20   8  124.45    3.21
   4 -20  10    0.85    0.18
 -10   4  20    0.79    0.19
 -20  10   4    0.71    0.18
  20 -10   4    0.58    0.18
  -4  20  10    0.33    0.17
  -4  20  10    0.47    0.15
  10  -4  20    0.73    0.21
  20  10  -4    0.52    0.18
   4  20 -10    0.91    0.20
 -10   4  20    0.55    0.16
  20 -10  -4    0.65    0.18
 -10  -4  20    0.32    0.17
   4  20  10    0.52    0.19
  20  10   4    0.68    0.19
  -4 -20  10    0.53    0.16
  10   4  20    0.71    0.17
  -4  20 -10    1.20    0.21
 -10  -4  20    0.45    0.14
  10   4  20    0.66    0.18
 -20  12   4   46.39    1.44
   4 -20  12   46.95    1.49
 -12   4  20   45.76    1.47
  -4  20  12   52.17    1.56
 -12   4  20   44.09    1.41
  20 -12   4   43.94    1.48
   4  20 -12   46.53    1.46
  12  -4  20   45.03    1.54
  20  12  -4   46.90    1.55
  12   4  20   45.74    1.41
  20 -12  -4   47.52    1.46
  12   4  20   47.01    1.52
  -4  20 -12   44.06    1.48
   4  20  12   47.56    1.51
 -12  -4  20   46.12    1.39
  20  12   4   47.50    1.52
 -12  -4  20   47.25    1.57
  -4 -20  12   48.60    1.49
  14  -4  20    0.39    0.17
   4  20 -14    0.29    0.16
 -14   4  20    0.14    0.13
  -4  20  14    0.33    0.19
 -20  14   4    0.36    0.16
  20  14  -4    0.17    0.14
   4 -20  14    0.23    0.17
 -14   4  20    0.43    0.17
  20 -14   4    0.66    0.21
  20  14   4    0.22    0.16
 -20  14  -4    0.08    0.14
  20 -14  -4    0.20    0.19
  -4 -20  14    0.33    0.18
  -4  20 -14    0.43    0.17
  20  14   4    0.26    0.16
  14   4  20    0.28    0.18
 -14  -4  20    0.33    0.16
  14   4  20    0.31    0.16
 -14  -4  20   -0.07    0.12
   4  20  14    0.25    0.17
  20 -16   4   76.11    2.20
 -20  16   4   76.16    2.13
  16  -4  20   75.70    2.30
   4  20 -16   75.80    2.17
 -16   4  20   72.46    2.20
   4 -20  16   74.63    2.24
  20  16  -4   73.04    2.26
  -4  20  16   76.91    2.24
 -16   4  20   70.07    2.11
  -4  20 -16   75.56    2.22
 -16  -4  20   75.53    2.12
  16   4  20   75.38    2.26
 -20  16  -4   79.11    2.20
   4  20  16   74.02    2.21
  20  16   4   77.67    2.23
 -16  -4  20   74.51    2.31
  16   4  20   76.58    2.13
  -4 -20  16   77.30    2.27
 -18   4  20    0.35    0.19
  18  -4  20    0.35    0.18
   4 -20  18    0.36    0.20
  20  18  -4   -0.14    0.13
 -18   4  20    0.56    0.19
 -20  18   4    0.43    0.16
  -4  20  18    0.39    0.20
   4  20 -18    0.21    0.16
 -18  -4  20    0.05    0.15
  18   4  20    0.19    0.18
  18   4  20    0.42    0.20
  20  18   4    0.15    0.17
 -20  18  -4    0.18    0.17
 -18  -4  20    0.25    0.17
  -4 -20  18   -0.12    0.14
   4  20  18    0.07    0.18
  -4  20 -18    0.04    0.17
  -6  20   0   -0.02    0.10
   0   6  20    0.00    0.10
   0  -6  20   -0.02    0.12
  20   0   6   -0.01    0.11
   6  20   0    0.03    0.11
  -6  20   0    0.14    0.12
   0   6  20    0.10    0.12
  20   0  -6    0.06    0.13
  -6  20   2    0.83    0.17
  20   2  -6    0.90    0.19
  20  -2   6    0.99    0.21
  -6  20   2    0.92    0.18
   2  -6  20    0.98    0.21
  -2   6  20    0.71    0.16
  -2   6  20    0.70    0.17
   6  20  -2    1.27    0.18
   6  20  -2    0.64    0.16
   2   6  20    1.04    0.19
  -6  20  -2    1.08    0.20
   6  20   2    0.68    0.17
  20  -2  -6    0.86    0.20
   2   6  20    0.87    0.18
  -2  -6  20    1.03    0.22
  20   2   6    0.74    0.20
  20   4  -6    0.90    0.19
 -20   4   6    0.94    0.18
  -6  20   4    0.84    0.18
  20  -4   6    0.82    0.21
  -4   6  20    0.92    0.17
  -6  20   4    1.04    0.19
  -4   6  20    0.93    0.18
   6  20  -4    1.00    0.20
   4  -6  20    1.13    0.22
   4   6  20    0.89    0.18
   4   6  20    0.58    0.16
  -6  20  -4    0.62    0.16
   6  20   4    1.17    0.21
  20  -4  -6    1.14    0.21
  20   4   6    1.00    0.21
  -4  -6  20    1.01    0.21
   6  20  -6   -0.09    0.13
  -6   6  20    0.43    0.14
  -6  20   6    0.01    0.15
 -20   6   6    0.26    0.14
   6  -6  20    0.59    0.18
  20  -6   6    0.24    0.16
  -6   6  20    0.11    0.12
  20   6  -6    0.08    0.12
  -6  20   6    0.23    0.14
   6   6  20    0.38    0.15
  -6  -6  20    0.51    0.18
  -6  20  -6    0.18    0.14
   6   6  20    0.17    0.15
  20   6   6    0.23    0.16
   6  20   6   -0.06    0.12
  20  -6  -6    0.43    0.16
  -8   6  20    0.27    0.13
  -6  20   8    0.23    0.16
  -6  20   8   -0.05    0.12
   6 -20   8    0.05    0.14
  20  -8   6    0.31    0.17
   8  -6  20    0.07    0.13
  20   8  -6    0.26    0.15
   6  20  -8    0.03    0.12
  -8   6  20    0.27    0.14
 -20   8   6    0.14    0.11
  20   8   6   -0.13    0.12
  20  -8  -6    0.15    0.15
  -6  20  -8    0.19    0.14
   8   6  20    0.27    0.15
   6  20   8    0.17    0.16
  -8  -6  20    0.07    0.13
  -6 -20   8    0.06    0.13
   8   6  20    0.06    0.13
  20 -10   6    0.97    0.22
  -6  20  10    0.64    0.19
  -6  20  10    0.96    0.19
 -10   6  20    0.93    0.20
   6  20 -10    0.46    0.17
   6 -20  10    1.25    0.22
 -10   6  20    0.78    0.17
 -20  10   6    1.23    0.21
  10  -6  20    0.94    0.21
  20  10  -6    0.51    0.18
 -10  -6  20    0.92    0.21
   6  20  10    0.82    0.20
  10   6  20    0.89    0.20
  20  10   6    0.75    0.20
  10   6  20    1.30    0.23
  -6  20 -10    0.68    0.20
  20  10   6    1.00    0.22
  20 -10  -6    1.18    0.21
  -6 -20  10    1.26    0.21
 -20  12   6   -0.04    0.12
  20  12  -6    0.14    0.14
  12  -6  20    0.34    0.17
   6 -20  12    0.00    0.16
  -6  20  12    0.20    0.15
   6  20 -12    0.12    0.14
  20 -12   6    0.25    0.17
 -12   6  20   -0.05    0.12
  -6  20  12   -0.07    0.13
 -12   6  20    0.13    0.12
  20  12   6    0.44    0.19
  20  12   6    0.27    0.17
  -6 -20  12   -0.13    0.14
 -12  -6  20    0.09    0.12
   6  20  12    0.00    0.14
  -6  20 -12    0.23    0.15
  12   6  20   -0.10    0.13
  20 -12  -6    0.04    0.16
  12   6  20    0.06    0.13
  -6  20  14   -0.10    0.14
  20 -14   6    0.11    0.18
  -6  20  14    0.31    0.17
 -14   6  20    0.40    0.16
 -14   6  20    0.21    0.15
   6 -20  14    0.26    0.17
 -20  14   6    0.45    0.16
  14  -6  20    0.29    0.18
  20  14  -6    0.26    0.16
   6  20 -14    0.24    0.15
  20  14   6    0.25    0.17
  -6 -20  14    0.26    0.18
 -20  14  -6    0.33    0.18
  14   6  20    0.20    0.17
 -14  -6  20    0.16    0.14
  20  14   6    0.17    0.16
   6  20  14    0.22    0.18
 -14  -6  20    0.18    0.17
  14   6  20    0.29    0.16
  -6  20 -14    0.38    0.18
 -16   6  20    0.14    0.13
 -20  16   6    0.07    0.13
   6  20 -16    0.24    0.16
   6 -20  16   -0.11    0.19
  20  16  -6    0.39    0.18
 -16   6  20    0.33    0.18
  -6  20  16    0.08    0.19
  16  -6  20    0.53    0.20
  20 -16   6    0.49    0.20
  20  16   6    0.09    0.14
  -6  20 -16    0.35    0.17
  -6 -20  16   -0.29    0.17
  16   6  20    0.29    0.16
 -16  -6  20   -0.01    0.11
   6  20  16    0.34    0.23
 -20  16  -6    0.35    0.17
  16   6  20    0.23    0.18
  -6  20  18    0.34    0.21
 -20  18   6    0.43    0.17
  20  18  -6    0.30    0.18
   6 -20  18    0.10    0.16
  20 -18   6    0.42    0.20
 -18   6  20    0.14    0.15
 -18   6  20    0.83    0.23
  18  -6  20    0.31    0.18
  -6 -20  18    0.07    0.19
  -6  20 -18    0.19    0.16
  18   6  20    0.24    0.18
  18   6  20    0.37    0.20
   6  20  18    0.28    0.20
 -18  -6  20    0.56    0.21
  20  18   6    0.55    0.22
 -20  18  -6    0.23    0.19
  -8  20   0   80.30    2.23
   8  20   0   78.87    2.13
  20   0  -8   78.51    2.29
   0   8  20   81.35    2.21
  20   0   8   78.81    2.32
   0  -8  20   85.13    2.39
   0   8  20   83.60    2.19
  -2   8  20    0.35    0.16
  20  -2   8    0.63    0.18
  -2   8  20    0.16    0.14
   2  -8  20    0.27    0.18
   8  20  -2    0.57    0.17
  -8  20   2    0.73    0.15
  -8  20   2    0.59    0.17
  20   2  -8    0.87    0.20
   8  20  -2    0.67    0.16
  20  -2  -8    0.50    0.17
  -2  -8  20    0.00    0.18
  20   2   8    0.69    0.19
   2   8  20    0.58    0.19
   2   8  20    0.31    0.15
  -8  20  -2    0.78    0.18
   8  20   2    0.76    0.17
  -8  20   4  123.62    3.12
  20  -4   8  125.22    3.36
  -8  20   4  125.01    3.22
 -20   4   8  126.01    3.19
   8  20  -4  123.01    3.06
  20   4  -8  118.00    3.33
   4  -8  20  127.68    3.42
   8  20  -4  125.43    3.21
  -4   8  20  123.47    3.15
   4   8  20  127.90    3.18
  20  -4  -8  125.87    3.31
  -8  20  -4  127.23    3.27
   4   8  20  131.14    3.27
   8  20   4  126.37    3.17
  -4  -8  20  121.82    3.40
  20   4   8  119.36    3.34
  -8  20   6    0.18    0.13
  -8  20   6   -0.01    0.13
   6  -8  20   -0.08    0.13
  -6   8  20    0.01    0.16
  20   6  -8    0.08    0.12
 -20   6   8    0.28    0.12
   8  20  -6    0.06    0.12
  20  -6   8    0.57    0.19
  -6  -8  20    0.14    0.17
   6   8  20    0.14    0.14
  -8  20  -6    0.32    0.15
   8  20   6    0.20    0.14
   6   8  20   -0.16    0.13
  20   6   8    0.31    0.17
  20  -6  -8    0.32    0.16
   8  -8  20  125.58    3.50
  20  -8   8  129.68    3.48
  -8   8  20  127.32    3.28
   8  20  -8  131.90    3.34
  -8  20   8  126.38    3.29
  20   8  -8  127.83    3.50
 -20   8   8  134.77    3.32
  -8  20   8  135.88    3.34
   8 -20   8  128.74    3.37
   8  20   8  127.87    3.31
  -8 -20   8  132.08    3.36
  -8  -8  20  126.40    3.53
   8   8  20  127.28    3.27
  20  -8  -8  127.84    3.40
  20   8   8  130.95    3.35
   8   8  20  135.95    3.43
  -8  20  -8  129.35    3.39
  20   8   8  123.41    3.46
  20  10  -8    0.15    0.15
  -8  20  10    0.33    0.15
   8 -20  10    0.28    0.17
  20 -10   8    0.21    0.16
  -8  20  10   -0.05    0.12
 -20  10   8    0.32    0.15
   8  20 -10    0.31    0.16
  10  -8  20   -0.09    0.14
 -10   8  20    0.19    0.16
  20 -10  -8    0.30    0.15
 -10  -8  20    0.20    0.14
  -8 -20  10    0.21    0.14
  20  10   8    0.25    0.18
  -8  20 -10   -0.05    0.11
  10   8  20    0.05    0.13
  10   8  20    0.13    0.13
  20  10   8    0.05    0.15
   8  20  10   -0.04    0.12
  -8  20  12   80.51    2.39
  20 -12   8   88.09    2.49
   8 -20  12   83.57    2.43
  -8  20  12   90.24    2.37
 -20  12   8   88.54    2.38
  12  -8  20   84.81    2.52
  20  12  -8   86.39    2.52
 -12   8  20   87.62    2.38
   8  20 -12   89.57    2.39
  12   8  20   87.05    2.37
  -8  20 -12   85.22    2.44
   8  20  12   85.99    2.41
  -8 -20  12   89.27    2.45
  20  12   8   83.18    2.42
  20 -12  -8   88.10    2.39
  12   8  20   86.61    2.45
 -12  -8  20   87.63    2.57
  20  12   8   80.41    2.44
  20 -14   8    0.35    0.19
  -8  20  14    0.07    0.15
   8  20 -14    0.25    0.16
   8 -20  14    0.21    0.16
 -20  14   8    0.30    0.16
  14  -8  20   -0.18    0.14
  20  14  -8    0.40    0.18
 -14   8  20    0.48    0.19
  -8 -20  14    0.17    0.17
   8  20  14    0.41    0.18
  -8  20 -14    0.05    0.15
  14   8  20    0.18    0.16
  20  14   8    0.21    0.16
  14   8  20    0.24    0.17
 -14  -8  20   -0.09    0.10
   8 -20  16   68.11    2.11
  16  -8  20   70.32    2.18
  20 -16   8   67.18    2.07
 -16   8  20   69.92    2.05
  -8  20  16   66.96    2.10
  20  16  -8   69.93    2.15
 -20  16   8   68.31    2.02
 -20  16  -8   70.19    2.09
  16   8  20   68.74    2.05
  -8 -20  16   72.14    2.14
  20  16   8   68.99    2.10
  16   8  20   71.91    2.12
  -8  20 -16   71.02    2.13
   8  20  16   69.87    2.09
 -16  -8  20   65.83    2.17
   8 -20  18    0.02    0.18
  20  18  -8    0.13    0.17
  18  -8  20   -0.03    0.14
 -20  18   8    0.06    0.13
  -8  20  18    0.23    0.17
 -18   8  20    0.11    0.16
  20 -18   8   -0.10    0.16
  20  18   8   -0.02    0.15
 -20  18  -8    0.06    0.17
  -8  20 -18    0.16    0.17
  -8 -20  18   -0.02    0.17
  18   8  20    0.13    0.18
 -18  -8  20    0.04    0.16
  18   8  20    0.02    0.16
   8  20  18   -0.03    0.16
  20   0  10   -0.12    0.12
  20   0 -10    0.35    0.16
   0  10  20   -0.06    0.13
  10  20   0    0.14    0.12
 -10  20   0    0.19    0.13
   0 -10  20    0.09    0.14
  10  20  -2    0.03    0.12
 -20   2  10    0.15    0.13
   2  10 -20    0.17    0.14
 -10  20   2   -0.05    0.11
  -2  10  20    0.17    0.16
   2 -10  20    0.05    0.14
 -10  20   2    0.23    0.12
  20   2 -10    0.42    0.18
  20  -2  10    0.63    0.19
   2  10  20    0.18    0.14
  10  20   2   -0.06    0.12
 -10  20  -2    0.15    0.14
  20  -2 -10    0.18    0.15
  -2 -10  20    0.19    0.17
  20   2  10    0.25    0.14
 -20   4  10    0.76    0.19
 -10  20   4    0.39    0.16
  20  -4  10    0.30    0.18
  -4  10  20    0.73    0.19
  20   4 -10    0.62    0.19
  10  20  -4    0.77    0.18
  10  20  -4    0.69    0.16
   4 -10  20    1.00    0.23
 -10  20   4    0.53    0.17
  20   4  10    0.59    0.20
  10  20   4    0.56    0.17
 -10  20  -4    0.47    0.17
  20  -4 -10    0.65    0.18
   4  10  20    0.72    0.21
  -4 -10  20    0.87    0.22
   6 -10  20    1.00    0.23
  -6  10  20    0.83    0.22
  20   6 -10    0.96    0.21
 -20   6  10    0.88    0.20
 -10  20   6    0.64    0.18
 -10  20   6    1.33    0.22
  20  -6  10    1.22    0.25
  10  20  -6    0.95    0.20
 -10  20  -6    0.95    0.22
   6  10  20    1.13    0.21
  10  20   6    1.25    0.23
  20   6  10    1.14    0.22
  -6 -10  20    0.83    0.22
  20  -6 -10    0.92    0.20
  20   6  10    0.95    0.22
   8 -10  20   -0.12    0.12
 -20   8  10    0.15    0.13
 -10  20   8    0.04    0.13
  -8  10  20    0.15    0.16
  10  20  -8    0.28    0.16
 -10  20   8   -0.08    0.13
  10 -20   8    0.22    0.16
  20   8 -10    0.27    0.14
  20  -8  10    0.29    0.18
  10  20   8    0.17    0.16
  -8 -10  20    0.07    0.14
  20  -8 -10    0.01    0.14
 -10  20  -8    0.25    0.17
  20   8  10    0.14    0.14
 -10 -20   8    0.08    0.14
  20   8  10    0.07    0.16
   8  10  20    0.25    0.16
  10  20 -10    1.55    0.24
 -10  20  10    1.43    0.23
  10 -20  10    1.67    0.25
 -10  20  10    0.87    0.20
  20 -10  10    1.35    0.26
  20  10 -10    1.73    0.27
 -10  10  20    1.25    0.23
 -20  10  10    1.74    0.25
  10 -10  20    1.78    0.29
  20  10  10    1.67    0.27
 -10 -10  20    1.43    0.27
 -20 -10  10    1.73    0.27
  20  10  10    1.77    0.28
  10  10  20    1.77    0.27
 -10 -20  10    1.28    0.22
  20 -10 -10    1.85    0.25
  10  20  10    2.09    0.29
 -10  20 -10    1.53    0.25
 -10  20  12    0.45    0.17
  10 -20  12    0.65    0.22
  12 -10  20    0.59    0.21
  20 -12  10    0.55    0.21
  20  12 -10    0.51    0.19
 -12  10  20    0.66    0.21
  10  20 -12    0.56    0.17
 -20  12  10    0.35    0.16
  10  20  12    0.43    0.20
  12  10  20    0.78    0.23
 -20 -12  10    0.85    0.22
 -10  20 -12    0.73    0.21
 -10 -20  12    0.39    0.18
  20  12  10    0.47    0.20
  20  12  10    0.39    0.19
 -12 -10  20    0.16    0.17
  20  14 -10    2.20    0.31
 -20  14  10    2.14    0.29
  20 -14  10    2.25    0.31
  14 -10  20    1.87    0.30
 -10  20  14    2.68    0.33
  10 -20  14    2.93    0.34
 -14  10  20    1.64    0.26
  10  20  14    2.72    0.33
 -14 -10  20    2.28    0.32
  14  10  20    2.12    0.31
 -20 -14  10    2.13    0.31
 -10 -20  14    2.17    0.30
 -10  20 -14    2.57    0.33
  20  14  10    2.77    0.34
  10 -20  16    0.09    0.19
 -20  16  10    0.18    0.17
  16 -10  20    0.43    0.23
 -16  10  20    0.31    0.19
  20 -16  10    0.28    0.20
  20  16 -10    0.51    0.20
 -10  20  16    0.48    0.23
  20  16  10    0.59    0.22
 -16 -10  20    0.78    0.24
 -10 -20  16    0.43    0.22
  10  20  16    0.48    0.22
 -20 -16  10    0.65    0.22
 -10  20 -16    0.20    0.17
  16  10  20    0.30    0.21
  10 -20  18    0.02    0.19
 -18  10  20   -0.03    0.14
  18 -10  20    0.15    0.21
  20  18 -10   -0.09    0.14
  20 -18  10    0.01    0.19
 -20  18  10    0.06    0.14
 -10  20  18    0.01    0.13
 -10  20 -18    0.21    0.18
  10  20  18   -0.03    0.19
 -18 -10  20   -0.15    0.16
 -20 -18  10   -0.15    0.14
 -20  18 -10    0.21    0.19
 -10 -20  18   -0.24    0.17
  18  10  20    0.10    0.18
  20  18  10    0.03    0.17
 -20   0  12   73.66    2.08
   0  12 -20   72.54    2.05
   0  12  20   73.38    2.08
   0 -12  20   71.74    2.20
 -12  20   0   68.51    2.04
  12  20   0   74.57    2.02
  20   0 -12   72.05    2.14
  20   0  12   74.84    2.19
 -12  20   2    0.80    0.17
   2 -12  20    0.16    0.21
  12  20  -2    0.82    0.19
  20  -2  12    0.69    0.20
  -2  12  20    0.31    0.18
 -20   2  12    0.88    0.20
  20   2 -12    0.58    0.18
   2  12 -20    0.52    0.17
 -12  20   2    0.48    0.17
  -2  12 -20    0.56    0.18
  20   2  12    0.77    0.20
  20   2  12    1.04    0.22
  -2 -12  20    0.40    0.22
   2  12  20    0.75    0.22
  12  20   2    0.67    0.18
  20  -2 -12    0.63    0.19
 -12  20  -2    0.66    0.19
  20   4 -12   46.22    1.54
 -20   4  12   46.84    1.47
  -4  12  20   46.70    1.48
 -12  20   4   47.96    1.41
  12  20  -4   45.98    1.43
  12  20  -4   47.55    1.38
  20  -4  12   47.48    1.55
 -12  20   4   44.24    1.42
   4 -12  20   42.50    1.53
  20   4  12   46.61    1.54
   4  12  20   44.97    1.47
  -4 -12  20   45.34    1.58
  20  -4 -12   47.70    1.50
 -12  20  -4   45.00    1.47
  12  20   4   44.03    1.43
  -4  12 -20   46.85    1.48
  20   4  12   45.06    1.44
 -20  -4  12   47.90    1.55
 -20   6  12    0.37    0.16
 -12  20   6   -0.11    0.12
  -6  12  20   -0.16    0.12
 -12  20   6    0.18    0.13
  20  -6  12   -0.01    0.16
  12  20  -6    0.04    0.12
   6 -12  20   -0.28    0.15
 -12  20  -6    0.02    0.14
  20   6  12   -0.04    0.14
  20   6  12    0.12    0.15
  20  -6 -12    0.42    0.18
   6  12  20   -0.07    0.17
  -6 -12  20    0.02    0.18
  12  20   6    0.23    0.15
 -20  -6  12    0.03    0.12
  -8  12  20   90.48    2.43
  20  -8  12   82.58    2.49
 -12  20   8   85.27    2.36
   8 -12  20   83.97    2.53
  12  20  -8   87.75    2.38
 -20   8  12   86.50    2.40
  12 -20   8   88.09    2.41
 -12  20   8   84.27    2.35
  20   8  12   82.34    2.48
  20   8  12   90.03    2.44
 -12 -20   8   89.53    2.43
   8  12  20   88.67    2.42
  12  20   8   84.90    2.40
  -8 -12  20   89.39    2.59
 -20  -8  12   84.87    2.53
 -12  20  -8   85.78    2.45
  20  -8 -12   88.65    2.45
  10 -12  20    0.29    0.18
  12 -20  10    0.69    0.20
  20 -10  12    0.91    0.23
 -10  12  20    0.41    0.19
 -12  20  10    0.63    0.19
 -20  10  12    0.40    0.16
  12  20 -10    0.72    0.19
  20  10  12    0.25    0.18
 -12  20 -10    0.52    0.19
  12  20  10    0.53    0.19
  20 -10 -12    0.42    0.17
  20  10  12    0.74    0.20
 -20 -10  12    0.61    0.20
 -12 -20  10    0.66    0.20
 -10 -12  20    0.53    0.21
  10  12  20    0.44    0.19
 -12  12  20   32.34    1.21
 -20  12  12   32.11    1.18
  20 -12  12   33.03    1.24
  12 -12  20   32.39    1.26
 -12  20  12   32.81    1.20
  12 -20  12   32.97    1.20
  12  12  20   33.28    1.21
  12  20  12   33.95    1.23
  20  12  12   33.38    1.25
 -12 -12  20   33.64    1.30
 -12  20 -12   31.56    1.22
 -20 -12  12   33.24    1.26
 -12 -20  12   34.89    1.21
 -12  20  14    0.69    0.22
 -14  12  20    0.38    0.19
  12 -20  14    0.40    0.20
  20 -14  12    0.76    0.24
  14 -12  20    0.43    0.22
 -20  14  12    0.70    0.20
 -20 -14  12    0.56    0.23
 -12 -20  14    0.74    0.22
  20  14  12    0.31    0.19
 -14 -12  20    0.79    0.23
 -12  20 -14    0.76    0.21
  12  20  14    0.58    0.21
  14  12  20    0.29    0.19
  12 -20  16   53.58    1.82
 -20  16  12   56.94    1.79
 -16  12  20   58.99    1.83
  20 -16  12   58.47    1.85
 -12  20  16   55.43    1.83
  16 -12  20   55.45    1.88
 -16 -12  20   55.13    1.90
 -12 -20  16   57.41    1.84
 -20 -16  12   54.28    1.85
  16  12  20   55.67    1.80
 -12  20 -16   58.37    1.87
  12  20  16   57.47    1.83
  20  16  12   56.29    1.85
  12 -20  18    0.13    0.20
 -18  12  20    0.15    0.20
 -20  18  12    0.04    0.15
 -12  20  18    0.12    0.16
  20 -18  12    0.05    0.18
  18 -12  20   -0.03    0.17
 -12  20 -18    0.06    0.17
 -18 -12  20    0.07    0.18
 -20 -18  12   -0.04    0.17
 -12 -20  18    0.02    0.19
 -20  18 -12    0.29    0.21
  18  12  20    0.10    0.20
  12  20  18    0.08    0.20
  20  18  12   -0.04    0.17
   0  14  20    0.16    0.16
  20   0  14   -0.07    0.13
  14  20   0    0.01    0.13
   0  14 -20    0.10    0.14
  20   0  14    0.14    0.15
 -20   0  14    0.37    0.16
 -14  20   0    0.16    0.15
   0 -14  20   -0.13    0.14
  20   0 -14    0.16    0.16
 -20   2  14    2.75    0.31
  20  -2  14    3.92    0.32
  20  -2  14    2.95    0.34
   2 -14  20    2.95    0.36
 -14  20   2    3.38    0.33
 -14  20   2    4.34    0.33
   2  14 -20    3.67    0.34
  -2  14  20    3.47    0.37
  14  20  -2    3.38    0.32
  20   2  14    3.20    0.32
  14  20   2    3.77    0.34
  20   2  14    3.67    0.37
  -2 -14  20    3.24    0.37
  -2  14 -20    3.66    0.35
  20  -2 -14    3.41    0.34
 -20  -2  14    4.00    0.37
 -14  20  -2    3.02    0.32
   2  14  20    2.97    0.34
  14  20  -4    0.35    0.15
 -20   4  14    0.22    0.17
 -14  20   4    0.17    0.15
 -14  20   4    0.26    0.14
  -4  14  20    0.34    0.19
   4 -14  20    0.20    0.18
  20  -4  14    0.46    0.19
  20   4  14    0.41    0.18
   4  14  20    0.36    0.19
 -20  -4  14    0.26    0.15
  -4 -14  20    0.23    0.17
  20  -4 -14    0.16    0.16
  20   4  14    0.26    0.17
 -14  20  -4    0.52    0.19
  -4  14 -20    0.13    0.15
  14  20   4    0.24    0.15
  14  20  -6    0.44    0.16
  20  -6  14    0.20    0.16
   6 -14  20    0.26    0.18
  14  20  -6    0.18    0.15
 -14  20   6    0.25    0.16
  -6  14  20    0.05    0.16
 -14  20   6    0.23    0.17
 -20   6  14    0.16    0.16
   6  14  20    0.17    0.18
  20   6  14    0.36    0.19
  -6  14 -20    0.09    0.15
  14  20   6    0.58    0.20
  -6 -14  20    0.41    0.19
  20  -6 -14    0.49    0.18
 -20  -6  14    0.52    0.18
  20   6  14    0.44    0.17
 -14  20  -6    0.13    0.17
   8 -14  20    0.19    0.18
  -8  14  20   -0.03    0.16
 -20   8  14    0.27    0.16
  20  -8  14    0.29    0.21
  14  20  -8    0.28    0.16
 -14  20   8   -0.01    0.13
  14 -20   8    0.15    0.16
   8  14  20    0.07    0.18
  20   8  14    0.22    0.17
  14  20   8   -0.01    0.15
 -14 -20   8    0.26    0.15
  -8 -14  20    0.33    0.20
  20   8  14    0.10    0.16
  -8  14 -20   -0.13    0.13
 -14  20  -8    0.10    0.15
 -20  -8  14    0.21    0.17
  20  -8 -14    0.12    0.15
 -20  10  14    2.71    0.32
  14 -20  10    3.01    0.32
  20 -10  14    2.30    0.33
 -14  20  10    2.94    0.34
 -10  14  20    2.48    0.33
  10 -14  20    2.29    0.33
  20  10  14    2.45    0.31
  10  14  20    2.27    0.31
 -10 -14  20    2.63    0.34
 -14 -20  10    2.08    0.29
  14  20  10    2.66    0.33
  20  10  14    1.84    0.31
 -14  20 -10    2.21    0.31
 -20 -10  14    2.40    0.33
  12 -14  20    0.64    0.23
 -20  12  14    0.24    0.15
 -14  20  12    0.51    0.19
 -12  14  20    0.24    0.18
  20 -12  14    0.68    0.24
  14 -20  12    0.36    0.20
  14  20  12    0.45    0.20
 -14  20 -12    0.38    0.19
 -14 -20  12    0.49    0.20
 -12 -14  20    0.12    0.17
  20  12  14    0.39    0.22
 -20 -12  14    0.58    0.22
  12  14  20    0.40    0.21
 -20  14  14    0.06    0.15
  14 -20  14    0.31    0.21
 -14  20  14    0.19    0.20
 -14  14  20    0.06    0.16
  20 -14  14    0.37    0.22
  14 -14  20    0.32    0.22
 -14 -14  20    0.38    0.22
 -14  20 -14    0.31    0.20
  20  14  14    0.42    0.22
 -20 -14  14    0.70    0.23
 -14 -20  14    0.05    0.18
  14  20  14    0.76    0.24
  14  14  20    0.25    0.20
  20 -16  14    0.17    0.20
 -16  14  20    0.43    0.22
 -20  16  14    0.19    0.16
 -14  20  16    0.20    0.19
  14 -20  16    0.18    0.23
  16 -14  20    0.29    0.23
  16  14  20    0.06    0.18
 -16 -14  20    0.44    0.22
 -14 -20  16    0.23    0.20
  14  20  16    0.52    0.23
 -14  20 -16    0.58    0.22
 -20 -16  14    0.93    0.27
  20  16  14    0.55    0.26
  20 -18  14    2.61    0.38
 -18  14  20    2.28    0.35
  18 -14  20    2.30    0.36
 -14  20  18    2.55    0.37
 -20  18  14    2.37    0.34
  14 -20  18    2.26    0.37
 -20 -18  14    2.97    0.39
 -18 -14  20    2.14    0.36
 -14  20 -18    2.07    0.34
  20  18  14    2.06    0.37
  14  20  18    2.38    0.38
  18  14  20    2.64    0.39
 -14 -20  18    1.94    0.35
 -20   0  16   68.00    2.08
  20   0  16   67.32    1.92
 -20   0  16   66.27    1.97
   0  16 -20   64.74    1.96
   0  16  20   67.16    2.03
 -16  20   0   70.47    1.99
  20   0  16   66.11    2.08
   0 -16  20   66.61    2.10
  16  20   0   69.00    1.97
  -2  16  20    0.94    0.26
   2 -16  20    0.20    0.24
  20  -2  16    0.96    0.23
 -20   2  16    0.95    0.23
   2  16 -20    0.91    0.20
  16  20  -2    0.99    0.22
 -16  20   2    1.11    0.23
   2  16  20    0.62    0.26
 -16  20  -2    1.00    0.22
  16  20   2    0.76    0.22
  20   2  16    1.11    0.25
  -2 -16  20    0.32    0.24
 -20  -2  16    0.84    0.22
  20  -2 -16    1.23    0.24
 -20  -2  16    0.55    0.19
  -2  16 -20    0.76    0.20
  20   2  16    0.92    0.22
 -16  20   4   77.18    2.10
   4 -16  20   72.44    2.26
 -20   4  16   75.84    2.17
  20  -4  16   74.61    2.29
  16  20  -4   75.84    2.11
  -4  16  20   73.57    2.20
 -16  20   4   77.56    2.15
  16  20   4   74.35    2.17
 -16  20  -4   72.20    2.17
  -4 -16  20   77.18    2.33
  20  -4 -16   72.56    2.21
  20   4  16   74.24    2.26
 -20  -4  16   74.39    2.28
   4  16  20   76.46    2.22
  -4  16 -20   77.19    2.21
  20   4  16   74.74    2.14
  -6  16  20   -0.13    0.17
  16  20  -6    0.43    0.17
 -16  20   6    0.04    0.13
  16  20  -6    0.56    0.18
  20  -6  16    0.03    0.16
 -20   6  16    0.11    0.16
   6 -16  20   -0.34    0.17
  16  20   6    0.35    0.18
 -20  -6  16    0.32    0.15
  20  -6 -16    0.18    0.17
 -16  20  -6    0.06    0.14
   6  16  20    0.06    0.19
  -6  16 -20    0.55    0.21
  20   6  16    0.35    0.18
  -6 -16  20    0.07    0.20
  20   6  16    0.13    0.16
   8 -16  20   66.68    2.13
 -16  20   8   70.47    2.02
  20  -8  16   72.56    2.19
 -20   8  16   65.70    2.03
  -8  16  20   70.27    2.11
 -20  -8  16   66.68    2.15
  20  -8 -16   68.24    2.06
  20   8  16   67.27    2.05
 -16  20  -8   66.96    2.07
   8  16  20   69.50    2.09
  16  20   8   68.17    2.07
  20   8  16   70.47    2.13
 -16 -20   8   71.13    2.08
  -8  16 -20   68.32    2.10
  -8 -16  20   71.02    2.20
 -16  20  10    0.35    0.19
  16 -20  10    0.66    0.22
  20 -10  16    0.24    0.22
 -10  16  20    0.51    0.23
 -20  10  16    0.34    0.19
  10 -16  20    0.28    0.21
 -16  20 -10    0.54    0.20
  20  10  16    0.27    0.19
 -10  16 -20    0.32    0.19
  20  10  16    0.60    0.22
  16  20  10    0.45    0.21
 -20 -10  16    0.64    0.23
  10  16  20    0.13    0.21
 -10 -16  20    0.50    0.23
 -16 -20  10    0.34    0.19
  12 -16  20   57.58    1.89
  20 -12  16   54.78    1.87
 -16  20  12   57.73    1.81
 -12  16  20   55.96    1.82
  16 -20  12   58.47    1.83
 -20  12  16   55.07    1.79
  16  20  12   55.88    1.83
 -20 -12  16   53.45    1.88
  20  12  16   55.94    1.83
 -12 -16  20   58.05    1.92
  12  16  20   57.01    1.84
 -16 -20  12   59.80    1.85
 -16  20 -12   53.98    1.83
  16 -20  14    0.27    0.21
 -20  14  16   -0.06    0.14
 -14  16  20    0.15    0.18
  14 -16  20    0.16    0.22
 -16  20  14    0.30    0.20
  20 -14  16    0.31    0.24
  14  16  20    0.44    0.23
  20  14  16    0.41    0.22
 -16 -20  14    0.15    0.19
 -14 -16  20    0.41    0.22
 -20 -14  16    0.22    0.20
 -16  20 -14    0.17    0.21
  16  20  14    0.60    0.24
 -16  20  16   49.11    1.72
 -20  16  16   50.54    1.72
 -16  16  20   50.69    1.73
  16 -16  20   51.23    1.78
  16 -20  16   50.19    1.73
  20 -16  16   51.24    1.77
 -20 -16  16   52.43    1.81
 -16 -16  20   50.45    1.81
 -16 -20  16   51.88    1.77
 -16  20 -16   51.92    1.79
  16  20  16   49.79    1.74
  20  16  16   49.92    1.76
  16  16  20   48.72    1.72
 -20  18  16    0.20    0.18
  20 -18  16    0.22    0.24
  16 -20  18    0.05    0.20
  18 -16  20    0.00    0.25
 -18  16  20   -0.03    0.16
 -16  20  18    0.39    0.21
  18  16  20   -0.04    0.22
  16  20  18    0.20    0.23
 -20 -18  16    0.14    0.21
 -16 -20  18   -0.25    0.18
 -18 -16  20   -0.01    0.23
 -16  20 -18    0.30    0.20
  20  18  16    0.09    0.22
  18  20   0    0.11    0.16
  20   0  18    0.38    0.21
 -20   0  18    0.06    0.13
   0 -18  20   -0.19    0.14
 -18  20   0    0.02    0.16
   0  18  20    0.22    0.18
 -20   0  18    0.01    0.15
   0  18 -20    0.06    0.15
   2  18 -20    0.04    0.15
 -18  20   2    0.21    0.18
  18  20  -2    0.24    0.17
  -2  18  20    0.14    0.18
  20  -2  18    0.19    0.16
 -20   2  18   -0.01    0.16
 -20   2  18    0.16    0.16
   2 -18  20    0.40    0.21
 -20  -2  18    0.31    0.18
 -18  20  -2    0.15    0.17
  18  20   2    0.07    0.17
  -2 -18  20    0.06    0.17
 -20  -2  18    0.09    0.14
  20   2  18    0.30    0.19
  20   2  18   -0.02    0.16
  -2  18 -20    0.26    0.18
   2  18  20   -0.04    0.18
 -20   4  18    0.08    0.19
  -4  18  20    0.35    0.22
  18  20  -4    0.22    0.16
  20  -4  18    0.53    0.21
 -18  20   4    0.36    0.17
   4 -18  20    0.34    0.21
   4  18  20    0.01    0.17
  20   4  18    0.13    0.18
  18  20   4    0.27    0.17
 -20  -4  18    0.15    0.14
  20   4  18    0.10    0.17
  20  -4 -18    0.32    0.19
 -18  20  -4    0.56    0.21
  -4  18 -20    0.13    0.15
  -4 -18  20    0.05    0.16
   6 -18  20    0.46    0.22
  18  20  -6    0.45    0.18
 -18  20   6    0.59    0.20
 -20   6  18    0.14    0.16
  20  -6  18   -0.05    0.16
  -6  18  20    0.61    0.23
  18  20   6    0.21    0.19
  20   6  18    0.35    0.21
 -20  -6  18    0.32    0.17
   6  18  20    0.53    0.24
  -6  18 -20    0.37    0.18
  20  -6 -18    0.44    0.19
  -6 -18  20    0.13    0.18
  20   6  18    0.27    0.19
 -18  20  -6    0.20    0.17
 -20   8  18    0.09    0.18
  18  20  -8    0.37    0.18
  20  -8  18    0.20    0.20
 -18  20   8    0.17    0.15
   8 -18  20    0.07    0.18
  -8  18  20   -0.36    0.15
  -8  18 -20   -0.02    0.16
 -20  -8  18    0.19    0.16
  20   8  18    0.02    0.17
  20   8  18    0.19    0.20
   8  18  20    0.21    0.22
  18  20   8    0.16    0.18
  -8 -18  20    0.25    0.20
 -18  20  -8    0.38    0.19
 -18 -20   8    0.24    0.18
 -10  18  20    0.11    0.17
  20 -10  18    0.12    0.20
 -18  20  10   -0.22    0.12
  10 -18  20    0.05    0.18
  18 -20  10    0.15    0.19
 -20  10  18   -0.05    0.16
 -18  20 -10    0.01    0.16
 -10  18 -20    0.06    0.15
 -20 -10  18    0.29    0.22
 -10 -18  20    0.12    0.20
 -18 -20  10   -0.24    0.15
  20  10  18   -0.01    0.19
  10  18  20    0.01    0.16
  18  20  10    0.24    0.19
  12 -18  20    0.33    0.21
 -20  12  18    0.05    0.16
  18 -20  12    0.10    0.20
 -18  20  12    0.23    0.18
 -12  18  20    0.08    0.18
  20 -12  18    0.36    0.23
 -20 -12  18    0.08    0.17
  18  20  12    0.04    0.15
  12  18  20    0.12    0.20
 -18 -20  12    0.09    0.20
 -12  18 -20    0.02    0.17
 -18  20 -12    0.18    0.20
 -12 -18  20    0.48    0.23
  20  12  18    0.15    0.19
 -20  14  18    2.10    0.32
 -14  18  20    3.08    0.39
 -18  20  14    2.23    0.34
  20 -14  18    2.36    0.37
  18 -20  14    1.75    0.31
  14 -18  20    2.14    0.35
 -18 -20  14    2.07    0.35
  20  14  18    2.08    0.36
 -20 -14  18    2.38    0.36
  14  18  20    2.44    0.37
 -14 -18  20    2.61    0.38
  18  20  14    2.56    0.38
 -18  20 -14    2.48    0.37
  16 -18  20    0.09    0.24
  20 -16  18    0.38    0.26
  18 -20  16    0.30    0.23
 -20  16  18   -0.14    0.16
 -16  18  20    0.14    0.17
 -18  20  16    0.35    0.22
 -18  20 -16   -0.05    0.16
  18  20  16    0.26    0.23
 -16 -18  20    0.24    0.22
 -20 -16  18   -0.18    0.21
  16  18  20    0.10    0.22
 -18 -20  16    0.09    0.19
  20  16  18    0.12    0.21
  20 -18  18   -0.12    0.24
 -20  18  18    0.10    0.18
 -18  18  20   -0.08    0.19
  18 -20  18    0.10    0.27
 -18  20  18    0.08    0.19
  18  20  18    0.22    0.24
  20  18  18    0.16    0.27
 -18 -20  18    0.27    0.26
  18  18  20   -0.10    0.24
   0  20 -20   57.95    1.86
 -20  20   0   59.08    1.84
   0  20  20   59.44    1.93
  20  20   0   61.65    1.89
 -20   0  20   59.69    1.86
  20   0  20   59.62    1.98
   0 -20  20   61.44    1.98
 -20   0  20   59.64    1.96
 -20   2  20    1.00    0.25
  20  20  -2    0.82    0.23
  20  -2  20    1.44    0.30
   2  20 -20    1.15    0.24
 -20   2  20    1.66    0.29
   2 -20  20   -0.01    0.21
  -2  20  20    0.25    0.23
  -2  20 -20    1.50    0.27
 -20  20  -2    0.83    0.24
 -20  -2  20    1.05    0.24
 -20  -2  20    0.36    0.20
  20  20   2    1.26    0.26
  20   2  20    1.08    0.27
  -2 -20  20    0.29    0.27
   2  20  20    0.91    0.28
  -4  20  20   41.42    1.51
  20  20  -4   42.03    1.43
   4 -20  20   40.05    1.49
 -20  20   4   41.48    1.39
 -20   4  20   40.12    1.44
  20  -4  20   44.61    1.58
 -20   4  20   39.95    1.46
  -4 -20  20   39.50    1.51
  -4  20 -20   43.66    1.50
 -20  20  -4   43.99    1.48
  20   4  20   42.03    1.42
  20  20   4   41.22    1.48
   4  20  20   43.35    1.53
  20   4  20   40.83    1.51
 -20  -4  20   44.40    1.58
 -20   6  20    0.04    0.16
  20  -6  20    0.50    0.23
 -20  20   6    0.27    0.15
   6 -20  20    0.19    0.20
  20  20  -6    0.07    0.18
  -6  20  20    0.01    0.20
  20   6  20    0.56    0.22
 -20  20  -6    0.41    0.21
  -6 -20  20    0.10    0.20
 -20  -6  20    0.25    0.17
   6  20  20   -0.23    0.21
  20  20   6    0.20    0.20
  20  -6 -20    0.07    0.19
  20   6  20    0.01    0.18
  -6  20 -20    0.18    0.18
 -20   8  20   61.14    1.94
 -20  20   8   62.39    1.91
  -8  20  20   61.76    2.02
   8 -20  20   60.31    2.00
  20  20  -8   60.21    1.99
  20  -8  20   61.50    2.06
  -8  20 -20   62.49    2.01
 -20  20  -8   63.58    1.99
  20  20   8   62.48    2.01
   8  20  20   61.86    1.99
 -20  -8  20   63.08    2.08
  20   8  20   59.58    1.93
  -8 -20  20   63.36    2.05
  20 -10  20    0.95    0.30
  20 -20  10    0.86    0.27
 -20  20  10    0.73    0.23
 -10  20  20    0.55    0.24
  10 -20  20    0.37    0.23
 -20  10  20    0.62    0.24
  20  20 -10    0.34    0.19
 -10  20 -20    0.72    0.24
  20  10  20    0.40    0.25
  20  20  10    0.45    0.22
 -10 -20  20    0.89    0.29
  10  20  20    0.41    0.26
 -20  20 -10    0.65    0.26
 -20 -10  20    0.49    0.23
  12 -20  20   28.54    1.22
 -12  20  20   29.25    1.23
 -20  12  20   31.78    1.25
 -20  20  12   30.99    1.22
  20 -12  20   28.43    1.26
  20 -20  12   30.25    1.21
  20  12  20   29.95    1.24
 -12  20 -20   29.56    1.25
  12  20  20   30.02    1.24
 -12 -20  20   31.24    1.27
 -20 -20  12   29.85    1.24
 -20 -12  20   29.62    1.29
  20  20  12   30.15    1.27
 -20  20 -12   26.47    1.19
 -14  20  20   -0.36    0.16
  20 -20  14    0.29    0.22
  14 -20  20    0.04    0.23
 -20  14  20    0.16    0.19
  20 -14  20    0.36    0.28
 -20  20  14    0.27    0.20
 -20 -20  14    0.17    0.23
 -14 -20  20    0.33    0.24
 -20 -14  20   -0.03    0.19
 -14  20 -20    0.08    0.18
  20  20  14    0.01    0.19
  20  14  20    0.44    0.27
  14  20  20   -0.18    0.20
 -20  20  16   36.62    1.42
 -20  16  20   34.07    1.39
 -16  20  20   35.27    1.43
  16 -20  20   34.04    1.42
  20 -20  16   34.09    1.41
 -20 -20  16   38.34    1.47
  16  20  20   33.65    1.41
  20  20  16   35.85    1.48
  20  16  20   36.34    1.45
  -1   1  21    0.06    0.09
   1  21  -1    0.00    0.09
  -1  21   1    0.04    0.11
  -1  21   1    0.01    0.13
   1  -1  21   -0.04    0.12
  21   1  -1   -0.08    0.11
   1  21  -1    0.13    0.12
  21  -1   1    0.12    0.12
  -1   1  21   -0.06    0.09
   1  21   1   -0.04    0.10
   1  21   1   -0.14    0.11
  21  -1  -1    0.08    0.12
  -1  -1  21    0.10    0.10
  -1  -1  21    0.05    0.12
  -1  21  -1    0.08    0.12
   1   1  21    0.07    0.09
   1   1  21    0.20    0.13
  21   1   1   -0.01    0.10
  -1  21   3    0.40    0.16
  -3   1  21    0.34    0.12
   1  21  -3    0.65    0.17
   3  -1  21    0.12    0.13
  -1  21   3    0.46    0.15
  21   3  -1    0.45    0.16
  21  -3   1    0.36    0.16
  -3   1  21    0.31    0.14
  -3  -1  21    0.30    0.11
  21  -3  -1    0.30    0.16
  21   3   1    0.26    0.15
  -3  -1  21    0.52    0.17
   1  21   3    0.61    0.17
  -1  21  -3    0.36    0.14
   3   1  21    0.38    0.13
   1  21   3    0.40    0.15
   3   1  21    0.22    0.14
  21   5  -1    0.05    0.12
   1  21  -5    0.02    0.10
  -1  21   5   -0.07    0.12
   5  -1  21   -0.09    0.10
  -5   1  21    0.04    0.10
  -5   1  21    0.06    0.11
  21  -5   1   -0.07    0.10
  -1  21   5    0.02    0.11
  21  -5  -1    0.07    0.12
  -5  -1  21    0.18    0.12
   5   1  21   -0.10    0.09
   1  21   5    0.14    0.14
  21   5   1    0.00    0.12
  -5  -1  21   -0.02    0.09
   5   1  21   -0.07    0.09
  -1  21  -5   -0.03    0.10
  21   7  -1    0.23    0.16
  21  -7   1    0.36    0.16
  -1  21   7    0.30    0.16
   7  -1  21    0.25    0.16
  -7   1  21    0.09    0.11
  -1  21   7    0.36    0.14
   1  21  -7    0.22    0.13
  -7   1  21    0.32    0.13
  21  -7  -1    0.30    0.16
   1  21   7    0.20    0.16
  21   7   1   -0.04    0.12
   7   1  21    0.23    0.15
  -7  -1  21    0.29    0.15
  -1  21  -7   -0.03    0.10
  -7  -1  21    0.20    0.13
   7   1  21    0.33    0.13
   9  -1  21   -0.12    0.11
  21   9  -1   -0.01    0.12
  21  -9   1   -0.04    0.14
  -9   1  21   -0.08    0.10
   1  21  -9    0.03    0.12
  -1  21   9   -0.02    0.11
  -9   1  21   -0.02    0.10
   1  21   9    0.05    0.14
  -9  -1  21    0.12    0.11
  -1  21  -9   -0.02    0.11
  -9  -1  21    0.07    0.11
  21  -9  -1    0.01    0.14
   9   1  21   -0.15    0.10
  21   9   1    0.00    0.13
   1 -21  11    0.47    0.17
   1  21 -11    0.33    0.16
  11  -1  21    0.31    0.17
  21 -11   1    0.17    0.15
 -11   1  21    0.36    0.15
  -1  21  11    0.56    0.19
 -11   1  21    0.31    0.14
  21  11  -1    0.14    0.14
 -11  -1  21    0.21    0.13
  21  11   1    0.34    0.17
  -1  21 -11    0.39    0.17
   1  21  11    0.51    0.17
  11   1  21    0.27    0.15
 -11  -1  21    0.51    0.19
  21 -11  -1    0.41    0.18
  -1 -21  11    0.37    0.16
   1  21 -13   -0.10    0.12
   1 -21  13   -0.31    0.11
 -13   1  21    0.03    0.14
 -13   1  21   -0.01    0.12
  -1  21  13   -0.15    0.13
  21 -13   1   -0.18    0.14
  21  13  -1   -0.06    0.12
 -21  13   1    0.00    0.12
  13  -1  21   -0.15    0.10
  13   1  21    0.01    0.13
 -13  -1  21   -0.15    0.11
  -1  21 -13   -0.06    0.13
  21 -13  -1    0.10    0.16
  -1 -21  13    0.19    0.15
 -21  13  -1   -0.11    0.11
   1  21  13    0.05    0.13
 -13  -1  21   -0.01    0.10
  21  13   1    0.24    0.15
  15  -1  21   -0.06    0.15
  21  15  -1   -0.10    0.13
   1 -21  15   -0.01    0.15
 -15   1  21   -0.14    0.13
  21 -15   1   -0.07    0.15
 -15   1  21   -0.01    0.12
  -1  21  15   -0.14    0.13
 -21  15   1    0.17    0.15
   1  21 -15   -0.02    0.15
  21  15   1    0.16    0.16
 -21  15  -1   -0.10    0.15
  15   1  21    0.24    0.18
   1  21  15    0.07    0.13
  -1 -21  15    0.25    0.16
  21  15   1   -0.07    0.11
 -15  -1  21   -0.07    0.14
  -1  21 -15   -0.18    0.13
 -15  -1  21   -0.18    0.14
  21 -15  -1    0.11    0.15
  -1  21  17    0.00    0.14
   1  21 -17    0.10    0.15
 -17   1  21   -0.01    0.15
  21  17  -1    0.22    0.17
  21  17  -1   -0.10    0.13
 -21  17   1    0.01    0.12
  17  -1  21    0.00    0.14
 -17   1  21   -0.08    0.15
   1 -21  17   -0.16    0.15
 -17  -1  21   -0.07    0.16
  17   1  21   -0.05    0.15
  21  17   1    0.05    0.15
 -17  -1  21    0.02    0.14
   1  21  17    0.03    0.16
  -1  21 -17   -0.06    0.13
 -21  17  -1    0.02    0.16
  -1 -21  17   -0.07    0.16
   1  21 -19   -0.27    0.13
 -19   1  21   -0.10    0.13
  21  19  -1    0.18    0.16
   1 -21  19    0.12    0.19
  19  -1  21   -0.22    0.15
 -19   1  21   -0.14    0.15
  -1  21  19    0.05    0.15
  -1  21 -19   -0.25    0.11
  19   1  21    0.07    0.18
  21  19   1    0.10    0.15
   1  21  19    0.03    0.17
 -19  -1  21   -0.05    0.15
 -21  19  -1   -0.02    0.16
  -1 -21  19    0.12    0.19
 -19  -1  21   -0.18    0.13
   1  -3  21    0.47    0.16
  -1   3  21    0.46    0.13
  -3  21   1    0.19    0.13
  21  -1   3    0.34    0.15
  21   1  -3    0.36    0.15
   3  21  -1    0.13    0.12
  -1   3  21    0.31    0.14
   3  21  -1    0.34    0.14
  -3  21   1    0.35    0.13
   3  21   1    0.61    0.16
   1   3  21    0.13    0.13
  -3  21  -1    0.21    0.14
   3  21   1    0.33    0.13
   1   3  21    0.35    0.13
  21   1   3    0.11    0.12
  21  -1  -3    0.46    0.17
  -1  -3  21    0.66    0.19
  21   3  -3   -0.09    0.09
  -3  21   3    0.12    0.12
  -3   3  21   -0.01    0.09
  21  -3   3   -0.02    0.12
   3  21  -3   -0.14    0.07
   3  -3  21   -0.09    0.11
  -3  21   3    0.06    0.11
  -3   3  21   -0.01    0.10
  -3  21  -3   -0.02    0.11
  -3  -3  21    0.03    0.11
  21  -3  -3   -0.05    0.11
   3  21   3   -0.10    0.12
   3   3  21   -0.15    0.09
   3   3  21   -0.10    0.12
  21   3   3   -0.08    0.09
  -3  21   5    0.03    0.11
  -5   3  21   -0.07    0.09
   3  21  -5   -0.07    0.09
  21   5  -3   -0.01    0.10
   5  -3  21   -0.11    0.10
  -5   3  21    0.10    0.11
  -3  21   5   -0.13    0.11
  21  -5   3    0.06    0.15
   5   3  21    0.00    0.12
  -5  -3  21   -0.01    0.11
   5   3  21    0.01    0.13
  21  -5  -3   -0.13    0.10
  21   5   3    0.08    0.12
  -3  21  -5    0.07    0.10
   3  21   5    0.11    0.13
  21   7  -3   -0.03    0.11
  -7   3  21    0.12    0.12
  -3  21   7   -0.01    0.09
   3  21  -7    0.12    0.13
  -3  21   7    0.13    0.14
  -7   3  21   -0.05    0.10
  21  -7   3    0.15    0.15
   7  -3  21    0.03    0.12
   7   3  21   -0.06    0.11
  21  -7  -3    0.05    0.14
  21   7   3    0.06    0.13
   7   3  21   -0.14    0.09
  -7  -3  21   -0.13    0.09
  -7  -3  21   -0.01    0.11
  -3  21  -7   -0.04    0.11
   3  21   7    0.06    0.13
 -21   9   3    0.43    0.16
  -9   3  21    0.69    0.18
   9  -3  21    0.38    0.17
  21  -9   3    0.64    0.20
  -3  21   9    0.64    0.18
  -3  21   9    0.67    0.20
  21   9  -3    0.51    0.17
  -9   3  21    0.54    0.16
   3  21  -9    0.99    0.19
  -3  21  -9    1.02    0.20
  -9  -3  21    0.77    0.20
   9   3  21    0.35    0.15
  21  -9  -3    0.57    0.18
   3  21   9    0.56    0.19
   9   3  21    0.66    0.19
  -9  -3  21    0.47    0.14
  -3 -21   9    0.63    0.16
  21   9   3    0.30    0.17
 -11   3  21    1.71    0.23
 -11   3  21    1.62    0.23
  21 -11   3    1.68    0.27
 -21  11   3    1.75    0.25
  21  11  -3    2.13    0.30
   3 -21  11    1.84    0.25
  11  -3  21    1.45    0.26
   3  21 -11    1.92    0.26
  -3  21  11    1.65    0.27
  -3  21 -11    1.56    0.26
  21 -11  -3    1.57    0.25
 -11  -3  21    1.64    0.22
  11   3  21    1.88    0.24
   3  21  11    1.82    0.28
  11   3  21    2.00    0.28
  -3 -21  11    1.44    0.23
 -11  -3  21    1.56    0.25
  21  11   3    2.16    0.28
  -3  21  13    0.32    0.18
  21  13  -3    0.16    0.16
 -13   3  21   -0.03    0.12
  21 -13   3    0.00    0.15
 -21  13   3    0.10    0.13
 -13   3  21    0.04    0.13
   3  21 -13   -0.09    0.11
   3 -21  13    0.00    0.14
  13  -3  21   -0.05    0.13
   3  21  13    0.05    0.16
  13   3  21   -0.24    0.11
  21 -13  -3   -0.08    0.16
 -13  -3  21   -0.05    0.11
  -3 -21  13   -0.03    0.14
  13   3  21   -0.09    0.14
 -13  -3  21   -0.25    0.12
  21  13   3    0.20    0.15
  -3  21 -13    0.01    0.12
 -15   3  21    0.15    0.17
 -15   3  21    0.62    0.20
   3 -21  15    1.08    0.23
  21  15  -3    0.45    0.22
  -3  21  15    0.85    0.24
  21 -15   3    0.62    0.22
  15  -3  21    0.51    0.18
   3  21 -15    0.66    0.20
 -21  15   3    0.56    0.20
  21  15   3    0.76    0.22
  15   3  21    0.74    0.23
   3  21  15    0.70    0.22
 -15  -3  21    0.43    0.19
  -3 -21  15    0.92    0.22
 -21  15  -3    0.72    0.21
  -3  21 -15    0.92    0.24
 -15  -3  21    0.94    0.23
  21  15   3    0.54    0.21
  21 -17   3    0.13    0.17
   3  21 -17    0.15    0.16
  21  17  -3    0.02    0.16
 -21  17   3    0.04    0.12
  -3  21  17   -0.18    0.13
  17  -3  21   -0.04    0.13
 -17   3  21    0.01    0.17
   3 -21  17   -0.16    0.13
 -17   3  21   -0.06    0.12
  -3 -21  17   -0.11    0.14
   3  21  17   -0.34    0.13
  21  17   3    0.05    0.16
  17   3  21    0.08    0.16
 -21  17  -3   -0.02    0.15
 -17  -3  21   -0.07    0.14
 -17  -3  21   -0.05    0.14
  -3  21 -17   -0.07    0.15
  -3  21  19    0.31    0.21
  21  19  -3    0.12    0.18
 -19   3  21    0.25    0.20
 -21  19   3    0.14    0.16
   3 -21  19    0.42    0.19
 -19   3  21    0.04    0.18
  19  -3  21   -0.02    0.16
   3  21 -19    0.30    0.18
 -19  -3  21   -0.02    0.17
  -3  21 -19    0.20    0.20
  19   3  21    0.30    0.21
   3  21  19    0.10    0.18
 -19  -3  21    0.31    0.18
  21  19   3    0.06    0.19
  -3 -21  19    0.34    0.19
 -21  19  -3    0.03    0.19
   5  21  -1   -0.10    0.10
  21   1  -5   -0.08    0.10
  -1   5  21    0.14    0.12
   1  -5  21    0.18    0.13
   5  21  -1    0.02    0.10
  -1   5  21    0.21    0.12
  21  -1   5    0.05    0.13
  -5  21   1   -0.11    0.10
  -5  21   1    0.11    0.13
  -1  -5  21   -0.03    0.11
  -5  21  -1    0.07    0.12
   1   5  21   -0.04    0.10
  21  -1  -5    0.04    0.12
   5  21   1    0.07    0.12
   1   5  21    0.00    0.10
  21   1   5    0.12    0.13
   5  21  -3    0.01    0.09
  -3   5  21    0.08    0.11
  -5  21   3   -0.06    0.09
  -5  21   3    0.04    0.12
   3  -5  21    0.20    0.14
  21   3  -5   -0.05    0.12
  21  -3   5    0.07    0.14
  -3   5  21    0.02    0.11
  21  -3  -5    0.02    0.11
  21   3   5    0.01    0.12
   3   5  21    0.05    0.11
  -5  21  -3   -0.02    0.11
  -3  -5  21    0.11    0.13
   3   5  21    0.04    0.11
   5  21   3    0.22    0.14
  21  -5   5    0.19    0.16
   5  -5  21   -0.09    0.10
  -5   5  21   -0.04    0.10
  -5   5  21   -0.06    0.08
   5  21  -5   -0.13    0.08
  -5  21   5   -0.08    0.12
  21   5  -5    0.08    0.11
  -5  21   5   -0.05    0.11
  21  -5  -5    0.23    0.14
   5   5  21    0.05    0.11
   5  21   5   -0.13    0.11
  -5  21  -5   -0.07    0.12
  21   5   5   -0.09    0.12
   5   5  21    0.01    0.12
  -5  -5  21    0.11    0.13
  21   7  -5   -0.13    0.11
 -21   7   5    0.16    0.13
  21  -7   5    0.12    0.16
  -5  21   7   -0.09    0.13
   5  21  -7    0.15    0.14
  -5  21   7    0.12    0.15
   7  -5  21    0.16    0.13
  -7   5  21    0.43    0.15
  -7   5  21    0.20    0.12
  21   7   5    0.15    0.13
  -5  21  -7    0.15    0.14
   7   5  21    0.06    0.13
   7   5  21    0.06    0.13
  -7  -5  21    0.23    0.15
   5  21   7    0.10    0.14
  21  -7  -5    0.03    0.14
  -9   5  21   -0.04    0.11
   5  21  -9    0.18    0.12
  -9   5  21   -0.03    0.11
   9  -5  21   -0.11    0.10
  21  -9   5    0.20    0.16
  -5  21   9   -0.02    0.14
  -5  21   9   -0.14    0.11
  21   9  -5   -0.09    0.10
 -21   9   5   -0.03    0.11
  -5 -21   9    0.10    0.13
   9   5  21   -0.12    0.11
  -5  21  -9   -0.02    0.12
  -9  -5  21    0.03    0.11
   5  21   9   -0.25    0.11
  21   9   5    0.19    0.15
  21  -9  -5   -0.15    0.11
   9   5  21    0.14    0.14
  -5  21  11    0.34    0.16
  11  -5  21    0.09    0.16
  21  11  -5    0.08    0.14
 -21  11   5    0.42    0.17
   5 -21  11    0.18    0.17
  21 -11   5    0.14    0.16
  -5  21  11    0.11    0.14
 -11   5  21    0.17    0.15
 -11   5  21    0.05    0.12
   5  21 -11    0.26    0.15
  -5 -21  11    0.23    0.14
  21  11   5    0.41    0.17
 -11  -5  21    0.18    0.14
  11   5  21    0.32    0.15
   5  21  11    0.18    0.16
  21 -11  -5    0.31    0.15
  -5  21 -11    0.21    0.16
  11   5  21    0.27    0.16
 -21  13   5    0.11    0.13
   5  21 -13   -0.08    0.12
  -5  21  13   -0.03    0.11
 -13   5  21    0.02    0.14
 -13   5  21   -0.03    0.10
  13  -5  21    0.03    0.13
   5 -21  13   -0.16    0.13
  -5  21  13    0.10    0.14
  21  13  -5    0.04    0.13
  21 -13   5    0.03    0.15
  -5 -21  13    0.00    0.13
  21 -13  -5    0.02    0.14
  -5  21 -13   -0.23    0.11
 -13  -5  21   -0.05    0.11
   5  21  13   -0.17    0.12
  21  13   5    0.00    0.13
  13   5  21    0.04    0.15
  21  13   5   -0.06    0.12
 -13  -5  21   -0.12    0.13
  13   5  21    0.09    0.14
   5 -21  15    0.14    0.17
   5  21 -15    0.33    0.17
  -5  21  15    0.35    0.19
 -15   5  21    0.00    0.14
  21  15  -5    0.05    0.15
  21 -15   5    0.13    0.18
  15  -5  21    0.01    0.15
 -15   5  21   -0.07    0.13
 -21  15   5    0.24    0.16
  15   5  21    0.24    0.18
  -5 -21  15    0.05    0.16
  15   5  21    0.32    0.18
  21  15   5    0.14    0.15
 -15  -5  21    0.05    0.15
 -21  15  -5    0.03    0.16
   5  21  15    0.28    0.19
 -15  -5  21    0.42    0.19
  -5  21 -15    0.13    0.16
  21  15   5   -0.03    0.15
   5  21 -17    0.52    0.19
  17  -5  21    0.08    0.18
   5 -21  17   -0.21    0.15
  21 -17   5    0.31    0.19
  -5  21  17    0.48    0.22
 -17   5  21    0.00    0.16
 -21  17   5    0.31    0.16
  21  17  -5    0.47    0.21
 -17   5  21    0.51    0.19
 -17  -5  21    0.15    0.17
  17   5  21    0.16    0.20
  -5  21 -17    0.37    0.19
  -5 -21  17    0.30    0.18
 -21  17  -5    0.12    0.16
   5  21  17    0.23    0.20
 -17  -5  21    0.38    0.20
  17   5  21    0.26    0.20
  21  17   5    0.14    0.14
 -19   5  21   -0.01    0.17
 -19   5  21    0.16    0.16
  21  19  -5   -0.20    0.15
  19  -5  21   -0.12    0.16
  21  19  -5   -0.01    0.16
   5 -21  19    0.05    0.18
 -21  19   5    0.12    0.16
  -5  21  19   -0.01    0.17
  19   5  21   -0.15    0.16
   5  21  19   -0.05    0.15
 -19  -5  21    0.20    0.19
  -5 -21  19   -0.13    0.16
  -5  21 -19    0.17    0.17
 -21  19  -5   -0.10    0.17
  19   5  21    0.10    0.18
  21  19   5    0.10    0.19
   1  -7  21    0.44    0.18
   7  21  -1    0.16    0.13
  -7  21   1    0.19    0.15
  -1   7  21    0.39    0.16
   7  21  -1    0.15    0.11
  21   1  -7    0.15    0.13
  -7  21   1    0.30    0.14
  -1   7  21    0.22    0.14
  21  -1   7    0.47    0.18
   1   7  21    0.28    0.15
  -7  21  -1    0.36    0.17
   7  21   1    0.45    0.15
  -1  -7  21    0.10    0.12
  21  -1  -7    0.26    0.16
  21   1   7    0.20    0.15
   1   7  21    0.16    0.13
   7  21  -3    0.06    0.10
  -7  21   3   -0.07    0.10
  21   3  -7   -0.10    0.13
   3  -7  21   -0.01    0.12
   7  21  -3   -0.22    0.11
  -7  21   3    0.10    0.13
  21  -3   7   -0.06    0.14
  -3   7  21    0.03    0.10
  -3   7  21    0.11    0.14
   7  21   3    0.12    0.13
  -3  -7  21    0.06    0.12
   3   7  21   -0.10    0.10
  21  -3  -7   -0.04    0.12
  21   3   7    0.08    0.13
   3   7  21   -0.08    0.10
  -7  21  -3   -0.02    0.14
 -21   5   7    0.02    0.11
  -7  21   5    0.17    0.13
  -7  21   5    0.09    0.13
   7  21  -5    0.11    0.13
  21  -5   7    0.21    0.18
  -5   7  21    0.19    0.12
  21   5  -7    0.11    0.13
   5  -7  21    0.13    0.14
  -5   7  21    0.13    0.12
   5   7  21    0.05    0.13
  -7  21  -5    0.10    0.14
   7  21   5    0.10    0.14
  21  -5  -7   -0.06    0.13
  21   5   7    0.21    0.15
  -5  -7  21    0.40    0.17
   5   7  21    0.13    0.14
  21  -7   7   -0.07    0.12
  21   7  -7   -0.20    0.12
   7  -7  21   -0.05    0.11
  -7   7  21   -0.06    0.11
  -7  21   7    0.15    0.14
  -7  21   7    0.07    0.14
 -21   7   7   -0.07    0.12
   7  21  -7    0.06    0.12
  -7   7  21   -0.12    0.09
  -7  21  -7   -0.05    0.13
   7  21   7   -0.05    0.11
  -7  -7  21   -0.09    0.10
   7   7  21   -0.01    0.11
  21   7   7   -0.05    0.11
   7   7  21    0.01    0.13
  21  -7  -7    0.06    0.13
  21   9  -7    0.06    0.14
  -9   7  21   -0.03    0.11
  -7  21   9   -0.06    0.11
  -9   7  21    0.00    0.11
  -7  21   9    0.14    0.15
  21  -9   7    0.02    0.17
   7  21  -9   -0.04    0.11
 -21   9   7   -0.03    0.12
   9  -7  21    0.14    0.14
  -7  21  -9   -0.07    0.11
  -7 -21   9   -0.02    0.12
  -9  -7  21    0.00    0.11
  21  -9  -7   -0.28    0.12
   9   7  21    0.09    0.14
   7  21   9    0.16    0.16
   9   7  21   -0.05    0.13
  21   9   7   -0.01    0.14
   7 -21  11    2.54    0.30
  21 -11   7    2.81    0.34
  21  11  -7    2.59    0.32
  -7  21  11    2.62    0.31
 -11   7  21    2.51    0.30
  -7  21  11    2.04    0.27
 -11   7  21    2.55    0.28
  11  -7  21    2.24    0.31
 -21  11   7    2.42    0.29
   7  21 -11    2.23    0.27
  11   7  21    2.60    0.30
  21  11   7    2.42    0.30
  21 -11  -7    2.53    0.29
  -7  21 -11    2.01    0.30
 -11  -7  21    1.99    0.30
  21  11   7    2.50    0.32
  11   7  21    2.51    0.30
  -7 -21  11    2.67    0.29
   7  21  11    2.67    0.31
  21  13  -7    0.99    0.23
  -7  21  13    0.86    0.22
   7 -21  13    1.41    0.26
 -13   7  21    1.03    0.23
   7  21 -13    1.03    0.22
 -13   7  21    1.14    0.21
  13  -7  21    1.08    0.24
  -7  21  13    1.01    0.21
 -21  13   7    0.93    0.21
  21 -13   7    0.77    0.24
   7  21  13    0.97    0.24
  13   7  21    0.77    0.22
  21  13   7    0.85    0.22
  -7  21 -13    1.35    0.25
  21  13   7    0.62    0.22
  13   7  21    1.09    0.23
  -7 -21  13    1.06    0.22
 -13  -7  21    0.81    0.24
  21 -13  -7    1.43    0.25
  21  15  -7    0.18    0.19
   7  21 -15    0.48    0.18
  21 -15   7    0.06    0.19
  -7  21  15    0.38    0.18
  15  -7  21    0.08    0.15
 -21  15   7    0.25    0.16
   7 -21  15    0.34    0.20
 -15   7  21    0.20    0.16
  15   7  21    0.27    0.19
  15   7  21    0.52    0.21
  -7 -21  15    0.16    0.18
  21  15   7    0.11    0.20
 -15  -7  21    0.46    0.20
   7  21  15    0.62    0.21
  -7  21 -15    0.26    0.17
 -17   7  21   -0.08    0.14
  21 -17   7   -0.08    0.17
  21  17  -7    0.00    0.14
  -7  21  17   -0.03    0.16
   7 -21  17   -0.14    0.17
 -21  17   7    0.10    0.14
  17  -7  21   -0.02    0.14
   7  21  17   -0.08    0.15
  -7 -21  17    0.45    0.21
  17   7  21    0.00    0.17
 -17  -7  21    0.10    0.15
  17   7  21    0.07    0.18
 -21  17  -7   -0.04    0.15
  21  17   7   -0.11    0.13
  -7  21 -17    0.06    0.15
 -21  19   7    0.18    0.18
   7 -21  19    0.68    0.24
 -19   7  21    0.51    0.24
  19  -7  21    0.17    0.18
  -7  21  19    0.25    0.19
  21  19  -7    0.64    0.24
  19   7  21   -0.15    0.20
  -7  21 -19    0.04    0.20
 -19  -7  21    0.33    0.19
  21  19   7    0.25    0.21
 -21  19  -7    0.66    0.24
  -7 -21  19    0.58    0.23
  19   7  21    0.76    0.25
   7  21  19    0.64    0.25
  21   1  -9   -0.07    0.12
   9  21  -1    0.01    0.14
  21  -1   9    0.08    0.14
  -9  21   1   -0.01    0.11
  -1   9  21   -0.03    0.12
   1  -9  21    0.03    0.11
  -1  -9  21    0.06    0.12
   1   9  21   -0.09    0.11
  21  -1  -9   -0.21    0.12
   9  21   1   -0.05    0.10
  21   1   9   -0.22    0.10
  -9  21  -1   -0.10    0.11
   9  21  -3    0.60    0.17
  -9  21   3    0.42    0.16
  -3   9  21    0.51    0.17
  21  -3   9    0.67    0.19
   3  -9  21    0.39    0.18
   9  21  -3    0.43    0.16
 -21   3   9    0.54    0.17
  -9  21   3    0.68    0.17
  21   3  -9    0.45    0.17
  21  -3  -9    0.80    0.20
   9  21   3    0.77    0.20
  21   3   9    0.49    0.19
   3   9  21    0.75    0.20
  -9  21  -3    0.76    0.19
  -3  -9  21    0.48    0.17
  -9  21   5    0.08    0.13
   9  21  -5    0.01    0.11
  -5   9  21    0.09    0.14
  -9  21   5    0.11    0.13
  21  -5   9   -0.15    0.14
 -21   5   9    0.10    0.13
   5  -9  21    0.00    0.13
  21   5  -9    0.13    0.12
  -5  -9  21    0.43    0.17
  -9  21  -5   -0.14    0.12
   5   9  21   -0.13    0.13
   9  21   5   -0.03    0.12
  21  -5  -9   -0.03    0.13
  21   5   9   -0.23    0.12
 -21   7   9    0.01    0.11
   9  21  -7   -0.17    0.10
  21   7  -9    0.05    0.13
  21  -7   9   -0.14    0.14
  -9  21   7    0.09    0.13
  -7   9  21   -0.11    0.11
   7  -9  21   -0.10    0.13
  -9  21   7    0.05    0.13
  21  -7  -9    0.00    0.13
  21   7   9   -0.08    0.13
  -9  21  -7   -0.16    0.13
  21   7   9   -0.34    0.10
   7   9  21   -0.04    0.13
   9  21   7   -0.07    0.13
  -7  -9  21   -0.15    0.10
   9  -9  21   -0.24    0.12
  -9  21   9   -0.01    0.13
   9  21  -9    0.13    0.14
  -9   9  21    0.02    0.14
 -21   9   9    0.06    0.12
  -9  21   9   -0.17    0.11
  21  -9   9   -0.24    0.14
  21   9  -9    0.15    0.14
  -9  21  -9    0.06    0.16
  21   9   9   -0.19    0.14
  -9 -21   9    0.05    0.12
  21  -9  -9   -0.33    0.12
   9  21   9    0.24    0.17
  -9  -9  21   -0.02    0.13
   9   9  21   -0.02    0.15
  21   9   9   -0.08    0.13
  -9  21  11    1.60    0.26
  11  -9  21    1.10    0.26
 -11   9  21    1.36    0.25
   9  21 -11    1.91    0.26
   9 -21  11    1.74    0.27
  21 -11   9    1.32    0.28
 -21  11   9    1.55    0.25
  -9  21  11    1.05    0.24
  21  11  -9    0.83    0.22
  11   9  21    1.32    0.25
 -11  -9  21    2.08    0.31
  21 -11  -9    1.52    0.25
  -9  21 -11    1.43    0.25
   9  21  11    1.25    0.25
  21  11   9    1.39    0.25
  21  11   9    2.09    0.31
  -9 -21  11    1.68    0.25
   9  21 -13   -0.19    0.11
  -9  21  13   -0.02    0.14
 -21  13   9    0.03    0.13
   9 -21  13    0.02    0.16
 -13   9  21   -0.07    0.13
  21 -13   9    0.36    0.20
  13  -9  21   -0.17    0.13
  21  13  -9    0.16    0.16
   9  21  13    0.12    0.16
  13   9  21   -0.02    0.14
  21  13   9   -0.05    0.15
  -9 -21  13    0.15    0.15
  -9  21 -13   -0.18    0.12
  21  13   9   -0.07    0.15
 -13  -9  21    0.00    0.13
  15  -9  21    0.82    0.25
  -9  21  15    1.25    0.27
 -15   9  21    1.42    0.28
   9 -21  15    1.26    0.25
 -21  15   9    1.26    0.25
  21  15  -9    0.92    0.25
  21 -15   9    1.10    0.27
   9  21  15    1.30    0.27
  -9  21 -15    1.46    0.27
  15   9  21    1.23    0.26
  -9 -21  15    1.40    0.26
  21  15   9    1.15    0.27
 -15  -9  21    1.26    0.27
  21  17  -9    0.18    0.16
  21 -17   9    0.11    0.21
  17  -9  21    0.21    0.18
   9 -21  17    0.01    0.19
 -21  17   9    0.23    0.16
  -9  21  17    0.32    0.22
 -17   9  21    0.24    0.19
  -9 -21  17   -0.04    0.18
 -21  17  -9    0.09    0.18
 -17  -9  21    0.13    0.17
   9  21  17   -0.18    0.16
  17   9  21    0.17    0.19
  21  17   9    0.55    0.21
  -9  21 -17    0.19    0.18
  21 -19   9    0.47    0.24
  -9  21  19    0.66    0.25
 -21  19   9    1.01    0.24
  19  -9  21    0.17    0.21
 -19   9  21    0.42    0.22
  21  19  -9    0.35    0.22
   9 -21  19    0.27    0.23
  21  19   9    0.40    0.23
  19   9  21    0.63    0.27
  -9 -21  19    1.10    0.27
 -21  19  -9    0.44    0.24
  -9  21 -19    0.31    0.20
   9  21  19    0.50    0.25
 -19  -9  21    0.45    0.22
  -1  11  21    0.29    0.17
  21   1 -11    0.26    0.16
   1  11 -21    0.26    0.15
  21  -1  11    0.20    0.17
   1 -11  21    0.19    0.17
 -21   1  11    0.37    0.16
  11  21  -1    0.29    0.15
 -11  21   1    0.08    0.15
   1  11  21    0.37    0.18
 -11  21  -1    0.29    0.16
  21  -1 -11    0.44    0.18
  21   1  11    0.28    0.17
  11  21   1    0.21    0.15
  -1 -11  21    0.21    0.18
  -3  11  21    1.99    0.28
 -21   3  11    1.15    0.24
 -11  21   3    1.74    0.24
  11  21  -3    1.75    0.24
 -11  21   3    1.33    0.21
  21   3 -11    1.93    0.29
   3 -11  21    1.47    0.28
  21  -3  11    1.83    0.27
  11  21  -3    1.36    0.23
  21   3  11    2.00    0.29
   3  11  21    1.92    0.27
  21   3  11    1.34    0.25
  21  -3 -11    1.67    0.25
 -11  21  -3    1.73    0.27
  -3 -11  21    1.65    0.28
  11  21   3    1.70    0.25
 -11  21   5    0.36    0.16
 -21   5  11    0.36    0.17
  -5  11  21    0.20    0.17
  21  -5  11    0.34    0.19
   5 -11  21    0.48    0.22
 -11  21   5    0.20    0.14
  11  21  -5    0.08    0.12
  21   5 -11    0.25    0.17
 -11  21  -5    0.28    0.17
  11  21   5    0.28    0.17
  21  -5 -11    0.03    0.15
   5  11  21    0.11    0.16
  21   5  11    0.08    0.14
  -5 -11  21    0.67    0.22
  21   5  11    0.10    0.16
 -21   7  11    1.91    0.27
 -11  21   7    2.84    0.30
  21   7 -11    2.36    0.31
 -11  21   7    1.81    0.25
  11  21  -7    2.11    0.26
  21  -7  11    2.19    0.34
   7 -11  21    2.16    0.31
  -7  11  21    2.22    0.29
  -7 -11  21    2.36    0.32
  21   7  11    2.41    0.32
   7  11  21    2.95    0.33
  21   7  11    2.89    0.34
  21  -7 -11    2.70    0.31
 -11  21  -7    2.29    0.31
  11  21   7    2.33    0.30
 -11  21   9    1.39    0.23
   9 -11  21    1.34    0.28
  21   9 -11    1.29    0.25
  -9  11  21    1.17    0.25
 -11  21   9    1.11    0.23
  21  -9  11    1.34    0.26
  11  21  -9    1.55    0.24
 -21   9  11    0.87    0.21
 -11 -21   9    1.53    0.25
  11  21   9    2.12    0.30
 -11  21  -9    1.33    0.24
  21  -9 -11    1.29    0.25
  21   9  11    1.14    0.25
  21   9  11    1.47    0.27
   9  11  21    1.29    0.25
  -9 -11  21    0.99    0.24
  11 -21  11   -0.08    0.15
 -11  21  11   -0.30    0.12
  21 -11  11   -0.15    0.18
  21  11 -11   -0.18    0.12
 -11  11  21    0.11    0.16
  11  21 -11    0.01    0.13
 -21  11  11   -0.03    0.12
  11 -11  21    0.11    0.16
  21 -11 -11   -0.17    0.14
 -11  21 -11   -0.34    0.16
  11  21  11   -0.07    0.15
 -11 -11  21   -0.24    0.13
 -21 -11  11    0.10    0.15
 -11 -21  11    0.10    0.15
  21  11  11   -0.16    0.12
  21  11  11   -0.10    0.16
  11  11  21   -0.03    0.16
 -13  11  21    0.22    0.17
  21 -13  11   -0.12    0.15
 -21  13  11    0.00    0.13
  13 -11  21   -0.05    0.16
  11 -21  13   -0.26    0.15
 -11  21  13   -0.16    0.14
  21  13 -11   -0.03    0.14
 -13 -11  21   -0.10    0.17
  11  21  13   -0.05    0.15
 -11 -21  13    0.05    0.16
 -11  21 -13   -0.06    0.12
  13  11  21   -0.23    0.15
 -21 -13  11   -0.09    0.15
  21  13  11    0.10    0.17
  15 -11  21    0.82    0.25
 -21  15  11    1.20    0.26
  21  15 -11    0.60    0.24
  21 -15  11    1.19    0.29
 -11  21  15    0.82    0.25
 -15  11  21    0.98    0.25
  11 -21  15    1.23    0.26
  11  21  15    1.03    0.27
 -15 -11  21    0.64    0.26
  15  11  21    1.07    0.26
 -11 -21  15    1.64    0.29
 -21 -15  11    1.44    0.31
 -11  21 -15    1.17    0.26
  21  15  11    0.93    0.29
  11 -21  17    0.11    0.22
  17 -11  21    0.00    0.22
 -17  11  21   -0.07    0.13
  21 -17  11    0.33    0.24
  21  17 -11   -0.16    0.12
 -21  17  11    0.07    0.15
 -11  21  17    0.29    0.20
  21  17  11    0.14    0.20
 -21 -17  11    0.02    0.16
  11  21  17   -0.04    0.16
  17  11  21    0.20    0.20
 -17 -11  21    0.09    0.18
 -11  21 -17    0.01    0.17
 -11 -21  17   -0.18    0.17
 -19  11  21    0.13    0.18
 -21  19  11   -0.15    0.15
  21 -19  11    0.37    0.24
  21  19 -11    0.28    0.19
 -11  21  19    0.14    0.21
  11 -21  19    0.37    0.23
  19 -11  21    0.46    0.26
 -21  19 -11   -0.05    0.18
  21  19  11    0.52    0.25
  11  21  19    0.20    0.21
 -11 -21  19    0.10    0.23
  19  11  21    0.25    0.24
 -11  21 -19    0.41    0.24
 -19 -11  21    0.24    0.25
  -1  13  21   -0.25    0.13
  13  21  -1   -0.03    0.13
  21  -1  13    0.07    0.15
   1 -13  21    0.05    0.14
 -21   1  13   -0.06    0.14
 -13  21   1    0.07    0.15
  21   1 -13   -0.04    0.14
   1  13 -21   -0.04    0.14
  21  -1  13    0.11    0.15
  21  -1 -13    0.06    0.15
  13  21   1   -0.09    0.13
  21   1  13    0.19    0.15
   1  13  21   -0.14    0.15
  -1 -13  21   -0.05    0.15
  21   1  13   -0.07    0.14
  -1  13 -21    0.09    0.14
 -13  21  -1    0.02    0.15
  13  21  -3    0.10    0.12
 -21   3  13    0.12    0.13
   3 -13  21   -0.08    0.15
 -13  21   3   -0.07    0.13
  21   3 -13   -0.27    0.14
 -13  21   3    0.05    0.12
  21  -3  13   -0.03    0.15
  -3  13  21    0.14    0.16
  -3 -13  21    0.15    0.16
  -3  13 -21   -0.03    0.12
  13  21   3    0.18    0.14
   3  13  21    0.16    0.18
  21  -3 -13    0.12    0.15
  21   3  13   -0.08    0.12
  21   3  13   -0.01    0.16
 -13  21  -3   -0.22    0.13
  13  21  -5    0.14    0.14
   5 -13  21   -0.10    0.14
  13  21  -5    0.05    0.12
 -13  21   5   -0.02    0.12
  21  -5  13    0.07    0.15
  21   5 -13   -0.12    0.13
  -5  13  21    0.04    0.17
 -21   5  13   -0.09    0.13
 -13  21   5   -0.03    0.13
  21  -5 -13   -0.16    0.13
 -13  21  -5   -0.22    0.14
  13  21   5   -0.11    0.12
   5  13  21   -0.09    0.15
  -5 -13  21    0.01    0.16
 -21  -5  13    0.01    0.12
  21   5  13   -0.16    0.14
  21   5  13    0.04    0.14
  13  21  -7    0.87    0.20
 -13  21   7    1.24    0.23
 -13  21   7    1.26    0.23
   7 -13  21    1.22    0.27
 -21   7  13    1.31    0.25
  -7  13  21    0.83    0.24
  21  -7  13    1.24    0.27
  21  -7 -13    0.98    0.23
   7  13  21    1.09    0.25
  21   7  13    1.35    0.27
 -13  21  -7    1.34    0.25
  -7 -13  21    1.16    0.26
  13  21   7    1.34    0.25
  21   7  13    0.97    0.23
 -21  -7  13    1.59    0.28
 -13  21   9   -0.03    0.13
  13  21  -9    0.03    0.13
  21  -9  13    0.09    0.17
  -9  13  21   -0.06    0.13
 -21   9  13   -0.06    0.10
   9 -13  21    0.27    0.19
   9  13  21   -0.15    0.13
 -13  21  -9    0.01    0.17
 -21  -9  13   -0.04    0.13
  -9 -13  21   -0.34    0.13
  21  -9 -13   -0.18    0.15
  21   9  13    0.06    0.17
  13  21   9    0.16    0.17
 -13 -21   9   -0.02    0.14
  21   9  13   -0.15    0.13
  13 -21  11    0.07    0.17
 -21  11  13   -0.09    0.11
 -11  13  21    0.06    0.15
  11 -13  21   -0.16    0.15
  21 -11  13   -0.16    0.15
 -13  21  11   -0.04    0.14
  11  13  21   -0.05    0.14
  21  11  13    0.00    0.17
  13  21  11   -0.29    0.12
  21  11  13   -0.10    0.14
 -11 -13  21   -0.21    0.12
 -13 -21  11   -0.12    0.14
 -21 -11  13   -0.12    0.12
 -13  21 -11   -0.15    0.12
  13 -13  21   -0.20    0.15
 -21  13  13    0.14    0.15
  13 -21  13   -0.02    0.18
 -13  21  13   -0.03    0.14
 -13  13  21   -0.08    0.17
  21 -13  13    0.04    0.19
  13  13  21   -0.16    0.15
 -13 -21  13   -0.12    0.15
 -13 -13  21    0.12    0.17
 -13  21 -13    0.01    0.17
  21  13  13   -0.01    0.18
 -21 -13  13   -0.06    0.17
  13  21  13   -0.10    0.14
 -15  13  21   -0.14    0.14
  13 -21  15   -0.05    0.19
  21 -15  13   -0.12    0.19
 -21  15  13    0.04    0.15
  15 -13  21    0.09    0.20
 -13  21  15   -0.15    0.16
 -13 -21  15   -0.23    0.15
  21  15  13   -0.07    0.18
  15  13  21   -0.21    0.18
 -15 -13  21   -0.23    0.16
 -21 -15  13   -0.16    0.16
  13  21  15    0.10    0.17
 -13  21 -15    0.30    0.19
 -13  21  17   -0.20    0.14
  13 -21  17    0.08    0.20
  21 -17  13    0.06    0.21
 -17  13  21   -0.07    0.17
 -21  17  13    0.04    0.16
  17 -13  21   -0.13    0.16
 -13 -21  17   -0.11    0.18
  21  17  13    0.04    0.22
  13  21  17   -0.13    0.18
 -17 -13  21   -0.04    0.15
  17  13  21    0.00    0.20
 -21 -17  13   -0.24    0.14
 -13  21 -17   -0.06    0.15
 -19  13  21    0.20    0.21
 -21  19  13    0.01    0.16
  19 -13  21    0.04    0.23
  13 -21  19   -0.08    0.19
  21 -19  13    0.15    0.22
 -13  21  19   -0.02    0.17
  21  19  13   -0.03    0.18
 -21 -19  13    0.11    0.20
 -13  21 -19    0.07    0.17
  19  13  21   -0.35    0.18
 -13 -21  19    0.09    0.18
  13  21  19   -0.11    0.20
 -19 -13  21    0.08    0.23
  21   1 -15    0.06    0.15
  15  21  -1   -0.19    0.13
  21  -1  15   -0.19    0.14
 -21   1  15    0.08    0.16
   1 -15  21   -0.01    0.17
  21  -1  15   -0.04    0.14
  -1  15  21   -0.35    0.15
 -15  21   1   -0.12    0.15
   1  15 -21    0.11    0.14
  -1  15 -21   -0.15    0.15
   1  15  21   -0.19    0.14
  -1 -15  21    0.00    0.14
  21   1  15    0.21    0.16
  21   1  15    0.00    0.18
 -15  21  -1   -0.01    0.14
  21  -1 -15   -0.28    0.13
  15  21   1   -0.17    0.13
  15  21  -3    0.50    0.20
  -3  15  21    0.55    0.24
 -15  21   3    0.93    0.22
 -21   3  15    0.37    0.19
   3 -15  21    0.95    0.25
  21  -3  15    0.48    0.22
  -3  15 -21    0.96    0.22
   3  15  21    0.64    0.23
  21   3  15    0.40    0.21
  15  21   3    0.53    0.20
  21  -3 -15    0.69    0.22
  21   3  15    0.68    0.22
  -3 -15  21    0.92    0.24
 -21  -3  15    0.59    0.21
 -15  21  -3    0.52    0.21
  15  21  -5    0.18    0.17
  -5  15  21    0.27    0.20
   5 -15  21    0.21    0.20
 -15  21   5    0.09    0.15
 -21   5  15    0.32    0.18
  15  21  -5    0.06    0.14
 -15  21   5    0.20    0.17
  21  -5  15    0.64    0.21
  21  -5 -15   -0.02    0.17
  21   5  15    0.09    0.18
  15  21   5   -0.01    0.17
  21   5  15   -0.05    0.14
  -5  15 -21   -0.11    0.14
 -15  21  -5    0.35    0.18
  -5 -15  21   -0.06    0.15
 -21  -5  15    0.35    0.18
   5  15  21    0.33    0.21
  15  21  -7    0.44    0.18
   7 -15  21    0.26    0.20
  -7  15  21    0.40    0.20
 -21   7  15   -0.05    0.15
  21  -7  15    0.12    0.20
 -15  21   7    0.16    0.17
  -7 -15  21    0.45    0.21
 -21  -7  15   -0.14    0.12
  21   7  15    0.22    0.20
  21  -7 -15    0.32    0.19
  -7  15 -21    0.59    0.21
  21   7  15    0.34    0.20
   7  15  21    0.47    0.23
 -15  21  -7    0.10    0.17
  15  21   7    0.57    0.22
 -21   9  15    1.22    0.24
   9 -15  21    0.73    0.23
  21  -9  15    1.39    0.29
  -9  15  21    0.72    0.22
 -15  21   9    0.56    0.18
  21  -9 -15    1.24    0.26
  15  21   9    1.57    0.28
  21   9  15    1.61    0.29
 -21  -9  15    0.77    0.26
 -15 -21   9    1.07    0.24
  21   9  15    0.98    0.25
 -15  21  -9    1.02    0.26
   9  15  21    0.95    0.26
  -9 -15  21    1.16    0.27
 -21  11  15    0.93    0.24
 -11  15  21    1.20    0.26
  15 -21  11    1.25    0.26
 -15  21  11    0.95    0.24
  21 -11  15    0.85    0.28
  11 -15  21    0.69    0.24
 -15 -21  11    1.13    0.25
 -11 -15  21    1.32    0.28
  21  11  15    1.05    0.29
  11  15  21    1.10    0.27
  15  21  11    1.41    0.28
 -15  21 -11    1.19    0.28
 -21 -11  15    1.14    0.30
 -21  13  15   -0.09    0.14
  13 -15  21    0.08    0.19
 -13  15  21   -0.09    0.17
 -15  21  13   -0.30    0.14
  21 -13  15   -0.07    0.17
  15 -21  13   -0.03    0.20
 -15  21 -13    0.00    0.17
  15  21  13    0.03    0.18
  21  13  15   -0.10    0.18
  13  15  21   -0.01    0.19
 -13 -15  21    0.01    0.19
 -21 -13  15    0.02    0.17
 -15 -21  13   -0.07    0.17
  21 -15  15   -0.49    0.17
 -15  15  21   -0.44    0.14
  15 -15  21    0.09    0.20
 -21  15  15    0.00    0.16
  15 -21  15   -0.08    0.18
 -15  21  15   -0.26    0.14
  21  15  15   -0.34    0.17
 -21 -15  15   -0.08    0.19
 -15  21 -15   -0.47    0.16
 -15 -15  21   -0.12    0.18
  15  21  15   -0.06    0.14
 -15 -21  15   -0.19    0.16
  15  15  21    0.12    0.20
  15 -21  17    0.06    0.22
 -17  15  21   -0.02    0.19
 -21  17  15    0.12    0.17
  21 -17  15    0.10    0.21
 -15  21  17   -0.12    0.17
  17 -15  21   -0.07    0.20
  17  15  21   -0.39    0.19
 -15 -21  17   -0.24    0.17
 -15  21 -17    0.00    0.17
  21  17  15   -0.03    0.22
 -17 -15  21    0.15    0.23
  15  21  17   -0.12    0.20
 -21 -17  15    0.00    0.20
  15 -21  19    0.01    0.24
  21 -19  15    0.11    0.25
 -19  15  21   -0.06    0.18
 -21  19  15   -0.15    0.17
 -15  21  19   -0.15    0.18
  19  15  21   -0.07    0.21
  15  21  19    0.08    0.22
 -15 -21  19    0.04    0.23
 -21 -19  15   -0.36    0.20
  21  19  15    0.01    0.22
 -15  21 -19    0.15    0.21
 -21   1  17    0.01    0.14
 -17  21   1    0.01    0.16
   1 -17  21   -0.24    0.13
  21  -1  17   -0.13    0.14
  -1  17  21   -0.21    0.16
  17  21  -1    0.32    0.17
   1  17 -21    0.17    0.16
 -21  -1  17    0.00    0.15
 -21  -1  17   -0.02    0.12
  21   1  17    0.22    0.20
  -1  17 -21    0.19    0.18
 -17  21  -1   -0.20    0.14
  21  -1 -17    0.05    0.19
   1  17  21   -0.10    0.17
  17  21   1   -0.04    0.13
  21   1  17   -0.11    0.14
  -1 -17  21   -0.38    0.14
   3 -17  21   -0.11    0.17
  17  21  -3   -0.05    0.14
 -17  21   3    0.27    0.18
  21  -3  17    0.04    0.16
  -3  17  21    0.00    0.17
 -21   3  17    0.06    0.17
  -3  17 -21   -0.07    0.14
  21   3  17   -0.01    0.17
  17  21   3    0.12    0.15
 -17  21  -3    0.00    0.16
  21   3  17    0.04    0.16
   3  17  21   -0.12    0.17
  21  -3 -17   -0.05    0.14
  -3 -17  21   -0.12    0.17
 -21  -3  17   -0.08    0.12
  17  21  -5    0.43    0.19
  -5  17  21    0.69    0.25
 -17  21   5    0.37    0.18
 -21   5  17    0.17    0.17
   5 -17  21   -0.13    0.17
  21  -5  17    0.22    0.20
  17  21   5    0.36    0.18
  21  -5 -17    0.38    0.19
   5  17  21    0.00    0.18
  21   5  17   -0.14    0.17
  21   5  17    0.91    0.23
  -5  17 -21    0.34    0.20
  -5 -17  21    0.37    0.22
 -17  21  -5    0.21    0.16
 -21  -5  17    0.05    0.16
 -17  21   7    0.07    0.14
   7 -17  21   -0.16    0.17
 -21   7  17    0.15    0.16
  21  -7  17    0.13    0.17
  -7  17  21   -0.06    0.18
  21   7  17    0.13    0.19
  17  21   7   -0.15    0.13
  -7  17 -21   -0.13    0.14
  21   7  17    0.12    0.18
  -7 -17  21   -0.04    0.20
  21  -7 -17   -0.06    0.16
 -21  -7  17   -0.10    0.11
   7  17  21    0.10    0.21
 -17  21  -7    0.11    0.17
  21  -9  17    0.10    0.22
 -17  21   9    0.22    0.16
   9 -17  21   -0.04    0.19
  -9  17  21   -0.23    0.13
 -21   9  17    0.27    0.18
 -17  21  -9    0.26    0.21
  17  21   9   -0.06    0.17
   9  17  21    0.03    0.18
  -9 -17  21   -0.04    0.20
 -21  -9  17    0.31    0.21
  21   9  17    0.28    0.20
  -9  17 -21    0.20    0.18
  21   9  17    0.08    0.18
  21 -11  17   -0.25    0.18
 -21  11  17   -0.03    0.13
 -11  17  21   -0.07    0.17
  11 -17  21    0.14    0.20
 -17  21  11    0.01    0.15
 -21 -11  17    0.00    0.18
  21  11  17    0.09    0.17
 -17  21 -11    0.21    0.20
  11  17  21   -0.15    0.18
  17  21  11   -0.18    0.17
 -17 -21  11   -0.05    0.16
 -11 -17  21   -0.07    0.18
 -21  13  17    0.08    0.14
  13 -17  21    0.04    0.22
 -13  17  21   -0.14    0.16
  21 -13  17    0.13    0.22
 -17  21  13    0.06    0.16
  17 -21  13    0.00    0.20
 -13 -17  21   -0.09    0.18
 -21 -13  17   -0.04    0.17
  17  21  13   -0.13    0.15
  21  13  17    0.01    0.19
 -17  21 -13   -0.29    0.17
 -17 -21  13    0.01    0.16
  13  17  21    0.18    0.22
 -21  15  17    0.27    0.20
  15 -17  21   -0.30    0.19
  21 -15  17   -0.07    0.23
 -15  17  21   -0.05    0.16
  17 -21  15    0.20    0.23
 -17  21  15   -0.03    0.18
 -15 -17  21   -0.09    0.20
 -17 -21  15    0.19    0.22
 -17  21 -15    0.09    0.21
  15  17  21    0.16    0.22
  17  21  15   -0.06    0.19
 -21 -15  17   -0.06    0.21
  21  15  17    0.09    0.22
  21 -17  17    0.33    0.27
  17 -21  17   -0.08    0.23
 -17  17  21    0.15    0.18
  17 -17  21    0.02    0.25
 -21  17  17   -0.06    0.15
 -17  21  17   -0.11    0.18
  17  21  17   -0.08    0.19
  21  17  17    0.08    0.24
 -17  21 -17   -0.01    0.22
  17  17  21   -0.04    0.21
 -21 -17  17   -0.26    0.17
 -17 -21  17    0.01    0.20
 -17 -17  21    0.06    0.23
 -19  17  21   -0.20    0.17
 -17  21  19   -0.13    0.19
 -21  19  17    0.15    0.20
  21  19  17    0.21    0.26
  19  17  21    0.03    0.25
  17  21  19   -0.11    0.23
 -19  21   1   -0.11    0.17
  19  21  -1   -0.02    0.16
   1 -19  21   -0.07    0.19
  -1  19  21   -0.23    0.16
   1  19 -21    0.08    0.16
  21  -1  19    0.12    0.22
 -21   1  19   -0.10    0.15
 -21   1  19   -0.22    0.14
 -21  -1  19    0.10    0.15
  19  21   1   -0.31    0.16
  -1  19 -21   -0.12    0.15
   1  19  21    0.07    0.19
 -21  -1  19    0.02    0.16
  21   1  19   -0.17    0.17
 -19  21  -1   -0.24    0.15
  -1 -19  21   -0.04    0.18
   3 -19  21    0.11    0.18
  -3  19  21    0.13    0.22
  19  21  -3    0.15    0.19
  21  -3  19    0.11    0.21
 -21   3  19    0.09    0.19
 -19  21  -3    0.16    0.19
 -21  -3  19    0.39    0.21
   3  19  21    0.50    0.25
  21   3  19    0.18    0.19
  21   3  19   -0.19    0.17
  19  21   3    0.36    0.21
  -3  19 -21    0.49    0.21
  -3 -19  21    0.36    0.22
  21  -3 -19    0.49    0.22
 -19  21   5    0.28    0.17
   5 -19  21    0.04    0.20
  19  21  -5   -0.01    0.17
  21  -5  19    0.34    0.22
 -21   5  19    0.08    0.18
  -5  19  21    0.06    0.20
  -5  19 -21   -0.01    0.15
 -19  21  -5    0.12    0.18
  -5 -19  21    0.01    0.17
 -21  -5  19    0.32    0.19
  21   5  19   -0.25    0.17
  21   5  19   -0.11    0.16
  21  -5 -19   -0.02    0.20
   5  19  21    0.19    0.22
  19  21   5    0.36    0.21
 -19  21   7    0.01    0.16
   7 -19  21    0.41    0.21
  21  -7  19    0.54    0.26
 -21   7  19    0.10    0.19
  -7  19  21    0.53    0.24
 -21  -7  19    0.49    0.22
  21  -7 -19    0.17    0.20
  -7 -19  21    0.51    0.23
  21   7  19    0.39    0.21
  19  21   7    0.44    0.24
  21   7  19    0.56    0.25
 -19  21  -7    0.29    0.23
  -7  19 -21    0.32    0.18
   7  19  21    0.47    0.25
 -19  21   9    0.59    0.22
  -9  19  21    0.47    0.21
  21  -9  19    0.42    0.25
   9 -19  21    0.48    0.24
 -21   9  19    0.74    0.25
   9  19  21    0.12    0.22
  -9 -19  21    1.12    0.29
  21   9  19    0.35    0.23
 -21  -9  19    0.89    0.26
  19  21   9    0.50    0.25
 -19  21  -9    0.82    0.27
  -9  19 -21    0.19    0.21
  11 -19  21    0.21    0.21
 -19  21  11    0.23    0.20
  21 -11  19   -0.21    0.21
 -21  11  19   -0.01    0.18
 -11  19  21    0.15    0.20
 -19  21 -11   -0.10    0.18
  21  11  19    0.23    0.23
 -19 -21  11    0.06    0.19
  19  21  11    0.55    0.23
 -11 -19  21    0.52    0.25
 -21 -11  19    0.51    0.27
  11  19  21    0.19    0.23
 -11  19 -21    0.00    0.18
 -19  21  13    0.01    0.16
  13 -19  21    0.06    0.23
  21 -13  19    0.13    0.25
 -21  13  19    0.06    0.15
  19 -21  13   -0.14    0.22
 -13  19  21    0.05    0.17
  19  21  13   -0.13    0.19
 -19 -21  13   -0.17    0.19
  13  19  21    0.40    0.23
 -21 -13  19    0.03    0.23
 -19  21 -13   -0.01    0.21
 -13 -19  21   -0.10    0.20
  21  13  19   -0.11    0.16
 -15  19  21   -0.09    0.18
 -19  21  15   -0.19    0.17
  15 -19  21    0.03    0.24
  19 -21  15   -0.07    0.22
 -21  15  19   -0.10    0.16
  19  21  15   -0.02    0.19
 -15 -19  21   -0.03    0.25
  15  19  21   -0.14    0.22
  21  15  19   -0.25    0.23
 -19 -21  15   -0.02    0.22
 -19  21 -15    0.00    0.19
 -19  21  17   -0.12    0.19
 -21  17  19   -0.03    0.19
 -17  19  21    0.27    0.22
  19 -21  17    0.00    0.26
  17  19  21    0.03    0.22
  21  17  19   -0.19    0.24
  19  21  17   -0.05    0.25
  21  21  -1    0.05    0.16
 -21   1  21    0.18    0.18
   1 -21  21    0.07    0.18
  21  -1  21   -0.11    0.17
   1  21 -21   -0.19    0.15
 -21   1  21   -0.12    0.14
  -1  21  21    0.03    0.17
   1  21  21   -0.09    0.19
 -21  -1  21    0.10    0.17
  21   1  21   -0.06    0.16
  21  21   1    0.27    0.20
  -1  21 -21   -0.15    0.15
 -21  -1  21   -0.09    0.16
  -1 -21  21   -0.19    0.17
  21  21  -3   -0.16    0.15
 -21   3  21    0.30    0.19
 -21   3  21   -0.18    0.17
  -3  21  21    0.00    0.17
  21  -3  21    0.08    0.19
   3 -21  21   -0.30    0.18
  21  21   3    0.16    0.19
  21  -3 -21   -0.07    0.18
 -21  -3  21    0.06    0.16
  21   3  21    0.16    0.19
  -3  21 -21    0.08    0.18
 -21  21  -3   -0.01    0.19
   3  21  21   -0.28    0.19
  -3 -21  21   -0.17    0.17
  21  -5  21   -0.19    0.15
   5 -21  21   -0.26    0.19
 -21   5  21   -0.06    0.16
  21  21  -5   -0.10    0.15
  -5  21  21    0.04    0.16
 -21  -5  21    0.07    0.15
  21   5  21    0.09    0.19
 -21  21  -5   -0.21    0.16
  21  21   5   -0.01    0.18
  -5  21 -21    0.02    0.17
   5  21  21   -0.06    0.20
  21  -5 -21   -0.10    0.17
  -5 -21  21    0.02    0.21
 -21   7  21    0.01    0.18
   7 -21  21   -0.19    0.20
 -21  21   7   -0.11    0.14
  21  -7  21    0.17    0.19
  -7  21  21   -0.10    0.18
   7  21  21   -0.19    0.18
  21   7  21   -0.01    0.20
 -21  -7  21   -0.13    0.16
  21  21   7   -0.35    0.14
  -7 -21  21   -0.15    0.19
 -21  21  -7   -0.07    0.18
  -7  21 -21    0.24    0.21
  21   7  21   -0.02    0.19
  21  -9  21   -0.22    0.21
   9 -21  21    0.07    0.21
 -21  21   9    0.05    0.16
 -21   9  21    0.22    0.20
  -9  21  21   -0.16    0.16
 -21  21  -9    0.05    0.18
  -9 -21  21    0.00    0.18
  21  21   9    0.03    0.20
  -9  21 -21    0.07    0.18
   9  21  21   -0.10    0.20
  21   9  21    0.08    0.20
 -21  -9  21   -0.02    0.15
  21 -11  21    0.21    0.23
 -21  11  21    0.07    0.18
  21  21 -11    0.17    0.19
  11 -21  21   -0.06    0.20
 -21  21  11    0.10    0.18
 -11  21  21    0.07    0.20
  21  11  21   -0.16    0.20
 -21  21 -11   -0.07    0.19
 -11  21 -21   -0.02    0.15
  11  21  21   -0.02    0.23
  21  21  11    0.16    0.21
 -11 -21  21   -0.17    0.21
 -21  21  13   -0.20    0.17
  21 -21  13    0.13    0.25
 -21  13  21   -0.20    0.19
 -13  21  21   -0.12    0.14
  13 -21  21   -0.13    0.23
 -13 -21  21   -0.08    0.24
  21  13  21   -0.05    0.21
  21  21  13    0.05    0.19
  13  21  21    0.05    0.22
 -21 -21  13   -0.12    0.20
 -13  21 -21   -0.21    0.16
 -21  21 -13   -0.12    0.22
   0  22   0   -0.10    0.11
   0   0  22    0.06    0.11
  22   0   0   -0.11    0.12
   0   0  22   -0.02    0.11
   0  22   0   -0.08    0.12
  22  -2   0    8.12    0.50
  -2   0  22    8.47    0.52
  -2   0  22    8.53    0.41
   0  22   2    8.99    0.48
   0  22   2    8.24    0.48
   2   0  22    8.63    0.53
   0  22  -2    8.33    0.49
  22   2   0    8.92    0.52
  22   4   0    0.00    0.11
   4   0  22   -0.01    0.13
  -4   0  22   -0.02    0.10
  -4   0  22   -0.09    0.10
   0  22   4    0.06    0.13
  22  -4   0   -0.08    0.11
   0  22   4    0.06    0.12
   0  22  -4   -0.02    0.12
   6   0  22    2.11    0.29
  22   6   0    1.73    0.26
   0  22  -6    1.60    0.24
   0  22   6    1.61    0.23
  22  -6   0    1.23    0.23
  -6   0  22    1.83    0.26
   0  22   6    1.83    0.27
  -6   0  22    1.84    0.21
  -8   0  22   -0.01    0.12
   8   0  22    0.09    0.14
   0  22   8    0.07    0.13
  22  -8   0   -0.01    0.15
  22   8   0    0.06    0.13
  -8   0  22    0.22    0.14
   0  22  -8   -0.08    0.11
   0  22  10    0.97    0.23
 -10   0  22    0.87    0.20
  10   0  22    1.11    0.23
  22  10   0    1.06    0.23
   0  22 -10    1.16    0.22
 -10   0  22    1.18    0.23
  22 -10   0    1.51    0.25
   0  22  12    0.03    0.16
  12   0  22   -0.01    0.13
  22  12   0    0.12    0.14
   0  22 -12   -0.05    0.12
   0 -22  12    0.27    0.15
 -12   0  22   -0.04    0.13
 -12   0  22   -0.03    0.13
  22 -12   0    0.14    0.17
   0  22 -14    1.32    0.26
  22  14   0    0.66    0.22
  22 -14   0    0.71    0.22
 -14   0  22    0.98    0.22
 -14   0  22    0.83    0.22
   0 -22  14    0.57    0.21
   0  22  14    0.78    0.24
  14   0  22    1.50    0.28
  22 -16   0    0.40    0.20
   0  22  16   -0.05    0.14
  16   0  22    0.03    0.16
 -16   0  22    0.17    0.16
  22  16   0    0.00    0.15
   0 -22  16    0.11    0.17
  22  16   0   -0.14    0.14
   0  22 -16   -0.08    0.15
 -16   0  22   -0.07    0.14
 -18   0  22    0.18    0.17
   0  22 -18    0.17    0.16
   0  22  18   -0.11    0.16
   0 -22  18   -0.13    0.17
  18   0  22   -0.07    0.15
 -18   0  22   -0.25    0.13
  22  18   0    0.08    0.16
   0  22 -20    0.22    0.18
  22  20   0    0.12    0.17
   0  22  20    0.21    0.19
  20   0  22    0.08    0.17
 -20   0  22    0.05    0.18
   0 -22  20   -0.16    0.18
 -20   0  22    0.21    0.18
   0   2  22    8.51    0.52
   0  -2  22    8.23    0.52
   0   2  22    8.05    0.42
   2  22   0    8.07    0.45
  22   0  -2    7.85    0.49
  -2  22   0    8.23    0.48
  22   0   2    8.48    0.51
   2  22   0    8.30    0.48
  -2   2  22   32.61    1.18
  -2  22   2   35.62    1.10
   2  22  -2   33.36    1.14
  -2  22   2   33.03    1.14
  -2   2  22   33.74    1.04
   2  -2  22   32.02    1.20
  22   2  -2   33.86    1.20
  22  -2   2   33.94    1.20
  -2  22  -2   31.65    1.14
  -2  -2  22   32.92    1.21
   2  22   2   30.45    1.10
   2  22   2   34.46    1.11
   2   2  22   34.93    1.21
  22  -2  -2   33.16    1.17
   2   2  22   33.99    1.04
  22   2   2   34.39    1.20
   2  22  -4    0.07    0.12
  -4   2  22   -0.14    0.12
  22   4  -2   -0.04    0.11
   4  -2  22    0.10    0.14
  -2  22   4    0.20    0.15
  22  -4   2    0.16    0.16
  -4   2  22    0.05    0.12
  -2  22   4    0.21    0.13
   4   2  22    0.13    0.13
   2  22   4    0.27    0.15
   4   2  22   -0.03    0.11
  22  -4  -2   -0.07    0.11
   2  22   4    0.20    0.13
  -4  -2  22   -0.16    0.10
  -2  22  -4   -0.06    0.12
  22   4   2   -0.10    0.10
  -2  22   6   27.39    0.99
  -2  22   6   26.72    0.97
  -6   2  22   27.31    0.91
   2  22  -6   27.13    1.00
  -6   2  22   27.76    1.03
  22  -6   2   25.88    1.01
   6  -2  22   27.46    1.07
  22   6  -2   26.53    1.04
   2  22   6   26.30    0.98
  -6  -2  22   26.25    1.05
  22   6   2   25.90    1.02
   6   2  22   25.70    1.02
   6   2  22   27.14    0.89
  -2  22  -6   26.32    1.00
  22  -6  -2   26.23    0.99
  -8   2  22    1.78    0.23
  22   8  -2    1.20    0.23
   2  22  -8    1.70    0.25
   8  -2  22    1.44    0.25
  -8   2  22    1.22    0.22
  -2  22   8    2.35    0.28
  -2  22   8    1.91    0.27
  22  -8   2    1.71    0.26
   2  22   8    2.04    0.28
   8   2  22    1.27    0.25
  22  -8  -2    1.83    0.27
  -8  -2  22    1.44    0.20
  22   8   2    2.22    0.28
  -8  -2  22    1.31    0.24
  -2  22  -8    2.02    0.26
  22 -10   2   22.84    0.94
  22  10  -2   22.67    0.97
 -10   2  22   23.13    0.86
  -2  22  10   23.79    0.95
   2  22 -10   23.47    0.93
 -10   2  22   22.59    0.93
  10  -2  22   22.51    0.97
  -2  22 -10   22.46    0.93
   2  22  10   26.47    0.98
  22  10   2   23.24    0.96
 -10  -2  22   22.50    0.96
  10   2  22   23.01    0.96
  22 -10  -2   21.99    0.91
 -10  -2  22   22.54    0.83
 -12   2  22    0.13    0.16
  22  12  -2    0.33    0.17
   2  22 -12    0.39    0.18
  12  -2  22    0.28    0.16
 -22  12   2    0.11    0.13
 -12   2  22    0.25    0.14
  -2  22  12    0.02    0.16
   2 -22  12    0.32    0.16
  22 -12   2    0.23    0.18
  -2 -22  12    0.37    0.16
  12   2  22    0.18    0.15
   2  22  12    0.13    0.17
  22 -12  -2    0.10    0.17
  -2  22 -12    0.36    0.19
  22  12   2    0.06    0.13
 -12  -2  22    0.13    0.15
 -12  -2  22    0.21    0.15
   2 -22  14   16.30    0.76
  -2  22  14   17.71    0.83
 -14   2  22   15.67    0.77
 -14   2  22   16.32    0.74
  22 -14   2   15.50    0.76
   2  22 -14   16.42    0.77
  22  14  -2   15.58    0.79
  14  -2  22   14.90    0.79
 -22  14   2   16.14    0.74
  -2 -22  14   16.36    0.76
 -14  -2  22   16.53    0.81
  22 -14  -2   16.48    0.76
 -14  -2  22   15.89    0.72
  22  14   2   17.13    0.81
  14   2  22   16.28    0.81
   2  22  14   15.90    0.79
  -2  22 -14   16.86    0.80
 -16   2  22    0.36    0.17
 -16   2  22    0.40    0.19
  -2  22  16    0.58    0.23
  22 -16   2    0.64    0.23
   2  22 -16    0.26    0.17
   2 -22  16    0.38    0.20
  16  -2  22    0.37    0.20
  22  16  -2    0.28    0.19
 -22  16   2    0.45    0.18
  22  16   2    0.00    0.17
  -2  22 -16    0.36    0.19
  22  16   2    0.64    0.22
   2  22  16    0.23    0.16
  -2 -22  16    0.35    0.20
 -22  16  -2    0.61    0.20
 -16  -2  22    0.25    0.18
 -16  -2  22    0.61    0.21
  16   2  22    0.62    0.20
 -18   2  22   10.70    0.64
  22  18  -2    8.57    0.57
 -18   2  22    8.47    0.57
  -2  22  18    9.16    0.63
   2 -22  18   10.35    0.63
  18  -2  22    9.07    0.63
   2  22 -18    9.07    0.58
  22  18  -2    8.83    0.60
  18   2  22    9.61    0.64
  22  18   2   10.27    0.65
  -2  22 -18    9.39    0.61
   2  22  18    9.36    0.63
  -2 -22  18    9.08    0.61
 -18  -2  22    9.85    0.64
 -22  18  -2    9.47    0.59
 -18  -2  22    9.18    0.58
  22  20  -2    0.38    0.19
  -2  22  20    0.37    0.22
 -20   2  22    0.03    0.18
   2  22 -20    0.21    0.20
   2 -22  20    0.29    0.22
 -20   2  22    0.09    0.18
  20  -2  22    0.34    0.20
   2  22  20    0.25    0.19
  -2 -22  20    0.39    0.23
  -2  22 -20    0.12    0.19
  20   2  22    0.18    0.19
 -20  -2  22    0.19    0.18
  22  20   2    0.20    0.20
 -20  -2  22    0.18    0.21
   4  22   0   -0.04    0.11
   4  22   0    0.12    0.12
  22   0   4   -0.07    0.12
   0  -4  22    0.04    0.11
   0   4  22    0.06    0.12
  -4  22   0   -0.06    0.12
   0   4  22    0.15    0.12
  22   0  -4    0.11    0.14
  -2   4  22    0.21    0.13
   2  -4  22   -0.02    0.11
   4  22  -2    0.16    0.13
  22   2  -4   -0.04    0.13
  -2   4  22    0.11    0.12
  -4  22   2   -0.04    0.11
  22  -2   4    0.03    0.15
  -4  22   2   -0.08    0.13
   4  22   2    0.00    0.12
  22  -2  -4   -0.04    0.12
   2   4  22    0.05    0.11
   4  22   2    0.00    0.11
   2   4  22    0.01    0.12
  22   2   4   -0.08    0.11
  -2  -4  22    0.05    0.11
  -4  22  -2   -0.10    0.11
   4  22  -4    0.20    0.13
  -4   4  22    0.02    0.11
  -4  22   4    0.25    0.14
  -4   4  22    0.23    0.13
  -4  22   4    0.22    0.16
   4  -4  22    0.02    0.11
  22  -4   4    0.27    0.16
  22   4  -4    0.01    0.12
   4   4  22    0.01    0.12
  22   4   4    0.06    0.13
   4  22   4   -0.08    0.12
  -4  -4  22    0.25    0.13
  22  -4  -4    0.11    0.14
   4   4  22    0.18    0.12
  -4  22  -4    0.15    0.15
  -6   4  22    0.28    0.14
   6  -4  22    0.00    0.12
   4  22  -6    0.12    0.14
  -4  22   6    0.28    0.17
  22   6  -4    0.18    0.14
  -4  22   6    0.04    0.13
  -6   4  22    0.00    0.11
  22  -6   4    0.22    0.16
  22  -6  -4    0.19    0.16
   6   4  22    0.09    0.13
   4  22   6    0.27    0.15
  22   6   4    0.24    0.15
  -4  22  -6    0.16    0.12
   6   4  22    0.13    0.14
  -6  -4  22    0.01    0.11
  22   8  -4    0.01    0.13
   4  22  -8   -0.15    0.12
  -8   4  22    0.11    0.13
  -4  22   8    0.05    0.15
  22  -8   4    0.02    0.14
  -4  22   8   -0.05    0.11
  -8   4  22   -0.06    0.10
   8  -4  22    0.22    0.16
  -4  22  -8    0.08    0.15
  22   8   4    0.14    0.14
   4  22   8    0.12    0.16
  -8  -4  22    0.00    0.12
   8   4  22    0.09    0.12
   8   4  22   -0.01    0.11
  22  -8  -4    0.02    0.13
 -22  10   4    2.19    0.28
   4  22 -10    2.84    0.30
  -4  22  10    3.79    0.33
 -10   4  22    2.70    0.30
  22 -10   4    2.47    0.31
  -4  22  10    2.59    0.31
 -10   4  22    2.91    0.30
  22  10  -4    2.65    0.33
  10  -4  22    3.54    0.38
  -4  22 -10    3.23    0.34
  10   4  22    2.66    0.31
  22 -10  -4    2.89    0.32
 -10  -4  22    2.32    0.31
  22  10   4    3.57    0.36
   4  22  10    3.07    0.34
  10   4  22    3.50    0.31
   4  22 -12    0.07    0.14
   4 -22  12    0.02    0.13
 -22  12   4   -0.04    0.11
  -4  22  12    0.10    0.16
  -4  22  12    0.12    0.15
  22 -12   4    0.07    0.16
 -12   4  22    0.08    0.15
 -12   4  22    0.05    0.13
  12  -4  22    0.11    0.15
  22  12  -4    0.15    0.16
  12   4  22    0.03    0.13
  12   4  22   -0.10    0.14
  -4  22 -12   -0.15    0.12
  -4 -22  12   -0.04    0.12
  22  12   4   -0.02    0.13
 -12  -4  22   -0.01    0.14
   4  22  12   -0.03    0.14
  22 -12  -4    0.05    0.17
 -14   4  22   -0.13    0.14
 -14   4  22    0.21    0.15
  22 -14   4    0.07    0.18
   4  22 -14    0.17    0.16
   4 -22  14    0.34    0.19
  22  14  -4    0.26    0.19
  -4  22  14    0.08    0.18
  14  -4  22    0.02    0.16
 -22  14   4    0.29    0.16
 -14  -4  22    0.04    0.14
  -4 -22  14    0.06    0.15
 -14  -4  22    0.28    0.16
  -4  22 -14    0.10    0.15
  14   4  22    0.24    0.16
  22  14   4    0.30    0.15
  14   4  22    0.10    0.16
  22  14   4    0.33    0.18
  22 -14  -4   -0.15    0.15
   4  22  14    0.06    0.15
 -16   4  22   -0.07    0.15
  16  -4  22    0.19    0.18
  22 -16   4   -0.05    0.17
  22  16  -4    0.14    0.17
 -16   4  22    0.19    0.16
 -22  16   4    0.20    0.16
   4 -22  16    0.20    0.17
   4  22 -16   -0.03    0.14
  -4  22  16    0.11    0.17
 -16  -4  22    0.05    0.14
   4  22  16    0.08    0.15
  -4  22 -16    0.34    0.20
  16   4  22    0.08    0.15
  -4 -22  16    0.07    0.15
 -22  16  -4    0.14    0.16
 -16  -4  22    0.32    0.18
  22  16   4    0.23    0.17
  18  -4  22    0.71    0.25
 -18   4  22    0.63    0.21
   4  22 -18    1.00    0.25
  -4  22  18    1.01    0.27
 -18   4  22    0.57    0.23
   4 -22  18    0.61    0.24
 -22  18   4    0.81    0.22
  22  18  -4    0.63    0.24
 -22  18  -4    0.84    0.24
  -4 -22  18    0.79    0.26
 -18  -4  22    0.55    0.22
  18   4  22    1.01    0.27
 -18  -4  22    0.97    0.25
   4  22  18    0.49    0.22
  22  18   4    1.30    0.29
  -4  22 -18    1.18    0.27
 -20   4  22    0.12    0.21
 -20   4  22    0.10    0.17
   4 -22  20    0.57    0.25
  -4  22  20    0.15    0.18
  20  -4  22    0.35    0.19
  22  20  -4    0.21    0.19
  -4 -22  20    0.36    0.23
 -20  -4  22    0.15    0.16
  20   4  22    0.47    0.23
  -4  22 -20    0.04    0.17
   4  22  20    0.14    0.19
 -22  20  -4    0.40    0.23
  22  20   4    0.31    0.22
  22   0   6    1.35    0.23
   0   6  22    1.36    0.21
   0   6  22    1.39    0.21
   0  -6  22    1.72    0.27
  -6  22   0    2.17    0.27
  22   0  -6    1.75    0.26
   6  22   0    1.60    0.22
   6  22   0    1.35    0.21
  22   2  -6   24.68    1.01
  -6  22   2   27.48    0.99
  -2   6  22   25.60    0.95
  22  -2   6   24.55    1.01
   6  22  -2   26.03    0.89
   2  -6  22   26.69    1.06
   6  22  -2   26.34    0.97
  -6  22   2   26.23    0.91
  -2   6  22   26.41    0.93
   2   6  22   27.11    0.97
   6  22   2   25.38    0.92
  -6  22  -2   26.10    0.99
  -2  -6  22   26.70    1.06
  22   2   6   25.90    1.03
  22  -2  -6   24.98    0.99
   2   6  22   28.79    0.95
  -4   6  22    0.17    0.12
  -6  22   4    0.23    0.16
  -6  22   4    0.04    0.12
   6  22  -4    0.24    0.14
   4  -6  22    0.10    0.13
  22   4  -6    0.19    0.13
  22  -4   6   -0.14    0.14
  -4   6  22    0.22    0.14
   4   6  22    0.07    0.12
  -4  -6  22    0.23    0.16
  22   4   6    0.05    0.13
  22  -4  -6    0.41    0.17
   6  22   4    0.08    0.13
   4   6  22    0.36    0.16
  -6  22  -4    0.34    0.15
  -6   6  22   32.29    1.12
  22   6  -6   32.20    1.21
  -6  22   6   33.53    1.13
  -6   6  22   33.95    1.11
  -6  22   6   34.00    1.15
   6  22  -6   32.53    1.13
  22  -6   6   32.42    1.21
 -22   6   6   31.88    1.14
   6  -6  22   33.65    1.24
  -6  22  -6   31.71    1.17
  22  -6  -6   32.04    1.15
   6  22   6   32.45    1.13
   6   6  22   34.64    1.18
   6   6  22   31.55    1.09
  22   6   6   34.17    1.22
  -6  -6  22   32.52    1.25
 -22   8   6    1.54    0.24
  -8   6  22    1.60    0.24
  22   8  -6    1.66    0.27
  -6  22   8    1.20    0.22
  -6  22   8    1.25    0.23
  -8   6  22    1.59    0.24
   6  22  -8    1.44    0.23
   8  -6  22    1.21    0.25
  22  -8   6    2.07    0.30
  22  -8  -6    1.83    0.25
  22   8   6    1.58    0.27
  -6  22  -8    1.42    0.26
   8   6  22    1.38    0.23
   6  22   8    1.37    0.24
   8   6  22    1.33    0.24
  -8  -6  22    1.10    0.25
 -10   6  22   26.75    1.01
  22  10  -6   26.79    1.11
 -22  10   6   29.84    1.07
  -6  22  10   31.14    1.06
  -6  22  10   29.51    1.09
   6  22 -10   28.54    1.05
  10  -6  22   28.98    1.14
  22 -10   6   27.87    1.11
 -10   6  22   28.21    1.03
  -6  22 -10   28.32    1.09
  22  10   6   29.32    1.12
  10   6  22   28.12    1.01
 -10  -6  22   27.87    1.14
  10   6  22   29.08    1.09
   6  22  10   27.18    1.05
  22 -10  -6   28.68    1.06
 -12   6  22    0.16    0.16
  22 -12   6    0.48    0.21
  -6  22  12    0.11    0.15
  -6  22  12    0.38    0.20
 -22  12   6    0.46    0.17
 -12   6  22    0.26    0.16
  22  12  -6    0.39    0.18
   6  22 -12    0.37    0.16
  12  -6  22   -0.01    0.15
  22  12   6   -0.02    0.15
  -6  22 -12    0.58    0.20
 -12  -6  22    0.31    0.16
  12   6  22    0.46    0.19
  22 -12  -6    0.54    0.20
   6  22  12    0.16    0.16
  -6 -22  12    0.18    0.15
  12   6  22    0.48    0.19
  22  12   6    0.57    0.20
  -6  22  14   18.59    0.79
 -22  14   6   18.84    0.82
  22  14  -6   17.86    0.87
   6 -22  14   17.87    0.81
 -14   6  22   16.71    0.77
  22 -14   6   18.10    0.83
  14  -6  22   16.13    0.83
   6  22 -14   16.56    0.78
  -6  22  14   18.30    0.86
 -14   6  22   17.23    0.79
   6  22  14   18.00    0.84
  -6 -22  14   17.92    0.80
  22  14   6   17.61    0.85
  14   6  22   16.80    0.82
  22  14   6   17.13    0.82
 -14  -6  22   18.05    0.88
  -6  22 -14   16.40    0.81
  14   6  22   18.67    0.80
 -22  16   6    0.33    0.18
  22 -16   6    0.76    0.25
  22  16  -6    0.36    0.20
  -6  22  16    0.88    0.25
   6  22 -16    0.91    0.23
 -16   6  22    0.70    0.23
  16  -6  22    0.72    0.22
   6 -22  16    0.70    0.23
 -16   6  22    0.62    0.20
  22  16   6    0.89    0.26
  16   6  22    0.61    0.23
  -6  22 -16    1.04    0.25
  16   6  22    0.96    0.24
   6  22  16    0.74    0.23
 -16  -6  22    0.73    0.23
  -6 -22  16    0.94    0.24
  -6  22  18   12.91    0.74
  22 -18   6   11.82    0.67
 -18   6  22   12.72    0.68
  18  -6  22   12.01    0.73
  22  18  -6   10.39    0.67
   6 -22  18   11.19    0.67
 -18   6  22   11.99    0.68
 -22  18   6   12.65    0.68
  18   6  22   12.10    0.71
  18   6  22   11.70    0.67
  22  18   6   12.17    0.72
 -22  18  -6   12.30    0.70
   6  22  18   12.09    0.72
 -18  -6  22   12.34    0.74
  -6  22 -18   11.10    0.69
  -6 -22  18   12.15    0.71
   6 -22  20   -0.06    0.20
 -20   6  22    0.00    0.19
  22  20  -6    0.08    0.16
  -6  22  20    0.24    0.20
 -22  20   6    0.05    0.16
  20  -6  22    0.11    0.20
  -6  22 -20    0.21    0.20
 -20  -6  22    0.11    0.18
  -6 -22  20    0.08    0.21
  20   6  22    0.24    0.22
 -22  20  -6    0.00    0.18
   6  22  20    0.26    0.19
  20   6  22    0.08    0.20
  22  20   6    0.34    0.21
   0  -8  22   -0.03    0.12
  22   0   8    0.28    0.16
  -8  22   0    0.16    0.15
  22   0  -8    0.01    0.13
   0   8  22    0.14    0.14
   8  22   0   -0.04    0.12
  -8  22   2    1.81    0.26
  -8  22   2    1.52    0.22
   8  22  -2    1.57    0.22
   8  22  -2    1.93    0.26
  22  -2   8    1.53    0.27
   2  -8  22    1.99    0.28
  22   2  -8    1.66    0.27
  -2   8  22    1.95    0.25
  22  -2  -8    1.10    0.23
   8  22   2    1.58    0.24
  -8  22  -2    1.44    0.24
  -2  -8  22    1.82    0.29
  22   2   8    1.27    0.25
   2   8  22    1.43    0.23
  -8  22   4    0.00    0.14
  -4   8  22   -0.06    0.13
   8  22  -4   -0.08    0.10
  -8  22   4   -0.09    0.11
  22  -4   8   -0.03    0.16
   4  -8  22    0.02    0.13
  22   4  -8    0.22    0.15
   8  22   4    0.10    0.14
  -8  22  -4   -0.02    0.13
  -4  -8  22    0.05    0.13
  22   4   8    0.26    0.17
  22  -4  -8    0.01    0.14
   4   8  22    0.15    0.15
   8  22  -6    1.25    0.21
  22   6  -8    1.39    0.26
 -22   6   8    1.10    0.22
  -8  22   6    1.48    0.24
  -8  22   6    1.49    0.24
   6  -8  22    1.16    0.25
  -6   8  22    1.78    0.26
  22  -6   8    0.99    0.25
  22  -6  -8    1.59    0.25
  -6  -8  22    1.14    0.25
  22   6   8    1.66    0.27
  -8  22  -6    1.65    0.27
   6   8  22    1.60    0.24
   8  22   6    1.28    0.24
  -8  22   8    0.25    0.16
  22  -8   8    0.29    0.20
   8  22  -8   -0.16    0.13
 -22   8   8    0.26    0.14
   8  -8  22    0.31    0.16
  -8  22   8    0.08    0.14
  -8   8  22    0.22    0.15
  22   8  -8    0.17    0.15
   8   8  22    0.25    0.17
  -8  -8  22    0.36    0.17
  -8  22  -8    0.20    0.18
   8  22   8    0.10    0.14
  22  -8  -8    0.13    0.16
  22   8   8    0.28    0.18
  22   8   8    0.13    0.16
  22 -10   8    0.26    0.21
  -8  22  10   -0.03    0.15
  22  10  -8    0.20    0.16
  10  -8  22    0.05    0.13
  -8  22  10   -0.02    0.13
 -10   8  22    0.23    0.17
   8  22 -10    0.05    0.13
 -22  10   8    0.24    0.15
 -10  -8  22    0.13    0.16
   8  22  10   -0.12    0.13
  10   8  22    0.11    0.15
  -8  22 -10   -0.14    0.12
  22  10   8    0.18    0.18
  22  10   8    0.21    0.16
  22 -10  -8    0.04    0.16
 -12   8  22   -0.09    0.12
  -8  22  12    0.07    0.16
  22  12  -8   -0.01    0.12
  -8  22  12   -0.04    0.16
   8  22 -12    0.16    0.15
 -22  12   8    0.06    0.14
  22 -12   8    0.22    0.20
  12  -8  22    0.03    0.14
  -8  22 -12    0.00    0.13
  22  12   8    0.15    0.15
   8  22  12    0.00    0.14
  22 -12  -8    0.00    0.15
  -8 -22  12    0.16    0.16
 -12  -8  22    0.11    0.16
  12   8  22   -0.17    0.14
  22  12   8    0.37    0.19
 -22  14   8    0.92    0.22
   8 -22  14    0.94    0.24
   8  22 -14    0.49    0.20
 -14   8  22    0.69    0.22
  -8  22  14    0.24    0.20
  22  14  -8    0.83    0.24
  14  -8  22    0.23    0.19
  22 -14   8    0.76    0.25
  -8  22 -14    0.91    0.23
  14   8  22    0.59    0.21
  22  14   8    0.68    0.23
  -8 -22  14    0.96    0.23
   8  22  14    0.85    0.23
 -14  -8  22    0.61    0.21
 -22  16   8    0.01    0.14
  -8  22  16    0.06    0.18
 -16   8  22   -0.01    0.15
  16  -8  22    0.28    0.20
  22 -16   8   -0.12    0.18
  22  16  -8    0.13    0.17
   8 -22  16    0.20    0.18
  -8  22 -16    0.20    0.17
 -16  -8  22    0.10    0.14
  16   8  22   -0.04    0.16
  22  16   8    0.10    0.18
   8  22  16    0.04    0.18
  -8 -22  16    0.17    0.18
  22  18  -8    0.00    0.17
 -18   8  22   -0.18    0.18
 -22  18   8    0.02    0.15
  -8  22  18   -0.34    0.16
   8 -22  18    0.02    0.22
  18  -8  22    0.16    0.18
  22 -18   8    0.13    0.21
  18   8  22   -0.22    0.18
   8  22  18    0.23    0.18
  22  18   8    0.03    0.19
  -8  22 -18    0.15    0.18
  -8 -22  18    0.29    0.22
 -18  -8  22   -0.09    0.15
 -22  18  -8    0.16    0.19
  22  20  -8    0.06    0.19
 -22  20   8   -0.16    0.16
 -20   8  22    0.37    0.22
   8 -22  20    0.11    0.23
  20  -8  22    0.21    0.20
  -8  22  20   -0.16    0.19
 -20  -8  22    0.00    0.16
  22  20   8   -0.05    0.17
   8  22  20   -0.23    0.17
 -22  20  -8    0.09    0.19
  -8  22 -20    0.02    0.18
  -8 -22  20    0.06    0.20
  20   8  22   -0.04    0.20
  22   0 -10    1.20    0.24
 -10  22   0    1.10    0.23
  22   0  10    0.79    0.22
  10  22   0    1.12    0.21
   0  10  22    1.33    0.23
   0 -10  22    0.95    0.25
   2 -10  22   23.28    0.99
  10  22  -2   23.71    0.91
 -10  22   2   21.84    0.89
  22  -2  10   21.28    0.95
  22   2 -10   22.46    0.95
  -2  10  22   24.49    0.92
  10  22  -2   21.21    0.83
  10  22   2   22.60    0.88
  -2 -10  22   23.30    1.01
  22   2  10   22.49    0.96
  22  -2 -10   22.68    0.94
   2  10  22   24.17    0.92
 -10  22  -2   21.60    0.91
  -4  10  22    2.94    0.33
   4 -10  22    2.97    0.35
  22  -4  10    3.29    0.37
 -10  22   4    2.00    0.27
  22   4 -10    3.50    0.36
 -22   4  10    2.95    0.32
 -10  22   4    2.90    0.32
  10  22  -4    2.52    0.28
  -4 -10  22    3.11    0.37
  22   4  10    2.80    0.34
  10  22   4    2.61    0.29
  22  -4 -10    2.63    0.32
   4  10  22    2.60    0.32
 -10  22  -4    3.01    0.33
 -10  22   6   29.89    1.06
   6 -10  22   28.79    1.14
 -10  22   6   27.57    1.01
 -22   6  10   26.10    1.03
  -6  10  22   30.67    1.08
  22   6 -10   27.70    1.11
  22  -6  10   25.83    1.09
  10  22  -6   29.37    1.05
 -10  22  -6   29.66    1.10
  22   6  10   28.48    1.12
  -6 -10  22   25.96    1.12
  10  22   6   26.36    1.02
   6  10  22   27.37    1.04
  22  -6 -10   28.40    1.06
  22   6  10   28.57    1.09
  22  -8  10    0.27    0.19
  -8  10  22    0.25    0.18
 -10  22   8    0.00    0.15
   8 -10  22    0.17    0.19
 -10  22   8   -0.02    0.13
 -22   8  10   -0.09    0.12
  10  22  -8    0.12    0.14
  22   8 -10    0.18    0.15
  22   8  10    0.25    0.19
  22   8  10    0.01    0.15
  10  22   8    0.16    0.16
  22  -8 -10    0.17    0.15
   8  10  22    0.13    0.16
 -10  22  -8    0.36    0.19
  -8 -10  22   -0.03    0.14
 -10  10  22   19.81    0.85
  10  22 -10   19.50    0.83
  22 -10  10   18.36    0.88
 -10  22  10   19.08    0.86
  10 -10  22   20.94    0.94
  22  10 -10   19.41    0.92
 -22  10  10   18.62    0.84
 -10  22  10   21.20    0.85
  10  22  10   19.17    0.86
  22  10  10   20.67    0.91
 -10  22 -10   18.69    0.87
  10  10  22   19.64    0.85
  22  10  10   18.28    0.87
 -10 -10  22   18.82    0.92
  22 -10 -10   20.32    0.84
 -12  10  22    0.20    0.18
  12 -10  22    0.33    0.19
  10  22 -12    0.25    0.16
  22 -12  10    0.04    0.17
 -22  12  10    0.00    0.14
 -10  22  12    0.27    0.19
  22  12 -10    0.22    0.17
  10  22  12    0.31    0.19
  22  12  10    0.05    0.17
 -12 -10  22    0.14    0.16
 -10 -22  12    0.27    0.18
  12  10  22    0.08    0.17
  22  12  10    0.08    0.18
 -10  22 -12    0.34    0.18
  22 -14  10   12.68    0.70
 -14  10  22   14.06    0.73
  22  14 -10   12.64    0.73
  10 -22  14   13.26    0.70
 -22  14  10   12.76    0.70
 -10  22  14   11.49    0.69
  14 -10  22   14.76    0.79
 -10 -22  14   14.16    0.71
 -14 -10  22   14.24    0.78
  10  22  14   12.36    0.71
  22  14  10   13.19    0.76
  14  10  22   13.59    0.72
 -10  22 -14   12.90    0.73
  10 -22  16    0.74    0.25
  22 -16  10    1.20    0.28
  22  16 -10    1.22    0.27
 -10  22  16    0.66    0.25
 -22  16  10    0.83    0.24
 -16  10  22    0.93    0.25
  16 -10  22    1.32    0.31
 -16 -10  22    1.22    0.28
 -10  22 -16    1.13    0.25
  10  22  16    0.52    0.21
  16  10  22    1.38    0.30
 -10 -22  16    0.74    0.24
  22  16  10    0.87    0.27
 -10  22  18    8.86    0.63
 -18  10  22    9.61    0.64
 -22  18  10   10.14    0.64
  10 -22  18    9.03    0.62
  22 -18  10    9.44    0.64
  22  18 -10    8.80    0.62
  18 -10  22   10.65    0.70
  18  10  22    8.75    0.61
 -10 -22  18   11.02    0.68
 -18 -10  22    9.76    0.68
 -10  22 -18    9.97    0.67
  10  22  18    9.72    0.64
  22  18  10    9.31    0.66
  22  20 -10    0.14    0.19
 -10  22  20    0.12    0.21
  10 -22  20    0.19    0.21
 -20  10  22    0.11    0.22
 -22  20  10    0.16    0.19
  20 -10  22    0.39    0.25
 -22  20 -10    0.19    0.20
 -10 -22  20    0.22    0.20
 -20 -10  22    0.03    0.18
  10  22  20    0.25    0.22
  20  10  22    0.21    0.23
 -10  22 -20    0.27    0.21
  22  20  10    0.28    0.21
   0  12  22   -0.02    0.15
  22   0  12   -0.03    0.13
 -12  22   0    0.10    0.16
  12  22   0    0.15    0.14
   0 -12  22    0.38    0.20
  22   0 -12   -0.05    0.14
  22   2 -12    0.03    0.18
 -22   2  12    0.34    0.17
  22  -2  12   -0.05    0.15
   2 -12  22    0.25    0.18
  -2  12  22    0.24    0.16
  12  22  -2    0.15    0.14
 -12  22   2    0.23    0.16
  -2 -12  22    0.34    0.19
  22  -2 -12    0.24    0.18
 -12  22  -2    0.15    0.17
  12  22   2    0.20    0.16
  22   2  12    0.08    0.15
  22   2  12    0.43    0.21
   2  12  22    0.45    0.20
   4 -12  22    0.02    0.15
  12  22  -4   -0.02    0.12
  22  -4  12    0.09    0.17
  22   4 -12   -0.04    0.16
 -22   4  12    0.02    0.14
 -12  22   4    0.16    0.15
 -12  22   4    0.15    0.16
  -4  12  22    0.01    0.15
  12  22   4    0.20    0.16
 -12  22  -4   -0.06    0.15
  22   4  12   -0.06    0.15
   4  12  22   -0.13    0.15
  -4 -12  22    0.07    0.18
  22  -4 -12    0.05    0.14
  22   4  12   -0.06    0.13
  12  22  -6    0.54    0.17
 -12  22   6    0.10    0.14
 -12  22   6    0.50    0.19
 -22   6  12    0.53    0.19
  -6  12  22    0.20    0.17
   6 -12  22    0.64    0.22
  22  -6  12    0.02    0.20
  22   6 -12    0.16    0.18
 -12  22  -6    0.34    0.18
  -6 -12  22    0.58    0.23
  22   6  12    0.08    0.16
  22   6  12    0.03    0.16
  22  -6 -12    0.32    0.19
   6  12  22    0.19    0.17
  12  22   6    0.20    0.17
 -12  22   8   -0.12    0.13
 -12  22   8    0.02    0.16
 -22   8  12    0.19    0.15
  22  -8  12    0.10    0.19
   8 -12  22    0.25    0.19
  -8  12  22   -0.23    0.15
  22   8 -12    0.20    0.15
  12  22  -8   -0.27    0.11
 -12  22  -8    0.03    0.15
  22   8  12    0.08    0.15
  22   8  12    0.03    0.16
  12  22   8   -0.03    0.16
  22  -8 -12   -0.03    0.15
   8  12  22    0.27    0.19
  -8 -12  22    0.08    0.19
 -10  12  22    0.30    0.18
  10 -12  22    0.43    0.22
  12  22 -10    0.21    0.15
  22 -10  12   -0.08    0.18
  22  10 -12   -0.12    0.13
 -12  22  10    0.01    0.14
 -22  10  12    0.22    0.16
  12  22  10    0.20    0.17
  22 -10 -12    0.20    0.18
  10  12  22    0.12    0.17
  22  10  12    0.34    0.19
 -12  22 -10   -0.06    0.16
  22  10  12    0.07    0.19
 -10 -12  22    0.03    0.17
 -12  22  12    0.03    0.15
 -12  12  22    0.20    0.16
  12 -12  22   -0.04    0.18
 -22  12  12    0.19    0.16
  22  12 -12    0.18    0.16
  22 -12  12   -0.19    0.18
 -12 -12  22   -0.06    0.17
  12  12  22    0.25    0.21
  22  12  12    0.36    0.22
 -12 -22  12   -0.02    0.16
 -12  22 -12    0.13    0.19
  12  22  12    0.26    0.19
  14 -12  22    0.23    0.21
  22 -14  12    0.37    0.21
  22  14 -12    0.05    0.16
 -14  12  22    0.52    0.23
 -12  22  14   -0.01    0.15
  12 -22  14    0.11    0.21
 -22  14  12    0.26    0.18
  12  22  14    0.14    0.17
 -12  22 -14    0.10    0.15
 -12 -22  14    0.05    0.18
 -14 -12  22    0.29    0.21
  14  12  22    0.13    0.20
  22  14  12    0.08    0.20
  12 -22  16    0.24    0.21
  22 -16  12    0.34    0.23
 -22  16  12    0.02    0.17
  22  16 -12    0.23    0.19
 -16  12  22    0.16    0.19
 -12  22  16   -0.03    0.16
  16 -12  22    0.16    0.21
 -16 -12  22    0.05    0.18
 -12 -22  16    0.07    0.18
  16  12  22   -0.14    0.18
 -12  22 -16   -0.14    0.14
  22  16  12    0.29    0.24
  12  22  16   -0.05    0.17
 -22  18  12    0.65    0.24
 -18  12  22    0.40    0.25
  22  18 -12    0.35    0.21
  12 -22  18    0.16    0.22
  18 -12  22    0.53    0.27
  22 -18  12    0.34    0.23
 -12  22  18    0.70    0.24
 -18 -12  22    0.45    0.27
 -12  22 -18    0.63    0.25
 -12 -22  18    0.49    0.24
  18  12  22    0.81    0.26
  22  18  12    0.23    0.24
  12  22  18    0.59    0.25
 -20  12  22    0.10    0.19
  12 -22  20    0.31    0.23
 -22  20  12    0.14    0.18
 -12  22  20    0.26    0.22
  22  20 -12    0.16    0.20
  22 -20  12    0.30    0.23
  22  20  12   -0.06    0.20
 -12  22 -20    0.08    0.18
  12  22  20    0.25    0.25
  20  12  22    0.55    0.28
 -12 -22  20   -0.07    0.22
  22   0  14    0.62    0.22
  22   0 -14    0.72    0.22
  14  22   0    0.56    0.19
  22   0  14    0.86    0.21
   0 -14  22    0.84    0.25
 -14  22   0    0.75    0.21
   0  14 -22    0.89    0.21
   0  14  22    1.26    0.27
 -14  22   2   15.90    0.75
  -2  14  22   14.44    0.75
  14  22  -2   16.66    0.73
   2 -14  22   16.05    0.81
 -22   2  14   15.01    0.75
  22   2 -14   17.81    0.83
  22  -2  14   16.27    0.81
  22   2  14   14.99    0.80
  22   2  14   14.82    0.73
  14  22   2   15.94    0.74
  -2 -14  22   15.98    0.82
   2  14  22   17.65    0.81
  -2  14 -22   16.54    0.77
  22  -2 -14   17.33    0.80
 -14  22  -2   15.55    0.76
  14  22  -4    0.20    0.15
  22  -4  14    0.10    0.15
 -22   4  14    0.22    0.15
  14  22  -4    0.42    0.17
 -14  22   4    0.13    0.14
  22   4 -14    0.22    0.18
   4 -14  22   -0.15    0.15
  -4  14  22    0.18    0.16
 -14  22   4    0.01    0.14
   4  14  22    0.34    0.22
  22   4  14    0.14    0.17
  22  -4 -14    0.06    0.17
  22   4  14    0.27    0.19
  14  22   4    0.07    0.16
  -4  14 -22    0.12    0.16
  -4 -14  22    0.06    0.21
 -14  22  -4    0.49    0.19
  14  22  -6   17.82    0.78
 -14  22   6   18.68    0.79
 -22   6  14   17.45    0.82
 -14  22   6   18.10    0.79
  -6  14  22   18.90    0.86
  22  -6  14   16.66    0.84
   6 -14  22   16.56    0.84
  22   6 -14   16.02    0.83
 -14  22  -6   17.25    0.83
  -6 -14  22   17.70    0.89
  14  22   6   16.37    0.79
   6  14  22   16.73    0.82
  22   6  14   18.52    0.84
  22  -6 -14   17.61    0.81
  22   6  14   16.74    0.84
 -22  -6  14   16.05    0.83
  -8  14  22    1.05    0.26
  14  22  -8    1.04    0.22
 -14  22   8    1.13    0.24
 -22   8  14    0.85    0.22
   8 -14  22    0.76    0.25
  22   8 -14    0.94    0.25
  22  -8  14    1.30    0.28
 -14  22  -8    0.62    0.24
  -8 -14  22    1.23    0.30
  22   8  14    1.18    0.26
   8  14  22    1.17    0.27
  22  -8 -14    1.08    0.25
 -22  -8  14    0.64    0.23
  14  22   8    0.70    0.21
  22   8  14    1.04    0.26
  10 -14  22   13.02    0.74
 -22  10  14   13.02    0.71
 -10  14  22   12.95    0.72
  22 -10  14   11.36    0.70
 -14  22  10   13.22    0.70
 -14  22 -10   14.32    0.76
 -22 -10  14   13.47    0.75
 -10 -14  22   13.53    0.77
  10  14  22   13.67    0.74
  22  10  14   13.82    0.75
  14  22  10   11.98    0.69
  22  10  14   12.33    0.72
 -22  12  14    0.44    0.19
  22 -12  14   -0.09    0.20
 -12  14  22    0.41    0.22
 -14  22  12    0.30    0.18
  12 -14  22    0.24    0.22
 -22 -12  14    0.07    0.18
  12  14  22    0.03    0.20
  22  12  14    0.24    0.22
 -14  22 -12    0.08    0.17
 -12 -14  22    0.02    0.20
  14  22  12    0.01    0.15
 -14 -22  12    0.14    0.18
 -14  14  22   10.67    0.66
  14 -22  14    9.91    0.62
  14 -14  22   10.75    0.69
  22 -14  14   11.15    0.70
 -22  14  14   10.44    0.65
 -14  22  14   10.69    0.67
  14  22  14   11.17    0.68
 -14 -22  14    9.79    0.63
 -14 -14  22    9.50    0.66
  14  14  22   11.06    0.68
 -22 -14  14    9.05    0.65
  22  14  14   10.85    0.69
 -14  22 -14    9.35    0.65
 -16  14  22    0.90    0.26
  22 -16  14    0.83    0.27
  14 -22  16    0.38    0.24
  16 -14  22    0.49    0.26
 -14  22  16    0.11    0.20
 -14  22 -16    0.66    0.24
 -14 -22  16    0.56    0.23
 -16 -14  22    0.79    0.27
 -22 -16  14    0.96    0.27
  14  22  16    0.89    0.26
  22  16  14    0.52    0.26
  16  14  22    0.56    0.26
  18 -14  22    7.76    0.62
  22 -18  14    8.53    0.63
 -18  14  22    7.10    0.58
 -14  22  18    7.86    0.62
  14 -22  18    7.63    0.60
 -22  18  14    7.17    0.57
  22  18  14    8.17    0.66
  14  22  18    5.83    0.55
 -14  22 -18    7.35    0.60
 -14 -22  18    8.42    0.62
  18  14  22    8.57    0.65
 -22 -18  14    7.92    0.63
 -18 -14  22    8.14    0.67
 -22  20  14    0.08    0.18
 -14  22  20    0.04    0.21
  22  20 -14    0.11    0.21
  14 -22  20    0.11    0.24
  22 -20  14    0.14    0.28
 -20  14  22    0.05    0.22
 -14  22 -20   -0.25    0.16
 -22 -20  14    0.18    0.23
  14  22  20   -0.17    0.21
  20  14  22    0.00    0.21
  22  20  14    0.47    0.28
   0  16 -22    0.09    0.16
 -16  22   0   -0.17    0.14
 -22   0  16   -0.01    0.15
   0 -16  22    0.09    0.16
   0  16  22    0.02    0.19
  22   0  16    0.08    0.16
  22   0 -16    0.14    0.19
  16  22   0    0.36    0.17
  16  22  -2    0.66    0.21
 -22   2  16    0.41    0.21
  22  -2  16    0.36    0.20
  -2  16  22    0.32    0.21
 -16  22   2    0.15    0.18
  22   2 -16    0.21    0.18
   2 -16  22    0.28    0.21
  -2  16 -22    0.34    0.18
  22   2  16    0.47    0.21
  16  22   2    0.47    0.19
 -16  22  -2    0.59    0.21
  22  -2 -16    0.47    0.22
  22   2  16    0.58    0.21
   2  16  22    0.44    0.22
  -2 -16  22    0.70    0.24
  22   4 -16    0.11    0.18
  -4  16  22    0.29    0.20
 -16  22   4    0.22    0.19
  22  -4  16    0.18    0.20
   4 -16  22    0.22    0.20
 -22   4  16    0.00    0.16
  16  22  -4    0.25    0.17
   4  16  22   -0.03    0.18
  -4  16 -22    0.11    0.16
  22   4  16    0.25    0.17
 -22  -4  16    0.25    0.17
  16  22   4    0.14    0.16
  22  -4 -16    0.32    0.20
 -16  22  -4   -0.10    0.15
  22   4  16    0.24    0.21
  -4 -16  22    0.29    0.22
  -6  16  22    1.23    0.29
  22  -6  16    1.02    0.25
 -16  22   6    0.63    0.20
   6 -16  22    0.51    0.23
 -22   6  16    0.84    0.24
  16  22  -6    1.08    0.23
 -22  -6  16    1.15    0.26
  22   6  16    0.97    0.26
  16  22   6    0.69    0.22
  -6 -16  22    0.78    0.25
  22   6  16    0.36    0.22
   6  16  22    1.04    0.27
  -6  16 -22    1.15    0.26
 -16  22  -6    0.79    0.23
  22  -6 -16    0.58    0.22
 -22   8  16    0.15    0.17
   8 -16  22    0.50    0.23
  -8  16  22    0.03    0.17
 -16  22   8    0.12    0.17
  22  -8  16   -0.07    0.20
 -16  22  -8    0.19    0.18
  -8 -16  22    0.22    0.20
   8  16  22   -0.08    0.17
  22  -8 -16    0.20    0.19
  22   8  16   -0.07    0.15
  16  22   8    0.21    0.19
  22   8  16    0.12    0.17
 -22  -8  16    0.20    0.19
 -10  16  22    0.85    0.28
  22 -10  16    0.87    0.28
 -16  22  10    0.91    0.24
  10 -16  22    1.57    0.31
 -22  10  16    0.79    0.24
 -16  22 -10    0.91    0.25
  16  22  10    0.64    0.22
 -22 -10  16    1.09    0.28
 -10 -16  22    1.03    0.28
  22  10  16    1.23    0.27
  10  16  22    0.86    0.28
 -12  16  22    0.09    0.18
 -22  12  16   -0.07    0.13
 -16  22  12    0.21    0.17
  12 -16  22    0.36    0.23
  22 -12  16    0.17    0.22
 -16 -22  12    0.09    0.17
  22  12  16   -0.11    0.18
  12  16  22   -0.22    0.19
 -22 -12  16    0.37    0.20
  16  22  12   -0.13    0.14
 -12 -16  22    0.04    0.22
 -16  22 -12   -0.05    0.16
  22 -14  16    0.75    0.28
  14 -16  22    0.52    0.25
 -22  14  16    0.72    0.23
 -16  22  14    0.53    0.21
  16 -22  14    0.81    0.27
 -14  16  22    0.78    0.27
  16  22  14    0.99    0.27
 -22 -14  16    0.31    0.24
 -16 -22  14    0.87    0.26
 -16  22 -14    0.84    0.27
  14  16  22    0.85    0.29
 -14 -16  22    0.48    0.25
  22  14  16    0.60    0.26
 -16  22  16    0.02    0.17
 -16  16  22    0.12    0.19
  16 -22  16    0.11    0.22
 -22  16  16    0.35    0.21
  22 -16  16    0.15    0.27
  16 -16  22    0.22    0.25
 -16 -22  16    0.08    0.21
 -16 -16  22   -0.04    0.19
 -16  22 -16   -0.07    0.20
 -22 -16  16    0.07    0.23
  16  16  22    0.32    0.25
  22  16  16   -0.15    0.20
  16  22  16    0.31    0.22
 -16  22  18    0.12    0.18
  16 -22  18   -0.27    0.23
 -22  18  16    0.11    0.19
 -18  16  22    0.01    0.22
  16  22  18   -0.03    0.22
 -16 -22  18    0.12    0.25
 -16  22 -18    0.26    0.22
  18  16  22    0.01    0.24
  22  18  16   -0.19    0.22
   0  18 -22    0.19    0.17
 -18  22   0   -0.25    0.16
  18  22   0    0.00    0.15
  22   0  18    0.12    0.17
  22   0 -18    0.12    0.19
   0  18  22    0.35    0.20
 -22   0  18    0.14    0.18
   0 -18  22   -0.21    0.19
   2 -18  22    9.91    0.65
 -18  22   2    9.49    0.58
  -2  18  22    9.70    0.64
  22  -2  18   10.66    0.67
 -22   2  18   10.40    0.63
  18  22  -2    9.29    0.59
  22   2  18   10.34    0.66
  -2 -18  22    9.56    0.65
  18  22   2    9.41    0.60
   2  18  22    9.40    0.62
 -22  -2  18    9.57    0.62
 -18  22  -2    9.31    0.60
  22  -2 -18    9.09    0.61
  -2  18 -22    9.32    0.60
   4 -18  22    0.76    0.26
  -4  18  22    0.59    0.23
  22  -4  18    1.28    0.29
 -22   4  18    0.97    0.27
  18  22  -4    0.92    0.23
  18  22   4    0.70    0.24
  -4  18 -22    0.75    0.23
  22  -4 -18    0.57    0.23
  -4 -18  22    0.48    0.24
 -22  -4  18    0.94    0.26
  22   4  18    1.29    0.30
   4  18  22    1.27    0.29
 -18  22  -4    0.66    0.22
  22   4  18    0.66    0.23
 -22   6  18   11.39    0.68
 -18  22   6   12.30    0.66
   6 -18  22   11.84    0.71
  22  -6  18   12.44    0.75
  -6  18  22   12.36    0.74
   6  18  22   12.12    0.73
  -6  18 -22   12.31    0.71
 -18  22  -6   11.47    0.68
  18  22   6   12.50    0.72
  -6 -18  22   11.88    0.74
  22  -6 -18   10.52    0.66
 -22  -6  18   12.37    0.73
  22   6  18   11.93    0.69
  22   6  18   12.79    0.73
 -22   8  18    0.02    0.16
  -8  18  22    0.19    0.22
  22  -8  18    0.34    0.23
 -18  22   8    0.03    0.16
   8 -18  22   -0.14    0.18
 -22  -8  18    0.09    0.18
  22   8  18   -0.08    0.20
  18  22   8   -0.10    0.17
  22   8  18    0.10    0.19
  -8  18 -22    0.01    0.16
   8  18  22   -0.10    0.19
 -18  22  -8    0.13    0.19
  -8 -18  22    0.02    0.18
 -18  22  10    8.60    0.59
 -10  18  22    8.43    0.63
  22 -10  18    9.15    0.66
  10 -18  22    9.78    0.65
 -22  10  18    8.70    0.60
  18  22  10    8.96    0.62
 -10 -18  22    9.57    0.67
 -18  22 -10    7.98    0.60
  10  18  22    9.72    0.66
 -22 -10  18    9.34    0.67
  22  10  18    9.37    0.64
  22 -12  18    0.73    0.29
  12 -18  22    0.87    0.29
 -22  12  18    0.43    0.22
 -12  18  22    0.50    0.25
 -18  22  12    0.59    0.23
 -22 -12  18    0.29    0.25
  18  22  12    0.85    0.27
  12  18  22    0.54    0.27
 -18  22 -12    0.57    0.26
 -12 -18  22    0.73    0.28
  22  12  18    0.33    0.25
 -14  18  22    7.96    0.62
  14 -18  22    7.97    0.63
 -22  14  18    7.43    0.58
  22 -14  18    6.33    0.58
 -18  22  14    8.15    0.61
  18  22  14    7.59    0.62
 -18  22 -14    8.04    0.63
  14  18  22    7.54    0.60
 -14 -18  22    7.43    0.61
 -22 -14  18    7.34    0.64
 -18 -22  14    8.47    0.62
  22  14  18    7.61    0.63
  18 -22  16    0.32    0.25
 -18  22  16   -0.22    0.18
 -16  18  22    0.01    0.19
 -22  16  18    0.41    0.22
  22  16  18   -0.03    0.25
  18  22  16    0.25    0.22
 -18 -22  16    0.13    0.25
  16  18  22    0.25    0.28
 -18  22 -16    0.27    0.22
   0  20  22   -0.19    0.19
  20  22   0    0.02    0.18
  22   0  20   -0.06    0.19
   0 -20  22    0.16    0.20
   0  20 -22    0.01    0.17
 -22   0  20    0.17    0.18
 -22   0  20   -0.01    0.16
 -22   2  20   -0.07    0.19
   2 -20  22    0.18    0.21
  20  22  -2    0.11    0.18
  -2  20  22    0.21    0.23
  22  -2  20    0.18    0.20
 -22  -2  20    0.20    0.17
  -2 -20  22    0.03    0.21
   2  20  22    0.54    0.27
  20  22   2    0.83    0.23
  22  -2 -20    0.34    0.21
  -2  20 -22    0.56    0.23
 -20  22  -2    0.22    0.20
  22   2  20    0.50    0.24
  20  22  -4    0.26    0.19
   4 -20  22    0.18    0.22
  22  -4  20    0.15    0.19
  -4  20  22    0.01    0.20
 -22   4  20    0.52    0.22
 -20  22  -4    0.38    0.21
  20  22   4    0.14    0.19
  -4  20 -22    0.24    0.20
   4  20  22   -0.13    0.19
 -22  -4  20    0.17    0.19
  -4 -20  22    0.35    0.23
  22  -4 -20    0.18    0.21
  22   4  20    0.75    0.26
 -22   6  20    0.25    0.22
 -20  22   6    0.34    0.19
  -6  20  22    0.20    0.21
  22  -6  20    0.39    0.22
   6 -20  22    0.05    0.22
  -6  20 -22    0.31    0.20
  22  -6 -20    0.22    0.20
  20  22   6   -0.25    0.16
  -6 -20  22    0.38    0.23
 -20  22  -6    0.41    0.22
   6  20  22    0.21    0.23
 -22  -6  20    0.21    0.20
  22   6  20    0.22    0.23
  22   6  20    0.34    0.24
 -20  22   8    0.12    0.19
   8 -20  22    0.18    0.22
 -22   8  20    0.00    0.18
  22  -8  20   -0.03    0.14
  -8  20  22   -0.27    0.14
  20  22   8   -0.22    0.17
 -22  -8  20    0.05    0.17
  -8  20 -22    0.22    0.19
   8  20  22   -0.10    0.19
  22   8  20    0.19    0.21
 -20  22  -8    0.22    0.22
  -8 -20  22    0.12    0.20
 -10  20  22    0.30    0.21
 -20  22  10   -0.25    0.14
 -22  10  20    0.30    0.21
  10 -20  22    0.28    0.21
  22 -10  20   -0.13    0.23
  22  10  20    0.21    0.23
  10  20  22    0.01    0.22
 -20  22 -10    0.32    0.23
 -10  20 -22    0.10    0.21
 -10 -20  22    0.08    0.21
 -22 -10  20    0.67    0.27
  20  22  10   -0.25    0.17
 -22  12  20    0.06    0.21
 -12  20  22    0.23    0.19
  12 -20  22    0.29    0.24
 -20  22  12    0.17    0.20
 -12 -20  22   -0.01    0.24
  20  22  12   -0.06    0.20
 -20  22 -12   -0.02    0.18
  22  12  20    0.06    0.22
  12  20  22    0.16    0.25
 -14  20  22   -0.07    0.19
 -20  22  14   -0.01    0.19
 -22  14  20    0.05    0.14
  20  22  14    0.15    0.20
  22  14  20    0.07    0.27
 -20 -22  14    0.11    0.25
  14  20  22    0.10    0.23
 -20  22 -14    0.44    0.28
  22  22   0    6.89    0.56
   0  22 -22    7.35    0.56
 -22   0  22    7.91    0.59
   0  22  22    8.05    0.61
   0 -22  22    7.57    0.58
 -22   0  22    7.60    0.60
  22   0  22    8.26    0.63
  -2  22  22   10.80    0.71
  22  -2  22   10.79    0.72
 -22   2  22   10.06    0.67
 -22   2  22    9.31    0.63
  22  22  -2    8.97    0.62
   2 -22  22   11.26    0.71
  -2  22 -22   10.73    0.68
  22  22   2   10.11    0.69
  -2 -22  22   10.00    0.68
 -22  -2  22   11.00    0.72
  22   2  22    9.83    0.69
   2  22  22    9.66    0.68
  22  -2 -22   10.61    0.69
  22  22  -4    1.49    0.30
  22  -4  22    1.66    0.34
 -22   4  22    1.95    0.35
  -4  22  22    1.67    0.34
   4 -22  22    2.19    0.36
  22   4  22    2.21    0.39
  22  22   4    2.04    0.35
  -4 -22  22    1.50    0.33
  22  -4 -22    1.87    0.34
 -22  22  -4    1.20    0.29
 -22  -4  22    1.96    0.35
   4  22  22    1.64    0.33
  -4  22 -22    2.08    0.35
  22  -6  22   16.27    0.92
  -6  22  22   14.86    0.87
   6 -22  22   15.11    0.84
 -22   6  22   14.82    0.84
   6  22  22   14.30    0.85
 -22  22  -6   16.59    0.88
  -6 -22  22   15.33    0.86
 -22  -6  22   14.77    0.87
  22  22   6   16.54    0.90
  22   6  22   16.90    0.90
  -6  22 -22   17.17    0.90
 -22   8  22    2.25    0.37
  -8  22  22    2.89    0.42
   8 -22  22    2.08    0.36
 -22  22   8    2.45    0.36
   8  22  22    3.13    0.44
  -8  22 -22    2.45    0.38
  22  22   8    3.35    0.44
 -22  22  -8    2.44    0.38
  22   8  22    3.25    0.43
  -8 -22  22    2.80    0.41
  10 -22  22   11.58    0.76
 -22  22  10   11.97    0.73
 -10  22  22   11.35    0.75
 -22  10  22   11.44    0.74
  22  10  22   11.21    0.76
 -10  22 -22   10.76    0.74
 -22  22 -10   12.94    0.79
  22  22  10   11.01    0.76
  10  22  22   11.16    0.74
  -1   1  23   -0.04    0.09
  -1   1  23   -0.07    0.09
   1  -1  23    0.00    0.12
   1  23  -1    0.12    0.12
  23  -1   1   -0.03    0.13
  23   1  -1    0.01    0.14
  -1  23   1    0.07    0.14
   1  23   1   -0.17    0.13
   1  23   1   -0.02    0.12
  23   1   1    0.32    0.14
   1   1  23    0.13    0.11
  23  -1  -1    0.12    0.13
  -1  23  -1    0.00    0.13
  -1  -1  23   -0.11    0.12
   3  -1  23    1.39    0.25
  23  -3   1    1.85    0.28
  -3   1  23    2.19    0.28
  -3   1  23    1.82    0.22
   1  23  -3    2.06    0.27
  -1  23   3    1.98    0.26
  23   3  -1    1.59    0.25
  -1  23   3    1.76    0.26
  -1  23  -3    2.57    0.29
   1  23   3    1.58    0.25
   3   1  23    2.02    0.27
  23  -3  -1    2.46    0.30
   1  23   3    1.56    0.24
  23   3   1    1.90    0.26
  -3  -1  23    1.83    0.27
  23   5  -1    0.12    0.15
  -1  23   5    0.04    0.13
  -1  23   5    0.13    0.16
   1  23  -5    0.34    0.15
   5  -1  23   -0.09    0.13
  23  -5   1    0.07    0.15
  -5   1  23    0.10    0.14
  -5   1  23    0.18    0.13
   5   1  23    0.12    0.16
  23  -5  -1    0.31    0.17
  -1  23  -5   -0.03    0.11
   1  23   5    0.09    0.15
   1  23   5    0.10    0.14
  23   5   1   -0.04    0.12
  -5  -1  23   -0.09    0.10
   1  23  -7    0.58    0.19
  23   7  -1    0.92    0.22
  -1  23   7    0.65    0.21
   7  -1  23    0.52    0.20
  -7   1  23    0.32    0.18
  -1  23   7    0.54    0.19
  23  -7   1    0.56    0.20
  -7   1  23    0.55    0.17
   7   1  23    0.42    0.18
  -7  -1  23    0.27    0.16
  23   7   1    0.92    0.22
  -7  -1  23    0.71    0.20
   1  23   7    1.05    0.22
  23  -7  -1    0.73    0.21
  -1  23  -7    0.53    0.18
   9  -1  23    0.15    0.15
   1  23  -9    0.08    0.16
  23   9  -1    0.10    0.16
  23  -9   1   -0.13    0.16
  -9   1  23   -0.03    0.14
  -1  23   9    0.53    0.20
  -9   1  23    0.07    0.15
  -1  23   9   -0.03    0.14
  -9  -1  23   -0.15    0.13
   1  23   9    0.28    0.17
  -9  -1  23    0.11    0.15
   9   1  23    0.26    0.18
  -1  23  -9    0.14    0.17
  23   9   1    0.19    0.16
  23  -9  -1    0.00    0.15
   1  23 -11   -0.38    0.13
  -1  23  11    0.26    0.19
  23  11  -1    0.41    0.18
 -11   1  23   -0.16    0.13
 -11   1  23   -0.10    0.12
  23 -11   1    0.01    0.16
  11  -1  23    0.07    0.16
 -11  -1  23    0.01    0.15
  11   1  23    0.03    0.12
 -11  -1  23   -0.13    0.13
  -1  23 -11   -0.23    0.13
   1  23  11    0.32    0.18
  23 -11  -1    0.13    0.16
  23  11   1    0.31    0.18
 -13   1  23   -0.02    0.12
   1  23 -13    0.03    0.15
  23 -13   1   -0.14    0.17
  23  13  -1   -0.11    0.13
  -1  23  13    0.06    0.17
  13  -1  23   -0.07    0.14
 -13   1  23    0.03    0.14
   1  23  13    0.07    0.16
  23 -13  -1   -0.09    0.17
  13   1  23    0.09    0.14
 -13  -1  23   -0.07    0.14
 -13  -1  23   -0.08    0.13
  -1  23 -13   -0.07    0.15
  23  13   1    0.13    0.16
   1  23 -15    0.19    0.19
  -1  23  15    0.16    0.17
  23  15  -1    0.10    0.17
 -15   1  23    0.55    0.21
  23 -15   1    0.23    0.20
   1 -23  15    0.08    0.17
  15  -1  23    0.06    0.17
 -23  15   1    0.07    0.15
 -15   1  23   -0.04    0.15
  -1  23 -15    0.02    0.15
  15   1  23    0.03    0.16
  23 -15  -1    0.03    0.18
  -1 -23  15    0.24    0.19
 -15  -1  23    0.19    0.18
   1  23  15    0.11    0.19
  23  15   1    0.28    0.19
 -15  -1  23    0.01    0.15
 -17   1  23    0.26    0.19
  17  -1  23    0.04    0.19
  23  17  -1    0.46    0.23
  23  17  -1    0.25    0.18
   1 -23  17    0.17    0.19
   1  23 -17    0.07    0.17
 -17   1  23    0.10    0.16
  -1  23  17    0.10    0.19
  17   1  23   -0.12    0.18
 -17  -1  23    0.22    0.20
  -1  23 -17    0.00    0.16
   1  23  17   -0.03    0.16
  23  17   1    0.11    0.20
  -1 -23  17    0.30    0.20
 -17  -1  23    0.15    0.19
   1  23 -19    0.62    0.24
 -19   1  23    0.14    0.19
  23  19  -1    0.04    0.17
 -19   1  23    0.24    0.20
  -1  23  19    0.68    0.25
  19  -1  23    0.45    0.22
   1 -23  19    0.62    0.24
 -19  -1  23    0.32    0.22
  -1  23 -19    0.12    0.20
 -19  -1  23    0.39    0.20
  23  19   1    0.10    0.20
  -1 -23  19    0.49    0.23
   1  23  19    0.19    0.20
  19   1  23    0.39    0.22
  23  21  -1    0.02    0.19
  21  -1  23    0.10    0.21
 -21   1  23    0.05    0.20
 -21   1  23   -0.12    0.18
  -1  23  21   -0.31    0.17
   1 -23  21    0.12    0.22
   1  23 -21    0.40    0.21
  23  21   1   -0.12    0.20
 -21  -1  23   -0.19    0.19
  -1  23 -21    0.15    0.22
  21   1  23    0.07    0.20
 -21  -1  23   -0.16    0.15
  -1 -23  21   -0.01    0.22
   1  23  21   -0.07    0.20
  -1   3  23    1.65    0.25
  -1   3  23    2.31    0.24
  -3  23   1    1.70    0.26
   1  -3  23    1.32    0.25
  23   1  -3    1.87    0.27
  23  -1   3    2.00    0.28
   3  23  -1    1.98    0.26
  23   1   3    2.39    0.29
   1   3  23    1.67    0.21
  23  -1  -3    1.36    0.23
  -3  23  -1    2.09    0.28
   1   3  23    2.11    0.27
   3  23   1    1.89    0.25
  -1  -3  23    1.69    0.28
   3  23   1    1.73    0.25
  -3   3  23    0.06    0.12
   3  -3  23    0.01    0.13
  -3  23   3   -0.18    0.10
  23   3  -3    0.07    0.12
  -3   3  23    0.02    0.12
  23  -3   3   -0.18    0.14
   3  23  -3   -0.03    0.12
  -3  23   3    0.70    0.19
   3   3  23    0.04    0.13
   3  23   3   -0.15    0.12
  23  -3  -3    0.08    0.14
  -3  -3  23    0.55    0.19
  23   3   3    0.04    0.14
  -3  23  -3    0.04    0.15
   3   3  23   -0.05    0.11
   3  23   3    0.05    0.15
   3  23  -5    1.24    0.24
  -5   3  23    1.35    0.22
   5  -3  23    1.19    0.24
  23   5  -3    1.61    0.25
  23  -5   3    1.22    0.27
  -5   3  23    0.94    0.19
  -3  23   5    1.60    0.24
  -3  23   5    1.23    0.23
   5   3  23    1.33    0.20
  23   5   3    1.18    0.24
  -5  -3  23    1.36    0.25
  -3  23  -5    0.97    0.21
   5   3  23    0.96    0.22
   3  23   5    1.14    0.23
  23  -5  -3    1.32    0.24
  23  -7   3   -0.24    0.13
   7  -3  23   -0.18    0.10
   3  23  -7    0.18    0.13
  -7   3  23    0.02    0.13
  -3  23   7    0.04    0.14
  -3  23   7   -0.12    0.13
  23   7  -3    0.13    0.14
  -7   3  23   -0.06    0.12
   7   3  23    0.01    0.13
   3  23   7   -0.12    0.13
  23  -7  -3    0.06    0.14
  -7  -3  23   -0.08    0.11
  -3  23  -7   -0.33    0.12
   7   3  23    0.06    0.13
  23   7   3   -0.01    0.13
   3  23  -9   -0.01    0.13
  23  -9   3   -0.12    0.16
  -3  23   9    0.20    0.17
  -3  23   9    0.00    0.15
   9  -3  23    0.20    0.17
  -9   3  23    0.06    0.12
  23   9  -3    0.01    0.16
  -9   3  23   -0.15    0.12
   9   3  23    0.34    0.17
  -9  -3  23   -0.14    0.14
  -3  23  -9    0.02    0.12
   3  23   9   -0.24    0.12
  23   9   3    0.15    0.16
  23  -9  -3    0.30    0.17
  23 -11   3    0.05    0.18
  11  -3  23   -0.07    0.14
   3  23 -11   -0.01    0.15
  23  11  -3    0.51    0.20
 -23  11   3    0.22    0.15
  -3  23  11    0.06    0.15
 -11   3  23    0.03    0.16
  -3  23  11    0.25    0.18
 -11   3  23    0.30    0.14
  -3  23 -11    0.13    0.16
  11   3  23    0.21    0.17
 -11  -3  23    0.04    0.15
   3  23  11   -0.03    0.14
  23  11   3    0.34    0.18
  23 -11  -3    0.09    0.17
 -23  13   3    0.23    0.16
  23  13  -3    0.23    0.17
 -13   3  23    0.12    0.17
  23 -13   3    0.32    0.20
 -13   3  23    0.50    0.18
  13  -3  23    0.74    0.25
   3  23 -13   -0.23    0.16
  -3  23  13    0.34    0.20
  -3  23 -13    0.28    0.18
  23 -13  -3    0.14    0.18
  23  13   3    0.43    0.20
 -13  -3  23    0.41    0.19
 -13  -3  23    0.33    0.18
   3  23  13    0.49    0.21
  13   3  23    0.45    0.21
  23  15  -3   -0.01    0.16
  -3  23  15    0.12    0.17
 -15   3  23   -0.26    0.13
 -15   3  23    0.02    0.16
  15  -3  23    0.12    0.15
 -23  15   3    0.39    0.18
   3 -23  15   -0.02    0.16
   3  23 -15   -0.20    0.13
  23 -15   3    0.09    0.19
  23  15   3    0.33    0.19
  -3  23 -15   -0.06    0.14
   3  23  15    0.35    0.19
 -15  -3  23    0.13    0.15
 -15  -3  23    0.01    0.16
  -3 -23  15    0.12    0.17
  15   3  23    0.01    0.16
  23  15   3    0.32    0.19
   3  23 -17    0.60    0.22
  23  17  -3    0.94    0.26
 -17   3  23    1.21    0.26
 -17   3  23    0.70    0.23
   3 -23  17    0.35    0.22
  -3  23  17    0.71    0.25
  23 -17   3    0.33    0.24
  17  -3  23    0.57    0.24
 -23  17   3    0.69    0.20
 -23  17  -3    0.87    0.24
 -17  -3  23    0.83    0.24
  -3  23 -17    0.79    0.25
  23  17   3    0.59    0.24
  17   3  23    1.17    0.27
 -17  -3  23    0.71    0.24
   3  23  17    0.81    0.24
  -3 -23  17    0.47    0.23
   3 -23  19    0.08    0.19
  23  19  -3    0.32    0.20
  -3  23  19    0.04    0.19
 -19   3  23    0.40    0.21
 -19   3  23    0.23    0.20
   3  23 -19    0.27    0.19
  19  -3  23    0.24    0.21
  19   3  23    0.21    0.19
  23  19   3    0.18    0.20
   3  23  19    0.59    0.25
 -19  -3  23    0.11    0.17
 -19  -3  23   -0.09    0.17
  -3 -23  19    0.14    0.20
  -3  23 -19    0.45    0.21
   3 -23  21    0.24    0.24
  -3  23  21    0.02    0.20
  23  21  -3   -0.16    0.18
 -21   3  23   -0.17    0.18
  21  -3  23   -0.33    0.18
 -21   3  23    0.06    0.17
  23  21   3   -0.02    0.20
 -21  -3  23   -0.28    0.16
  21   3  23    0.02    0.20
  -3 -23  21    0.16    0.23
  -3  23 -21   -0.13    0.17
   3  23  21    0.05    0.20
  -5  23   1    0.07    0.14
  23   1  -5    0.06    0.16
  -1   5  23    0.08    0.13
   5  23  -1    0.13    0.12
   1  -5  23   -0.01    0.12
  -1   5  23    0.07    0.12
  23  -1   5    0.00    0.15
  23   1   5    0.11    0.14
   5  23   1   -0.15    0.13
   1   5  23    0.18    0.12
   1   5  23   -0.14    0.11
  -5  23  -1   -0.08    0.12
  -1  -5  23    0.05    0.12
  23  -1  -5    0.07    0.13
   5  23   1    0.00    0.13
  23  -3   5    0.79    0.24
  -5  23   3    1.38    0.25
  -3   5  23    1.27    0.21
  -3   5  23    1.53    0.23
   5  23  -3    1.46    0.24
  -5  23   3    1.22    0.22
   3  -5  23    1.49    0.26
  23   3  -5    1.10    0.22
  23  -3  -5    0.90    0.21
   3   5  23    1.48    0.22
   5  23   3    1.42    0.24
  -3  -5  23    1.29    0.24
  23   3   5    1.27    0.25
   3   5  23    1.45    0.24
  -5  23  -3    1.13    0.23
   5  23  -5   -0.01    0.11
  -5   5  23    0.15    0.14
  -5  23   5    0.04    0.13
   5  -5  23   -0.13    0.13
  23  -5   5   -0.20    0.15
  -5  23   5   -0.08    0.13
  -5   5  23   -0.09    0.10
  23   5  -5   -0.12    0.10
  23  -5  -5   -0.05    0.14
   5   5  23    0.12    0.13
  23   5   5    0.01    0.15
  -5  -5  23   -0.10    0.12
  -5  23  -5   -0.15    0.14
   5  23   5    0.10    0.14
   5   5  23   -0.12    0.12
  23   7  -5    1.54    0.26
  23  -7   5    0.96    0.25
  -5  23   7    1.08    0.23
  -7   5  23    1.18    0.22
   5  23  -7    1.02    0.22
  -7   5  23    1.46    0.23
   7  -5  23    1.15    0.24
  -5  23   7    1.65    0.25
  -5  23  -7    1.43    0.25
   7   5  23    1.21    0.22
   7   5  23    0.93    0.23
  23  -7  -5    1.22    0.25
   5  23   7    1.28    0.24
  23   7   5    1.39    0.27
  -7  -5  23    1.63    0.28
 -23   9   5   -0.01    0.13
  -9   5  23   -0.09    0.12
  -5  23   9    0.21    0.16
  23  -9   5   -0.07    0.17
   5  23  -9    0.13    0.15
  -9   5  23    0.02    0.16
  -5  23   9    0.00    0.17
   9  -5  23    0.04    0.15
  23   9  -5   -0.01    0.15
  -9  -5  23   -0.01    0.13
  23  -9  -5    0.26    0.17
  -5  23  -9    0.02    0.16
   9   5  23    0.07    0.16
   5  23   9    0.01    0.16
  23   9   5    0.25    0.17
   9   5  23    0.48    0.18
 -11   5  23    0.82    0.22
 -23  11   5    0.99    0.21
  23  11  -5    1.27    0.26
   5  23 -11    0.80    0.22
  11  -5  23    0.96    0.25
  23 -11   5    0.79    0.24
  -5  23  11    1.55    0.28
  -5  23  11    0.80    0.21
 -11   5  23    0.79    0.20
  11   5  23    1.17    0.23
 -11  -5  23    1.00    0.24
  11   5  23    1.20    0.25
  -5  23 -11    0.59    0.21
   5  23  11    1.20    0.26
  23 -11  -5    0.84    0.22
  23  11   5    1.11    0.26
  23  13  -5    0.16    0.18
 -13   5  23    0.77    0.22
   5  23 -13    0.41    0.18
  -5  23  13    0.29    0.21
  -5  23  13    0.19    0.17
 -13   5  23    0.23    0.18
 -23  13   5    0.14    0.15
  23 -13   5    0.46    0.21
  13  -5  23    0.04    0.15
 -13  -5  23    0.34    0.19
   5  23  13    0.20    0.16
  23 -13  -5    0.46    0.21
  13   5  23    0.17    0.16
  -5  23 -13    0.36    0.19
  23  13   5    0.45    0.19
  23  13   5    0.16    0.17
  13   5  23    0.44    0.19
  23 -15   5    0.78    0.25
  -5  23  15    0.31    0.21
  15  -5  23    1.20    0.28
  23  15  -5    0.85    0.25
   5  23 -15    0.39    0.19
 -15   5  23    0.48    0.20
  -5  23  15    0.50    0.22
 -15   5  23    0.57    0.21
   5 -23  15    0.54    0.22
 -23  15   5    0.95    0.23
   5  23  15    0.77    0.25
  15   5  23    0.78    0.24
  -5 -23  15    0.71    0.23
  23  15   5    0.53    0.22
 -15  -5  23    0.27    0.17
  -5  23 -15    0.83    0.23
   5 -23  17    0.15    0.20
  -5  23  17    0.23    0.21
  23 -17   5    0.18    0.20
 -23  17   5    0.32    0.20
 -17   5  23    0.03    0.16
   5  23 -17    0.23    0.19
 -17   5  23    0.01    0.16
  17  -5  23   -0.10    0.16
  23  17  -5    0.07    0.18
  17   5  23   -0.01    0.18
  -5  23 -17   -0.06    0.18
  -5 -23  17    0.27    0.20
   5  23  17    0.22    0.21
 -17  -5  23   -0.10    0.14
  23  17   5   -0.12    0.17
 -19   5  23    0.15    0.21
  -5  23  19    0.05    0.20
   5 -23  19    0.09    0.21
  19  -5  23    0.24    0.19
 -19   5  23    0.28    0.19
  23  19  -5    0.30    0.23
 -23  19   5    0.02    0.17
 -19  -5  23   -0.14    0.15
   5  23  19    0.32    0.21
 -23  19  -5   -0.07    0.17
  -5  23 -19   -0.28    0.15
  23  19   5    0.33    0.21
  19   5  23    0.10    0.19
  -5 -23  19    0.40    0.23
  23  21  -5    0.23    0.19
  21  -5  23   -0.04    0.21
  -5  23  21    0.15    0.23
 -21   5  23    0.07    0.22
   5 -23  21    0.00    0.19
   5  23  21   -0.18    0.17
  23  21   5   -0.13    0.19
  21   5  23   -0.06    0.22
 -21  -5  23    0.00    0.18
  21  -5 -23   -0.08    0.21
  -5  23 -21   -0.04    0.19
  -5 -23  21    0.10    0.22
 -23  21  -5   -0.06    0.20
   7  23  -1    0.75    0.18
  23   1  -7    0.58    0.20
  -7  23   1    0.50    0.18
  23  -1   7    0.79    0.22
   7  23  -1    0.49    0.18
  -1   7  23    0.40    0.16
   1  -7  23    0.74    0.21
  -7  23  -1    0.51    0.18
  23  -1  -7    0.65    0.21
  -1  -7  23    0.29    0.19
   7  23   1    0.59    0.18
  23   1   7    0.40    0.18
   1   7  23    0.44    0.17
  -7  23   3    0.05    0.12
  -7  23   3   -0.15    0.11
  23   3  -7   -0.05    0.16
   7  23  -3    0.23    0.15
   3  -7  23   -0.02    0.12
  -3   7  23    0.03    0.13
  23  -3   7   -0.12    0.15
  23   3   7   -0.14    0.12
   3   7  23    0.06    0.13
  23  -3  -7   -0.09    0.12
  -3  -7  23    0.13    0.16
   7  23   3   -0.06    0.11
  -7  23  -3   -0.11    0.15
  -7  23   5    0.96    0.22
  -7  23   5    1.16    0.23
  23  -5   7    0.42    0.22
   5  -7  23    1.59    0.27
  23   5  -7    0.98    0.24
   7  23  -5    1.20    0.23
  -5   7  23    0.80    0.21
  -5  -7  23    0.92    0.24
  23   5   7    1.66    0.28
   7  23   5    1.33    0.23
  23  -5  -7    1.37    0.25
  -7  23  -5    1.24    0.25
   5   7  23    0.74    0.20
   7  -7  23   -0.19    0.10
  -7  23   7   -0.15    0.13
  -7   7  23    0.12    0.16
 -23   7   7    0.06    0.12
  23   7  -7   -0.06    0.13
   7  23  -7   -0.05    0.12
  23  -7   7    0.03    0.16
  -7  23   7    0.07    0.13
  -7  23  -7   -0.15    0.14
   7  23   7    0.03    0.14
   7   7  23   -0.13    0.13
  23   7   7    0.03    0.16
  -7  -7  23   -0.03    0.14
  23  -7  -7    0.35    0.18
 -23   9   7    0.03    0.13
  -7  23   9    0.35    0.19
   9  -7  23    0.27    0.18
  -7  23   9   -0.04    0.15
  23  -9   7   -0.21    0.18
  -9   7  23    0.55    0.20
  23   9  -7    0.08    0.17
   7  23  -9    0.14    0.17
   9   7  23    0.20    0.18
  -7  23  -9    0.08    0.14
   7  23   9    0.34    0.18
  -9  -7  23    0.23    0.17
  23  -9  -7    0.33    0.18
  23   9   7    0.13    0.16
 -23  11   7    0.03    0.14
   7  23 -11   -0.03    0.13
  23  11  -7   -0.04    0.12
  -7  23  11    0.03    0.15
  -7  23  11    0.16    0.19
  11  -7  23   -0.22    0.12
  23 -11   7   -0.05    0.17
 -11   7  23   -0.07    0.16
  23  11   7    0.08    0.16
  -7  23 -11    0.26    0.16
  11   7  23    0.05    0.16
   7  23  11    0.16    0.17
  23  11   7    0.47    0.21
 -11  -7  23   -0.23    0.12
  23 -11  -7    0.03    0.16
  -7  23  13    0.01    0.17
  -7  23  13    0.12    0.17
 -23  13   7    0.02    0.14
  13  -7  23    0.28    0.20
   7  23 -13    0.07    0.15
  23  13  -7    0.12    0.17
 -13   7  23   -0.08    0.15
  23 -13   7   -0.24    0.15
   7  23  13    0.03    0.17
  23  13   7   -0.19    0.16
  -7  23 -13    0.01    0.15
  13   7  23   -0.01    0.16
 -13  -7  23    0.17    0.18
  23  13   7    0.04    0.17
   7  23 -15    0.15    0.17
  23 -15   7   -0.05    0.19
 -15   7  23   -0.12    0.16
  23  15  -7   -0.08    0.14
  15  -7  23   -0.02    0.14
  -7  23  15   -0.19    0.17
   7 -23  15    0.14    0.19
 -23  15   7   -0.02    0.15
 -15  -7  23   -0.06    0.14
  -7  23 -15    0.21    0.19
  15   7  23   -0.04    0.17
  -7 -23  15    0.15    0.17
   7  23  15   -0.11    0.16
  23  15   7    0.15    0.18
   7 -23  17    0.24    0.21
  -7  23  17    0.17    0.19
  17  -7  23   -0.10    0.16
 -23  17   7   -0.20    0.13
  23  17  -7    0.04    0.18
  23 -17   7    0.04    0.21
 -17   7  23    0.04    0.19
  -7  23 -17    0.18    0.18
  -7 -23  17   -0.03    0.16
 -17  -7  23    0.04    0.16
  23  17   7    0.05    0.18
  17   7  23    0.22    0.21
   7  23  17    0.20    0.21
 -19   7  23   -0.17    0.18
   7 -23  19   -0.03    0.20
  23  19  -7    0.24    0.20
 -23  19   7    0.02    0.15
  19  -7  23    0.07    0.15
  -7  23  19    0.21    0.21
  -7 -23  19   -0.12    0.19
  19   7  23    0.05    0.21
 -19  -7  23    0.12    0.17
  23  19   7    0.12    0.18
  -7  23 -19    0.07    0.17
   7  23  19    0.06    0.17
 -23  19  -7    0.01    0.17
 -21   7  23    0.02    0.21
 -23  21   7   -0.19    0.15
   7 -23  21   -0.12    0.20
  23  21  -7   -0.11    0.18
  -7  23  21   -0.06    0.19
  -7 -23  21    0.08    0.24
 -23  21  -7   -0.08    0.22
   7  23  21    0.10    0.20
  23  21   7    0.16    0.21
  -7  23 -21    0.24    0.21
   9  23  -1   -0.07    0.13
   1  -9  23    0.43    0.20
  -9  23   1   -0.11    0.14
  23  -1   9    0.20    0.18
  -1   9  23    0.18    0.15
  23   1  -9    0.29    0.18
   9  23  -1    0.13    0.14
  23   1   9    0.05    0.16
  -1  -9  23    0.16    0.17
   1   9  23    0.25    0.17
  23  -1  -9    0.27    0.19
  -9  23  -1   -0.07    0.18
   9  23   1    0.47    0.18
  23  -3   9   -0.03    0.15
  -9  23   3   -0.04    0.15
   9  23  -3   -0.03    0.14
   3  -9  23    0.09    0.18
  23   3  -9    0.13    0.17
  -3   9  23    0.03    0.15
   3   9  23    0.31    0.17
   9  23   3    0.27    0.17
  23  -3  -9   -0.16    0.14
  23   3   9   -0.22    0.13
  -3  -9  23    0.07    0.15
  -9  23  -3    0.19    0.18
  23   5  -9    0.03    0.14
  -9  23   5   -0.07    0.12
  23  -5   9   -0.15    0.17
   9  23  -5    0.13    0.12
  -9  23   5    0.19    0.17
 -23   5   9    0.13    0.16
  -5   9  23    0.14    0.15
   5  -9  23    0.12    0.16
   5   9  23    0.19    0.18
  23   5   9    0.10    0.19
   9  23   5    0.19    0.17
  -9  23  -5    0.08    0.18
  -5  -9  23    0.06    0.17
  23  -5  -9    0.05    0.16
 -23   7   9    0.17    0.14
   9  23  -7    0.37    0.18
  23  -7   9    0.53    0.23
  -7   9  23    0.54    0.19
   7  -9  23    0.12    0.14
  23   7  -9    0.11    0.16
  -9  23   7    0.10    0.16
  -9  23   7   -0.10    0.13
   9  23   7    0.12    0.18
  -7  -9  23    0.40    0.18
   7   9  23   -0.10    0.14
  23   7   9    0.34    0.21
  23  -7  -9    0.14    0.17
  23   7   9    0.07    0.17
  -9  23  -7    0.48    0.20
  -9   9  23    0.03    0.15
   9  23  -9    0.04    0.15
  -9  23   9   -0.12    0.14
  23   9  -9   -0.20    0.14
  23  -9   9   -0.34    0.17
   9  -9  23    0.01    0.14
  -9  23   9    0.02    0.15
 -23   9   9   -0.11    0.14
  23   9   9    0.12    0.16
   9  23   9    0.03    0.15
  23   9   9   -0.05    0.18
  23  -9  -9    0.17    0.17
  -9  -9  23   -0.12    0.13
   9   9  23    0.04    0.17
  -9  23  -9   -0.33    0.15
  -9  23  11    0.12    0.19
   9  23 -11    0.16    0.16
  23 -11   9    0.26    0.19
 -11   9  23   -0.23    0.15
  23  11  -9   -0.15    0.13
  11  -9  23    0.01    0.15
  -9  23  11    0.05    0.17
 -23  11   9   -0.03    0.13
  -9  23 -11    0.05    0.14
  23 -11  -9    0.04    0.16
   9  23  11    0.01    0.13
  11   9  23    0.06    0.17
 -11  -9  23    0.08    0.14
  23  11   9    0.09    0.19
  23  11   9   -0.11    0.18
 -13   9  23   -0.08    0.14
 -23  13   9   -0.02    0.14
  13  -9  23    0.17    0.17
   9  23 -13    0.25    0.17
  -9  23  13    0.48    0.22
  23  13  -9    0.18    0.17
  23 -13   9    0.08    0.21
  23  13   9    0.66    0.23
  -9  23 -13    0.06    0.18
 -13  -9  23    0.30    0.19
   9  23  13    0.36    0.19
  23  13   9    0.06    0.21
  13   9  23   -0.04    0.17
  23  15  -9    0.06    0.18
 -23  15   9   -0.07    0.15
  23 -15   9   -0.04    0.21
 -15   9  23   -0.07    0.16
  15  -9  23    0.00    0.16
  -9  23  15   -0.36    0.15
  -9  23 -15    0.15    0.15
   9  23  15    0.15    0.18
  15   9  23   -0.17    0.18
  -9 -23  15    0.06    0.18
 -15  -9  23    0.04    0.15
  23  15   9   -0.09    0.16
 -17   9  23   -0.03    0.16
  17  -9  23    0.03    0.17
 -23  17   9   -0.10    0.16
  23  17  -9    0.06    0.18
   9 -23  17    0.17    0.21
  23 -17   9   -0.31    0.20
  -9  23  17    0.20    0.21
 -17  -9  23    0.03    0.14
  17   9  23   -0.23    0.18
  23  17   9    0.06    0.21
   9  23  17    0.22    0.22
  -9 -23  17    0.07    0.19
  -9  23 -17   -0.31    0.14
  19  -9  23    0.00    0.18
 -23  19   9    0.04    0.17
  23  19  -9    0.33    0.20
  -9  23  19   -0.14    0.18
   9 -23  19   -0.18    0.20
  23 -19   9   -0.08    0.22
 -19   9  23   -0.28    0.17
  -9 -23  19    0.17    0.21
 -19  -9  23   -0.09    0.16
  -9  23 -19   -0.27    0.17
  23  19   9   -0.01    0.19
  19   9  23    0.05    0.21
   9  23  19   -0.09    0.14
  -9  23  21    0.30    0.23
 -21   9  23    0.14    0.22
   9 -23  21   -0.01    0.22
 -23  21   9    0.14    0.19
  23  21   9   -0.11    0.16
  21   9  23   -0.15    0.22
   9  23  21   -0.19    0.21
 -23  21  -9   -0.08    0.18
  -9 -23  21    0.05    0.22
  -9  23 -21   -0.26    0.18
  23  -1  11    0.16    0.20
  -1  11  23    0.17    0.17
  23   1 -11    0.15    0.19
 -11  23   1   -0.35    0.15
   1 -11  23   -0.06    0.14
  11  23  -1    0.01    0.14
 -11  23  -1    0.23    0.17
  23   1  11   -0.15    0.15
   1  11  23    0.32    0.16
  23  -1 -11    0.04    0.15
  11  23   1    0.24    0.16
  -1 -11  23    0.05    0.15
 -11  23   3    0.11    0.16
  11  23  -3    0.17    0.16
  23  -3  11    0.26    0.17
 -23   3  11    0.30    0.17
  -3  11  23    0.07    0.16
  23   3 -11    0.10    0.17
   3 -11  23    0.31    0.21
  23   3  11   -0.11    0.16
   3  11  23    0.24    0.18
  11  23   3    0.18    0.14
 -11  23  -3   -0.17    0.16
  -3 -11  23    0.26    0.17
  23  -3 -11    0.02    0.16
   5 -11  23    0.92    0.25
 -11  23   5    0.88    0.23
  23  -5  11    0.64    0.25
 -23   5  11    0.67    0.21
 -11  23   5    0.89    0.20
  11  23  -5    1.04    0.23
  23   5 -11    0.43    0.19
  -5  11  23    1.05    0.24
  -5 -11  23    0.69    0.23
  23   5  11    1.02    0.24
  11  23   5    1.13    0.24
  23  -5 -11    1.18    0.24
 -11  23  -5    0.70    0.23
   5  11  23    0.77    0.22
  23   5  11    0.95    0.25
  23  -7  11    0.21    0.18
  -7  11  23    0.22    0.18
   7 -11  23    0.44    0.22
 -11  23   7   -0.09    0.14
  23   7 -11    0.20    0.17
 -23   7  11   -0.10    0.11
  11  23  -7   -0.10    0.13
 -11  23   7    0.11    0.15
  23   7  11    0.13    0.16
 -11  23  -7    0.16    0.18
  -7 -11  23    0.10    0.19
   7  11  23    0.12    0.18
  23   7  11   -0.11    0.14
  23  -7 -11    0.14    0.16
  11  23   7   -0.03    0.15
 -23   9  11    0.31    0.18
  11  23  -9    0.07    0.17
 -11  23   9    0.14    0.17
   9 -11  23   -0.04    0.16
 -11  23   9   -0.03    0.17
  -9  11  23    0.17    0.18
  23   9 -11    0.34    0.19
  23  -9  11   -0.32    0.18
  23   9  11   -0.04    0.16
  23  -9 -11    0.46    0.19
  23   9  11   -0.13    0.14
  11  23   9   -0.06    0.13
   9  11  23   -0.06    0.16
  -9 -11  23   -0.24    0.14
 -11  23  -9   -0.05    0.15
  23  11 -11    0.16    0.17
  11  23 -11    0.00    0.14
  11 -11  23   -0.28    0.17
  23 -11  11    0.03    0.20
 -11  23  11    0.13    0.19
 -23  11  11   -0.02    0.15
 -11  11  23    0.02    0.15
  23  11  11    0.02    0.17
 -11 -11  23   -0.09    0.16
 -11  23 -11    0.08    0.19
  11  23  11    0.04    0.17
  11  11  23    0.03    0.16
  23  11  11    0.00    0.15
 -13  11  23    0.18    0.20
 -11  23  13    0.33    0.20
 -23  13  11    0.01    0.15
  23  13 -11    0.30    0.19
  13 -11  23   -0.06    0.19
  23 -13  11    0.16    0.21
  11  23  13    0.40    0.20
 -13 -11  23   -0.05    0.19
 -11  23 -13    0.14    0.16
  13  11  23   -0.19    0.16
  23  13  11   -0.16    0.17
  23 -15  11   -0.07    0.19
 -15  11  23   -0.14    0.17
  23  15 -11    0.06    0.16
 -11  23  15   -0.20    0.15
  15 -11  23   -0.07    0.20
 -23  15  11    0.05    0.15
  23  15  11    0.10    0.21
 -15 -11  23   -0.02    0.19
  15  11  23   -0.05    0.19
 -11 -23  15    0.05    0.17
 -11  23 -15   -0.08    0.16
  11  23  15   -0.03    0.17
  23 -17  11    0.27    0.23
  11 -23  17    0.58    0.24
 -23  17  11    0.90    0.26
 -11  23  17    0.50    0.23
 -17  11  23    0.43    0.25
  23  17 -11    0.34    0.21
  17 -11  23    0.59    0.25
  23  17  11    0.22    0.25
  17  11  23    0.42    0.26
 -11  23 -17    0.49    0.22
 -17 -11  23    0.44    0.25
 -11 -23  17    0.44    0.23
  11  23  17    0.92    0.27
 -11  23  19   -0.02    0.17
  23 -19  11    0.03    0.22
 -19  11  23   -0.04    0.18
 -23  19  11    0.23    0.18
  23  19 -11    0.16    0.19
  11 -23  19    0.13    0.22
  23  19  11   -0.18    0.14
 -11 -23  19   -0.18    0.18
 -11  23 -19   -0.08    0.16
  19  11  23   -0.02    0.21
  11  23  19   -0.17    0.17
  23  21 -11    0.04    0.22
  11 -23  21    0.00    0.24
 -11  23  21    0.24    0.21
 -21  11  23   -0.13    0.22
 -23  21  11    0.06    0.20
  11  23  21    0.25    0.25
  23  21  11   -0.24    0.21
 -11  23 -21    0.07    0.20
  21  11  23   -0.12    0.23
 -13  23   1   -0.13    0.15
  13  23  -1   -0.30    0.14
  -1  13  23   -0.03    0.15
  23  -1  13   -0.01    0.16
   1 -13  23    0.05    0.15
  23   1 -13    0.12    0.18
  23  -1  13    0.06    0.15
  23  -1 -13    0.14    0.18
  23   1  13    0.08    0.18
  13  23   1    0.23    0.14
   1  13  23    0.30    0.20
  -1 -13  23    0.00    0.16
 -13  23  -1   -0.16    0.14
  23   1  13    0.11    0.17
   3 -13  23    0.46    0.22
  13  23  -3   -0.09    0.18
  23  -3  13    0.19    0.19
  23   3 -13    0.26    0.20
 -23   3  13    0.29    0.18
 -13  23   3    0.17    0.20
  -3  13  23    0.61    0.22
  23  -3 -13    0.32    0.19
  23   3  13    0.54    0.25
  23   3  13    0.52    0.21
  -3 -13  23    0.26    0.20
 -13  23  -3    0.27    0.17
  13  23   3    0.01    0.15
   3  13  23    0.43    0.20
  13  23  -5    0.39    0.16
  23  -5  13    0.43    0.22
  23   5 -13   -0.15    0.19
 -13  23   5    0.38    0.19
 -13  23   5    0.34    0.17
  -5  13  23    0.27    0.20
   5 -13  23    0.54    0.22
 -23   5  13    0.39    0.20
  23  -5 -13    0.14    0.17
 -13  23  -5    0.23    0.19
  13  23   5    0.56    0.20
  23   5  13   -0.17    0.18
  -5 -13  23   -0.02    0.17
   5  13  23    0.58    0.22
  23   5  13    0.39    0.22
 -23   7  13    0.04    0.13
  23   7 -13   -0.01    0.15
 -13  23   7    0.28    0.19
 -13  23   7    0.08    0.16
  -7  13  23   -0.07    0.16
  23  -7  13   -0.11    0.17
   7 -13  23    0.34    0.21
  13  23  -7    0.06    0.15
  13  23   7    0.05    0.16
   7  13  23    0.12    0.19
  23   7  13    0.15    0.18
 -13  23  -7    0.14    0.18
  -7 -13  23    0.04    0.18
  23   7  13    0.04    0.19
  23  -7 -13   -0.01    0.15
 -23   9  13    0.43    0.19
  13  23  -9    0.24    0.17
 -13  23   9    0.10    0.15
  23  -9  13   -0.21    0.18
  -9  13  23    0.32    0.20
  23   9 -13   -0.09    0.15
   9 -13  23    0.47    0.21
  23  -9 -13    0.27    0.20
 -13  23  -9    0.11    0.19
  23   9  13   -0.11    0.17
  23   9  13    0.29    0.22
  13  23   9    0.48    0.19
   9  13  23    0.01    0.19
  -9 -13  23    0.30    0.23
  23  11 -13    0.15    0.17
 -23  11  13   -0.07    0.13
 -13  23  11   -0.12    0.14
  11 -13  23    0.00    0.19
  23 -11  13    0.39    0.22
 -11  13  23   -0.02    0.16
  23  11  13    0.06    0.19
 -13  23 -11    0.20    0.18
  23  11  13   -0.06    0.19
 -11 -13  23   -0.08    0.17
  13  23  11   -0.13    0.18
  11  13  23   -0.13    0.20
 -13  23  13   -0.12    0.15
  13 -13  23   -0.04    0.19
 -13  13  23   -0.23    0.20
  23 -13  13   -0.13    0.22
 -23  13  13   -0.02    0.16
  23  13 -13    0.03    0.16
 -13  23 -13    0.00    0.18
  13  23  13   -0.16    0.16
  13  13  23   -0.07    0.16
  23  13  13   -0.09    0.18
 -13 -13  23    0.09    0.18
 -15  13  23    0.42    0.24
  15 -13  23    0.12    0.22
  23  15 -13    0.24    0.18
 -13  23  15    0.49    0.23
  23 -15  13    0.64    0.27
 -23  15  13    0.11    0.18
  23  15  13    0.28    0.21
 -13 -23  15    0.21    0.22
  15  13  23   -0.09    0.19
 -15 -13  23    0.50    0.26
 -13  23 -15    0.17    0.17
  13  23  15    0.24    0.23
 -23  17  13    0.38    0.23
  17 -13  23    0.32    0.26
 -13  23  17    0.40    0.23
 -17  13  23    0.24    0.24
  23 -17  13   -0.07    0.23
  23  17 -13   -0.11    0.20
  13 -23  17    0.18    0.23
  17  13  23   -0.02    0.19
 -13 -23  17    0.22    0.24
 -17 -13  23    0.57    0.27
 -13  23 -17   -0.07    0.15
  13  23  17    0.00    0.19
  23  17  13   -0.06    0.25
  23  19 -13   -0.21    0.16
 -19  13  23    0.07    0.22
 -23  19  13    0.14    0.19
  23 -19  13    0.01    0.25
 -13  23  19    0.01    0.19
  13 -23  19   -0.14    0.22
 -13 -23  19    0.10    0.24
  19  13  23   -0.13    0.22
  23  19  13    0.14    0.27
  13  23  19    0.04    0.20
 -13  23 -19   -0.24    0.16
 -15  23   1    0.02    0.17
  23  -1  15    0.36    0.19
  -1  15  23    0.27    0.20
   1 -15  23    0.30    0.23
  15  23  -1    0.07    0.15
 -23   1  15    0.25    0.18
  23   1 -15    0.07    0.18
  -1  15 -23    0.13    0.17
  23  -1 -15    0.22    0.19
  15  23   1    0.08    0.16
  -1 -15  23    0.03    0.19
   1  15  23    0.10    0.18
  23   1  15   -0.02    0.17
 -15  23  -1    0.18    0.18
  23   1  15    0.17    0.18
   3 -15  23    0.04    0.19
  15  23  -3   -0.10    0.13
  -3  15  23   -0.09    0.16
  23  -3  15    0.05    0.17
 -23   3  15    0.14    0.18
  23   3 -15   -0.09    0.18
 -15  23   3   -0.07    0.15
  23   3  15   -0.19    0.17
   3  15  23   -0.06    0.17
 -15  23  -3   -0.07    0.15
  23  -3 -15    0.03    0.19
  -3  15 -23   -0.14    0.13
  15  23   3    0.21    0.16
  -3 -15  23    0.04    0.20
  23   3  15   -0.01    0.16
   5 -15  23    0.70    0.25
 -23   5  15    0.73    0.24
  23  -5  15    0.64    0.21
  -5  15  23    0.67    0.25
 -15  23   5    0.56    0.22
  15  23  -5    0.79    0.21
  23   5 -15    0.30    0.21
 -15  23  -5    0.52    0.21
  23   5  15    0.44    0.23
  23  -5 -15    0.83    0.23
   5  15  23    0.81    0.25
  23   5  15    0.66    0.24
  15  23   5    0.51    0.21
  -5 -15  23    1.36    0.31
 -23   7  15    0.12    0.17
  -7  15  23    0.15    0.20
  23   7 -15   -0.19    0.16
   7 -15  23    0.02    0.19
 -15  23   7    0.17    0.16
  15  23  -7   -0.02    0.14
  23  -7  15   -0.17    0.18
  -7 -15  23    0.00    0.18
  23  -7 -15    0.07    0.18
  15  23   7    0.22    0.16
 -15  23  -7   -0.06    0.16
  23   7  15    0.05    0.18
   7  15  23   -0.17    0.20
  23   7  15    0.10    0.18
   9 -15  23    0.04    0.19
 -15  23   9    0.04    0.15
 -23   9  15   -0.12    0.12
  -9  15  23   -0.06    0.16
  23  -9  15    0.11    0.21
  23   9 -15   -0.12    0.14
   9  15  23   -0.06    0.20
  23  -9 -15    0.04    0.18
 -23  -9  15   -0.02    0.16
  23   9  15   -0.03    0.19
  15  23   9    0.03    0.19
  23   9  15    0.08    0.18
  -9 -15  23   -0.07    0.19
 -15  23  -9    0.11    0.18
  23 -11  15    0.02    0.20
  23  11 -15    0.20    0.19
 -11  15  23   -0.05    0.20
 -15  23  11   -0.14    0.16
 -23  11  15   -0.06    0.15
  11 -15  23    0.17    0.19
  11  15  23   -0.20    0.18
  23  11  15   -0.02    0.19
  15  23  11    0.48    0.23
 -15  23 -11    0.09    0.18
 -23 -11  15   -0.04    0.16
 -11 -15  23   -0.13    0.20
 -15  23  13    0.25    0.20
 -23  13  15    0.45    0.22
  23 -13  15    0.47    0.24
 -13  15  23    0.16    0.22
  13 -15  23    0.29    0.24
 -15  23 -13    0.02    0.18
  23  13  15    0.24    0.23
 -23 -13  15    0.35    0.22
 -13 -15  23    0.28    0.25
  15  23  13    0.23    0.22
  13  15  23    0.75    0.25
  23 -15  15   -0.19    0.23
 -23  15  15   -0.08    0.16
 -15  15  23   -0.17    0.19
  15 -15  23   -0.17    0.22
 -15  23  15    0.13    0.20
 -15  23 -15   -0.10    0.18
 -23 -15  15   -0.17    0.19
  15  15  23   -0.26    0.19
 -15 -15  23    0.03    0.22
 -15 -23  15   -0.24    0.18
  15  23  15    0.24    0.22
  23  15  15   -0.12    0.21
 -15  23  17    0.16    0.21
 -17  15  23   -0.06    0.19
  23 -17  15    0.00    0.25
  15 -23  17    0.01    0.21
  23  17 -15   -0.11    0.17
 -23  17  15    0.20    0.20
 -15 -23  17   -0.07    0.22
  17  15  23   -0.11    0.23
 -15  23 -17    0.22    0.21
 -23 -17  15    0.11    0.22
  23  17  15    0.29    0.26
  15  23  17    0.15    0.20
 -23   1  17    0.31    0.21
  23   1 -17   -0.10    0.22
 -17  23   1    0.05    0.19
  17  23  -1    0.01    0.19
   1 -17  23   -0.06    0.16
  -1  17  23    0.24    0.22
  23  -1  17   -0.19    0.21
  23   1  17    0.58    0.24
  -1 -17  23    0.40    0.23
  -1  17 -23    0.32    0.19
  17  23   1    0.25    0.18
   1  17  23    0.27    0.20
 -17  23  -1    0.06    0.19
  23  -1 -17   -0.10    0.17
  23   3 -17    0.83    0.27
 -23   3  17    0.96    0.26
  23  -3  17    1.23    0.28
  -3  17  23    1.65    0.31
  17  23  -3    1.00    0.24
   3 -17  23    0.91    0.26
 -17  23   3    0.53    0.23
  23   3  17    0.56    0.25
  17  23   3    0.53    0.24
  23   3  17    0.69    0.24
  -3 -17  23    0.85    0.26
 -17  23  -3    0.65    0.23
  23  -3 -17    0.46    0.25
   3  17  23    0.79    0.25
  -3  17 -23    0.67    0.23
  -5  17  23    0.29    0.22
  17  23  -5    0.17    0.18
  23  -5  17    0.34    0.20
  23   5 -17   -0.18    0.17
   5 -17  23    0.25    0.20
 -23   5  17   -0.03    0.18
  23   5  17   -0.03    0.19
 -17  23  -5   -0.04    0.19
   5  17  23    0.78    0.26
  -5  17 -23    0.33    0.19
  23   5  17    0.15    0.20
  23  -5 -17    0.16    0.22
  17  23   5    0.36    0.22
  -5 -17  23    0.04    0.20
 -23  -5  17    0.15    0.15
  23  -7  17    0.10    0.20
   7 -17  23    0.00    0.21
 -23   7  17    0.01    0.18
  -7  17  23    0.18    0.21
 -17  23   7   -0.13    0.15
  17  23   7    0.07    0.20
 -17  23  -7    0.30    0.21
  23  -7 -17    0.20    0.21
   7  17  23    0.13    0.21
 -23  -7  17    0.42    0.20
  23   7  17    0.13    0.22
  23   7  17    0.07    0.18
  -7 -17  23    0.26    0.22
   9 -17  23    0.17    0.20
  23  -9  17    0.03    0.22
 -17  23   9    0.09    0.17
  -9  17  23    0.14    0.20
 -23   9  17   -0.07    0.18
 -23  -9  17   -0.31    0.18
  -9 -17  23   -0.02    0.20
   9  17  23    0.16    0.22
 -17  23  -9    0.00    0.18
  23   9  17   -0.01    0.20
  23   9  17    0.03    0.20
  17  23   9   -0.28    0.17
  23 -11  17    0.54    0.25
 -23  11  17    0.20    0.20
 -17  23  11    0.58    0.23
 -11  17  23    0.31    0.22
  11 -17  23    0.66    0.25
  17  23  11    0.63    0.25
  11  17  23    0.19    0.23
 -17  23 -11    0.77    0.26
 -23 -11  17   -0.11    0.19
  23  11  17    0.61    0.28
 -11 -17  23    0.63    0.28
  23 -13  17    0.17    0.25
 -13  17  23    0.10    0.21
 -23  13  17    0.74    0.25
 -17  23  13    0.17    0.19
  13 -17  23    0.49    0.28
  17  23  13    0.23    0.21
 -17  23 -13    0.24    0.26
  23  13  17    0.22    0.24
  13  17  23    0.40    0.25
 -13 -17  23   -0.02    0.22
 -23 -13  17    0.06    0.23
 -15  17  23   -0.13    0.22
 -23  15  17    0.23    0.18
 -17  23  15    0.00    0.22
  23  15  17    0.05    0.21
 -17  23 -15   -0.22    0.19
 -17 -23  15   -0.09    0.22
  17  23  15   -0.45    0.17
  15  17  23    0.17    0.23
   1 -19  23    0.07    0.22
  -1  19  23    0.22    0.20
  19  23  -1    0.17    0.18
  23  -1  19    0.05    0.19
 -23   1  19    0.08    0.20
  23   1 -19    0.05    0.19
   1  19  23    0.31    0.25
  23   1  19    0.48    0.24
  -1  19 -23    0.18    0.20
  19  23   1    0.12    0.18
  23  -1 -19    0.50    0.25
  -1 -19  23    0.46    0.25
 -19  23  -1    0.32    0.22
 -23   3  19    0.07    0.16
  -3  19  23    0.26    0.23
   3 -19  23    0.36    0.24
  23  -3  19    0.51    0.22
  23   3 -19    0.19    0.21
  19  23  -3    0.16    0.19
  23   3  19    0.15    0.22
  23  -3 -19    0.32    0.23
  19  23   3    0.11    0.19
   3  19  23   -0.12    0.18
 -23  -3  19    0.26    0.17
 -19  23  -3    0.23    0.20
  -3 -19  23    0.08    0.20
  -3  19 -23    0.36    0.21
  -5  19  23   -0.04    0.19
  23  -5  19   -0.05    0.19
 -23   5  19    0.33    0.24
   5 -19  23    0.09    0.21
  23   5  19    0.12    0.19
 -23  -5  19    0.25    0.20
  -5 -19  23    0.39    0.25
 -19  23  -5    0.26    0.19
  23  -5 -19    0.49    0.24
  23   5  19    0.15    0.21
  -5  19 -23    0.04    0.16
  19  23   5    0.11    0.16
   5  19  23    0.18    0.21
 -23   7  19   -0.01    0.18
 -19  23   7   -0.11    0.15
  23  -7  19    0.43    0.20
  -7  19  23   -0.07    0.23
   7 -19  23    0.40    0.23
   7  19  23   -0.11    0.20
  -7  19 -23    0.18    0.19
 -19  23  -7   -0.03    0.17
  -7 -19  23   -0.20    0.16
  23  -7 -19    0.07    0.23
  23   7  19    0.18    0.21
  23   7  19    0.03    0.19
  19  23   7    0.14    0.20
 -23  -7  19   -0.03    0.15
   9 -19  23   -0.40    0.16
 -19  23   9    0.19    0.18
  -9  19  23    0.01    0.20
 -23   9  19    0.08    0.19
  23  -9  19   -0.06    0.21
   9  19  23   -0.05    0.21
  -9 -19  23   -0.08    0.20
 -19  23  -9    0.05    0.19
  23   9  19   -0.12    0.19
  19  23   9   -0.10    0.19
 -23  -9  19    0.07    0.19
  -9  19 -23    0.25    0.22
  11 -19  23    0.27    0.24
 -23  11  19    0.43    0.25
 -11  19  23    0.13    0.20
 -19  23  11   -0.22    0.16
  23  11  19    0.19    0.24
  11  19  23   -0.08    0.21
 -19  23 -11    0.07    0.22
  19  23  11    0.00    0.20
 -11 -19  23   -0.20    0.22
 -23  13  19    0.00    0.19
 -19  23  13    0.00    0.18
 -13  19  23    0.05    0.21
  19  23  13    0.35    0.23
 -19  23 -13   -0.09    0.23
  23  13  19    0.16    0.24
  13  19  23   -0.42    0.22
  23   1 -21    0.02    0.24
 -23   1  21   -0.15    0.18
  23  -1  21   -0.10    0.17
  21  23  -1    0.05    0.21
   1 -21  23    0.09    0.20
  -1  21  23    0.00    0.21
  23   1  21    0.09    0.22
  -1 -21  23    0.30    0.23
  23  -1 -21    0.10    0.22
  -1  21 -23    0.24    0.21
 -23  -1  21    0.08    0.16
  21  23   1    0.06    0.20
   1  21  23    0.05    0.23
   3 -21  23    0.02    0.22
 -23   3  21    0.12    0.22
  -3  21  23    0.23    0.21
  21  23  -3    0.09    0.18
  23  -3  21    0.11    0.20
   3  21  23   -0.12    0.21
  23  -3 -21   -0.12    0.23
  21  23   3   -0.31    0.19
  -3  21 -23   -0.08    0.20
  23   3  21   -0.05    0.21
 -23  -3  21   -0.22    0.14
 -21  23  -3   -0.21    0.17
  -3 -21  23    0.02    0.20
  23  -5  21   -0.14    0.19
  -5  21  23   -0.03    0.23
 -23   5  21   -0.19    0.18
   5 -21  23    0.26    0.23
 -21  23  -5   -0.17    0.21
   5  21  23    0.27    0.22
 -23  -5  21   -0.20    0.16
  21  23   5    0.13    0.21
  23   5  21    0.07    0.22
  -5 -21  23    0.12    0.21
  -5  21 -23   -0.01    0.21
  23  -5 -21   -0.03    0.22
   7 -21  23   -0.11    0.22
  -7  21  23   -0.05    0.20
 -23   7  21   -0.02    0.19
 -21  23  -7   -0.08    0.22
   7  21  23   -0.23    0.20
  21  23   7   -0.41    0.20
  -7 -21  23   -0.30    0.20
  -7  21 -23   -0.38    0.17
  23   7  21    0.14    0.22
  -9  21  23   -0.05    0.17
 -23   9  21   -0.02    0.22
 -21  23   9   -0.30    0.15
   9 -21  23    0.08    0.23
 -21  23  -9   -0.02    0.21
   9  21  23    0.05    0.20
  23   9  21    0.12    0.28
  -9  21 -23    0.07    0.20
  -9 -21  23   -0.07    0.24
  21  23   9   -0.25    0.20
 -23  11  21    0.21    0.23
 -11  21  23    0.16    0.21
 -21  23  11    0.08    0.23
  23  11  21    0.28    0.26
  21  23  11   -0.08    0.22
  11  21  23   -0.07    0.23
 -21  23 -11   -0.07    0.21
  -1  23  23    0.00    0.19
 -23   1  23    0.02    0.17
  23  23  -1   -0.04    0.19
   1 -23  23   -0.03    0.21
 -23   1  23   -0.01    0.20
  23  23   1    0.03    0.20
  -1 -23  23   -0.07    0.24
   1  23  23   -0.22    0.19
  -1  23 -23   -0.02    0.19
  23   1  23    0.06    0.23
 -23  -1  23   -0.03    0.19
  23  -1 -23    0.08    0.22
  23  23  -3   -0.14    0.18
   3 -23  23    0.12    0.26
 -23   3  23   -0.02    0.21
  -3  23  23    0.04    0.20
   3  23  23   -0.10    0.23
  -3  23 -23    0.15    0.22
  23   3  23    0.17    0.23
  23  -3 -23    0.10    0.24
  23  23   3   -0.17    0.18
  -3 -23  23    0.15    0.25
 -23   5  23   -0.14    0.20
  -5  23  23   -0.18    0.20
  -5  23 -23   -0.02    0.21
 -23  23  -5   -0.19    0.20
  23   5  23    0.13    0.23
   5  23  23   -0.09    0.21
  23  23   5   -0.12    0.20
   0  24   0  162.55    4.13
  24   0   0  161.07    4.27
   0   0  24  162.64    4.29
   0  24   2    0.24    0.17
   2   0  24   -0.35    0.16
  -2   0  24   -0.10    0.17
   0  24   2    0.23    0.17
  24   2   0    0.10    0.15
   0  24  -2    0.22    0.17
  24  -2   0    0.00    0.16
  24   4   0   84.51    2.44
  24  -4   0   80.09    2.40
  -4   0  24   77.80    2.41
   0  24  -4   83.26    2.35
   0  24   4   78.76    2.31
   0  24   4   86.83    2.28
   4   0  24   86.80    2.46
  -6   0  24    0.18    0.17
  24  -6   0    0.25    0.19
  -6   0  24    0.05    0.13
   6   0  24    0.07    0.14
   0  24  -6    0.24    0.18
   0  24   6    0.02    0.17
  24   6   0    0.14    0.16
   0  24   6   -0.03    0.16
  24  -8   0  120.67    3.35
   0  24   8  126.14    3.24
  -8   0  24  128.45    3.10
  24   8   0  123.20    3.41
  -8   0  24  117.05    3.36
   0  24   8  119.53    3.25
   0  24  -8  123.47    3.30
   8   0  24  124.24    3.41
  24  10   0    0.23    0.17
  10   0  24   -0.07    0.16
 -10   0  24    0.32    0.16
 -10   0  24    0.15    0.16
   0  24 -10    0.11    0.15
  24 -10   0    0.05    0.20
   0  24  10    0.09    0.19
  12   0  24   42.29    1.50
  24 -12   0   39.00    1.41
 -12   0  24   43.53    1.34
 -12   0  24   38.86    1.43
  24  12   0   41.10    1.48
   0  24  12   40.85    1.43
   0  24 -12   40.52    1.42
   0  24  14   -0.03    0.18
  14   0  24   -0.15    0.16
 -14   0  24    0.16    0.17
   0  24 -14    0.49    0.21
  24  14   0    0.29    0.18
 -14   0  24    0.11    0.16
  24 -14   0   -0.09    0.18
  24  16   0   74.78    2.33
 -16   0  24   70.84    2.31
   0  24  16   77.72    2.30
   0  24 -16   76.31    2.28
  16   0  24   73.85    2.35
 -16   0  24   74.07    2.16
  18   0  24    0.27    0.21
   0  24 -18    0.06    0.18
   0 -24  18    0.04    0.21
 -18   0  24    0.15    0.18
  24  18   0    0.42    0.23
   0  24  18    0.16    0.20
 -18   0  24    0.09    0.18
   0  24 -20   41.54    1.47
  24  20   0   38.05    1.45
 -20   0  24   37.34    1.48
 -20   0  24   37.01    1.39
   0 -24  20   36.89    1.46
   0  24  20   40.80    1.51
  20   0  24   38.84    1.54
 -22   0  24    0.29    0.22
   0 -24  22    0.08    0.24
  24  22   0    0.30    0.22
   0  24  22    0.02    0.19
 -22   0  24   -0.01    0.20
   0  24 -22    0.02    0.20
   0  -2  24    0.20    0.16
  24   0   2   -0.18    0.18
   0   2  24    0.13    0.14
   2  24   0    0.23    0.16
   0   2  24    0.20    0.17
  -2  24   0   -0.25    0.15
  24   0  -2   -0.04    0.21
   2  -2  24    1.50    0.27
  -2   2  24    0.93    0.22
  -2   2  24    0.65    0.17
  -2  24   2    0.98    0.23
   2  24  -2    0.50    0.19
  24   2  -2    0.81    0.23
  24  -2   2    0.55    0.25
  -2  24  -2    0.46    0.23
  24   2   2    0.84    0.22
  24  -2  -2    0.50    0.21
   2  24   2    1.20    0.22
   2   2  24    0.64    0.20
  -2  -2  24    0.73    0.22
   2  24   2    0.44    0.21
  24  -4   2    0.63    0.25
  -4   2  24    0.29    0.17
  -2  24   4    0.00    0.19
   2  24  -4    0.28    0.17
  -2  24   4    0.28    0.17
  -4   2  24    0.21    0.17
   4  -2  24    0.27    0.18
  24   4  -2    0.11    0.15
  -2  24  -4    0.23    0.18
   2  24   4    0.41    0.20
   2  24   4    0.20    0.20
  24   4   2    0.59    0.21
   4   2  24    0.45    0.18
  -4  -2  24    0.42    0.19
  24  -4  -2    0.23    0.21
  -2  24   6    0.96    0.24
  24   6  -2    1.13    0.25
   2  24  -6    0.64    0.23
  -2  24   6    1.09    0.26
   6  -2  24    1.19    0.25
  24  -6   2    1.09    0.27
  -6   2  24    1.29    0.24
  -6   2  24    1.13    0.22
  -6  -2  24    1.13    0.24
  24   6   2    1.20    0.26
   2  24   6    0.99    0.24
   6   2  24    1.69    0.28
  -2  24  -6    1.07    0.23
   2  24   6    1.56    0.26
  24  -6  -2    1.02    0.25
  24  -8   2    0.80    0.23
  -2  24   8    1.09    0.23
   8  -2  24    1.40    0.27
  24   8  -2    1.32    0.28
  -8   2  24    1.29    0.23
  -2  24   8    0.93    0.26
   2  24  -8    1.09    0.24
  -8   2  24    1.17    0.22
  -8  -2  24    1.43    0.27
  -2  24  -8    1.09    0.24
   8   2  24    1.41    0.26
  24   8   2    1.17    0.27
   2  24   8    0.59    0.25
  24  -8  -2    0.50    0.22
 -10   2  24    1.45    0.24
  24  10  -2    1.63    0.27
   2  24 -10    1.55    0.26
 -10   2  24    1.14    0.24
  -2  24  10    0.71    0.23
  24 -10   2    1.19    0.26
  10  -2  24    1.40    0.27
  -2  24  10    1.04    0.24
  24 -10  -2    1.19    0.26
  10   2  24    1.58    0.29
   2  24  10    1.51    0.28
  24  10   2    1.23    0.27
 -10  -2  24    1.37    0.26
  -2  24 -10    1.49    0.27
 -12   2  24    0.14    0.14
  -2  24  12   -0.12    0.19
  24 -12   2    0.06    0.19
  24  12  -2   -0.04    0.14
  -2  24  12    0.27    0.17
   2  24 -12    0.26    0.17
 -12   2  24    0.17    0.16
  12  -2  24    0.13    0.16
 -12  -2  24    0.31    0.15
  12   2  24    0.31    0.18
  24 -12  -2    0.01    0.19
   2  24  12   -0.31    0.19
  -2  24 -12    0.36    0.17
  24  12   2    0.38    0.21
  14  -2  24    0.48    0.21
  24 -14   2    0.57    0.23
 -14   2  24    0.89    0.23
  24  14  -2    1.10    0.27
   2  24 -14    0.29    0.19
  -2  24  14    0.39    0.22
 -14   2  24    0.89    0.23
  14   2  24    0.60    0.22
 -14  -2  24    0.63    0.22
  -2  24 -14    0.80    0.23
  24  14   2    0.77    0.25
   2  24  14    0.23    0.22
 -14  -2  24    0.42    0.19
  24 -14  -2    0.52    0.24
 -16   2  24    0.65    0.22
  16  -2  24    0.41    0.21
  24  16  -2    0.43    0.23
   2  24 -16    0.81    0.24
  -2  24  16    0.06    0.23
 -24  16   2    0.35    0.19
 -16   2  24    0.67    0.21
  24 -16   2    0.16    0.22
  -2  24 -16    0.77    0.24
 -16  -2  24    0.38    0.21
 -16  -2  24    0.75    0.24
  16   2  24    0.92    0.25
  24  16   2    0.72    0.23
  24  16   2    0.68    0.25
   2  24  16    0.20    0.23
  24  18  -2    0.08    0.19
 -18   2  24    0.10    0.18
   2  24 -18    0.12    0.18
 -18   2  24    0.09    0.19
  18  -2  24    0.46    0.24
  -2  24  18    0.12    0.18
   2 -24  18   -0.03    0.20
  -2  24 -18   -0.12    0.18
 -18  -2  24    0.10    0.19
  18   2  24    0.03    0.18
  24  18   2   -0.01    0.19
  -2 -24  18   -0.10    0.19
   2  24  18    0.17    0.22
 -18  -2  24   -0.02    0.15
   2  24 -20    1.19    0.28
  -2  24  20    0.12    0.24
 -20   2  24    0.97    0.27
   2 -24  20    0.36    0.29
  24  20  -2    0.75    0.26
  20  -2  24    1.11    0.30
 -20   2  24    1.40    0.31
   2  24  20    0.75    0.30
  24  20   2    0.43    0.24
  -2 -24  20   -0.23    0.27
 -20  -2  24    0.84    0.25
 -20  -2  24    0.53    0.24
  -2  24 -20    0.70    0.26
  20   2  24    0.94    0.28
  -2  24  22    0.66    0.26
 -22   2  24    0.52    0.25
 -22   2  24    0.28    0.23
   2 -24  22    0.37    0.28
  24  22  -2    0.55    0.24
  -2 -24  22    0.11    0.26
  22   2  24    0.26    0.24
  24  22   2    0.55    0.25
   2  24  22    0.25    0.24
  -2  24 -22    0.00    0.21
   0   4  24   84.84    2.37
  24   0   4   82.76    2.41
  -4  24   0   79.87    2.30
   4  24   0   77.62    2.28
   0   4  24   81.99    2.16
   0  -4  24   81.42    2.44
  24   0  -4   79.89    2.38
  -2   4  24   -0.07    0.17
  -2   4  24   -0.31    0.16
  -4  24   2    0.21    0.18
   2  -4  24    0.28    0.22
  24  -2   4    0.65    0.24
   4  24  -2    0.37    0.20
  24   2  -4    0.74    0.22
   4  24   2    0.35    0.19
  -2  -4  24   -0.08    0.20
  24   2   4    0.38    0.19
   2   4  24    0.08    0.16
  -4  24  -2    0.11    0.19
  24  -2  -4    0.44    0.20
   2   4  24    0.12    0.18
   4  24   2    0.34    0.19
  -4  24   4  134.87    3.50
   4  24  -4  130.81    3.48
  -4   4  24  136.88    3.59
  -4  24   4  135.81    3.38
  -4   4  24  134.47    3.33
   4  -4  24  130.51    3.65
  24  -4   4  132.35    3.62
  24   4  -4  129.11    3.62
  -4  -4  24  131.86    3.68
   4  24   4  133.45    3.40
   4  24   4  130.57    3.48
  -4  24  -4  137.23    3.55
   4   4  24  133.63    3.58
  24   4   4  132.75    3.63
   4   4  24  137.40    3.33
  24  -4  -4  133.47    3.59
   4  24  -6    0.61    0.20
  -4  24   6    0.61    0.20
   6  -4  24   -0.19    0.18
  -6   4  24   -0.05    0.16
  -4  24   6    0.42    0.20
  -6   4  24    0.05    0.17
  24   6  -4    0.69    0.21
  24  -6   4    0.51    0.21
  -6  -4  24   -0.05    0.18
  -4  24  -6    0.46    0.18
   6   4  24    0.17    0.18
   4  24   6    0.15    0.17
   6   4  24    0.24    0.18
  24  -6  -4    0.58    0.20
  24   6   4    0.51    0.23
   8  -4  24   92.21    2.70
  24   8  -4   92.09    2.70
   4  24  -8   92.73    2.58
  -8   4  24   94.88    2.47
  24  -8   4   91.33    2.66
  -4  24   8   92.29    2.55
  -8   4  24   87.77    2.58
  -4  24   8   92.38    2.53
  24  -8  -4   86.22    2.57
  -8  -4  24   86.21    2.68
   8   4  24   96.91    2.67
  24   8   4   93.73    2.69
  -4  24  -8   91.31    2.60
   4  24   8   88.18    2.51
   8   4  24   94.52    2.44
   4  24 -10    0.21    0.17
 -10   4  24    0.14    0.14
 -10   4  24    0.39    0.19
  10  -4  24    0.15    0.18
  24 -10   4    0.38    0.20
  24  10  -4    0.53    0.22
  -4  24  10    0.43    0.20
  -4  24  10    0.26    0.18
 -10  -4  24    0.48    0.20
  10   4  24    0.52    0.20
  24  10   4    0.81    0.24
  24 -10  -4    0.28    0.20
   4  24  10    0.05    0.17
  -4  24 -10    0.61    0.20
 -24  12   4   73.65    2.18
  -4  24  12   78.88    2.20
  24  12  -4   76.90    2.37
 -12   4  24   76.61    2.15
  24 -12   4   76.57    2.30
 -12   4  24   74.86    2.25
   4  24 -12   76.50    2.23
  12  -4  24   73.93    2.34
  -4  24  12   74.62    2.23
  24  12   4   76.24    2.32
  12   4  24   76.42    2.32
  24 -12  -4   75.99    2.24
  -4  24 -12   77.40    2.28
   4  24  12   72.14    2.21
 -12  -4  24   73.64    2.34
 -24  14   4    0.49    0.18
 -14   4  24    0.56    0.21
  -4  24  14    0.36    0.22
  24 -14   4    0.34    0.20
 -14   4  24    0.36    0.18
   4  24 -14    0.57    0.21
  -4  24  14    0.41    0.21
  14  -4  24    0.31    0.19
  24  14  -4    0.18    0.19
  24  14   4    0.51    0.21
  24 -14  -4    0.55    0.23
   4  24  14    0.15    0.20
  14   4  24    0.53    0.22
  -4  24 -14    0.43    0.20
 -14  -4  24    0.09    0.17
  24  14   4    0.45    0.21
  -4  24  16   44.97    1.48
  24  16  -4   42.04    1.58
  16  -4  24   42.70    1.58
   4  24 -16   42.05    1.49
 -24  16   4   44.81    1.48
  -4  24  16   42.16    1.54
 -16   4  24   42.35    1.45
  24 -16   4   43.35    1.52
 -16   4  24   42.20    1.51
 -16  -4  24   42.58    1.59
   4  24  16   42.79    1.53
  -4  24 -16   43.11    1.53
  24  16   4   44.78    1.56
  16   4  24   43.03    1.56
   4 -24  18    0.09    0.20
 -18   4  24    0.21    0.18
   4  24 -18    0.30    0.21
 -18   4  24   -0.03    0.18
  18  -4  24   -0.10    0.16
  -4  24  18    0.29    0.20
 -24  18   4    0.22    0.17
  24  18  -4    0.11    0.20
  -4  24 -18    0.22    0.20
 -18  -4  24    0.59    0.22
  -4 -24  18    0.22    0.22
  24  18   4    0.61    0.22
   4  24  18    0.23    0.21
  18   4  24    0.02    0.20
   4 -24  20   48.18    1.73
  20  -4  24   53.66    1.88
  -4  24  20   51.29    1.79
 -20   4  24   49.10    1.74
 -20   4  24   49.50    1.70
  24  20  -4   48.91    1.70
  -4 -24  20   47.91    1.74
  24  20   4   48.98    1.76
  -4  24 -20   50.37    1.76
   4  24  20   51.60    1.78
 -20  -4  24   52.71    1.86
  20   4  24   49.56    1.81
 -22   4  24    0.17    0.21
  24  22  -4    0.28    0.24
   4 -24  22   -0.02    0.24
  -4  24  22    0.34    0.23
   4  24  22    0.13    0.22
  24  22   4    0.23    0.23
  22   4  24    0.17    0.23
  -4 -24  22    0.19    0.26
  22  -4 -24    0.07    0.23
  -4  24 -22   -0.08    0.20
   0  -6  24    0.48    0.21
  24   0   6    0.01    0.15
   6  24   0   -0.27    0.13
   0   6  24   -0.02    0.13
  24   0  -6    0.01    0.17
  -6  24   0    0.03    0.17
   0   6  24    0.32    0.17
   6  24  -2    0.96    0.23
  24  -2   6    1.50    0.28
   2  -6  24    1.35    0.27
  -2   6  24    1.33    0.23
  24   2  -6    1.27    0.25
  -2   6  24    1.08    0.22
  -6  24   2    0.70    0.25
  24  -2  -6    1.46    0.26
  -2  -6  24    1.10    0.26
  -6  24  -2    1.23    0.25
  24   2   6    1.14    0.27
   2   6  24    1.16    0.22
   6  24   2    1.11    0.22
   6  24   2    1.53    0.24
   2   6  24    1.47    0.25
  -6  24   4    0.24    0.18
  -4   6  24    0.56    0.20
  -6  24   4    0.48    0.19
  24   4  -6    0.14    0.19
  24  -4   6    0.37    0.22
   4  -6  24    0.48    0.20
   6  24  -4    0.27    0.18
  -4   6  24    0.57    0.17
   6  24   4   -0.05    0.17
  -4  -6  24    0.10    0.16
   4   6  24    0.47    0.18
   4   6  24    0.25    0.17
  24  -4  -6    0.11    0.18
  24   4   6    0.19    0.21
  -6  24  -4    0.61    0.21
   6  -6  24    0.29    0.18
  -6  24   6    0.57    0.20
  24  -6   6    0.64    0.24
  -6  24   6   -0.05    0.18
  24   6  -6    0.40    0.19
   6  24  -6    0.35    0.18
  -6   6  24    0.10    0.17
   6  24   6    0.07    0.15
  -6  -6  24    0.37    0.19
   6   6  24    0.20    0.17
  24  -6  -6    0.07    0.18
   6   6  24    0.10    0.15
  24   6   6   -0.23    0.17
  -6  24  -6    0.45    0.20
  24   8  -6    0.19    0.19
   6  24  -8    0.47    0.19
  -6  24   8    0.37    0.20
   8  -6  24    0.89    0.24
  -6  24   8    0.28    0.21
  -8   6  24    0.62    0.20
  24  -8   6    0.66    0.24
  24   8   6    0.28    0.21
  24  -8  -6    0.54    0.22
  -6  24  -8    0.38    0.18
   8   6  24    1.02    0.22
   8   6  24    0.46    0.20
  -8  -6  24    0.68    0.22
   6  24   8    0.30    0.21
  24 -10   6    1.75    0.30
  10  -6  24    1.87    0.31
 -24  10   6    1.41    0.24
  -6  24  10    1.36    0.27
  24  10  -6    2.26    0.33
  -6  24  10    1.60    0.28
 -10   6  24    2.57    0.32
   6  24 -10    1.16    0.27
   6  24  10    2.42    0.32
  10   6  24    2.36    0.32
  -6  24 -10    1.69    0.27
  24 -10  -6    1.68    0.28
  10   6  24    1.92    0.28
 -10  -6  24    1.86    0.30
  24  10   6    1.66    0.31
  24 -12   6    0.26    0.21
  -6  24  12    0.16    0.17
  12  -6  24    0.22    0.18
  -6  24  12   -0.05    0.19
 -24  12   6    0.36    0.16
 -12   6  24    0.19    0.16
   6  24 -12    0.02    0.15
  24  12  -6    0.06    0.18
  -6  24 -12    0.34    0.19
  12   6  24    0.16    0.17
  24  12   6    0.27    0.21
   6  24  12   -0.21    0.16
  24  12   6    0.03    0.17
 -12  -6  24    0.18    0.16
  12   6  24    0.11    0.16
  24 -12  -6    0.16    0.20
  -6  24  14    0.43    0.21
 -24  14   6    0.20    0.17
  14  -6  24    0.16    0.18
  24 -14   6    0.36    0.21
   6  24 -14    0.60    0.21
  -6  24  14    0.70    0.23
  24  14  -6    0.52    0.21
 -14   6  24    0.42    0.19
  24  14   6    0.27    0.20
 -14  -6  24    0.33    0.19
  24  14   6    0.87    0.24
  -6  24 -14    0.34    0.19
  14   6  24    0.30    0.20
  14   6  24    0.42    0.21
   6  24  14    0.48    0.21
   6  24 -16    0.19    0.18
 -16   6  24    0.52    0.21
  24  16  -6    0.36    0.20
  16  -6  24    0.33    0.19
  24 -16   6    0.27    0.24
  -6  24  16   -0.42    0.18
 -24  16   6    0.29    0.20
   6  24  16   -0.01    0.18
 -16  -6  24    0.13    0.15
  -6  24 -16    0.13    0.18
  24  16   6    0.02    0.16
  18  -6  24    0.50    0.23
   6 -24  18    0.42    0.24
 -18   6  24    0.54    0.23
 -24  18   6    0.72    0.23
  24  18  -6    0.46    0.23
  24 -18   6    0.75    0.27
  -6  24  18    0.33    0.23
  24  18   6    0.79    0.27
 -18  -6  24    0.66    0.25
  -6  24 -18    0.59    0.23
  -6 -24  18    0.93    0.27
   6  24  18    0.13    0.21
  -6  24  20    0.20    0.23
 -20   6  24    0.15    0.22
   6 -24  20    0.23    0.25
  24  20  -6    0.47    0.23
 -24  20   6    0.45    0.23
 -24  20  -6    0.45    0.25
  -6  24 -20    0.13    0.19
  24  20   6    0.62    0.27
  -6 -24  20   -0.10    0.23
 -20  -6  24    0.35    0.23
   6  24  20    0.08    0.22
   6 -24  22    0.38    0.28
   8  24   0  118.36    3.06
  -8  24   0  119.87    3.22
   8  24   0  117.22    3.19
  24   0   8  117.36    3.34
  24   0  -8  122.93    3.34
   0  -8  24  120.44    3.38
   0   8  24  124.14    3.12
  -2   8  24    0.65    0.24
  24  -2   8    0.88    0.24
  24   2  -8    1.08    0.25
   2  -8  24    0.70    0.25
   8  24  -2    1.14    0.23
  -8  24   2    1.24    0.24
   8  24   2    1.16    0.23
  24   2   8    1.27    0.27
   2   8  24    0.91    0.25
  -8  24  -2    1.19    0.25
  24  -2  -8    1.44    0.26
  -2  -8  24    0.08    0.23
  -4   8  24   93.24    2.48
  24  -4   8   89.06    2.65
  -8  24   4   95.12    2.57
  -8  24   4   93.41    2.45
  24   4  -8   90.01    2.68
   4  -8  24   93.30    2.70
   8  24  -4   86.13    2.51
  24   4   8   89.09    2.66
  -4  -8  24   91.90    2.73
  -8  24  -4   95.73    2.61
   8  24   4   88.48    2.46
  24  -4  -8   86.52    2.58
   4   8  24   89.37    2.46
  -8  24   6    0.73    0.23
  24  -6   8    0.60    0.21
  -8  24   6    0.51    0.20
  24   6  -8    0.70    0.22
  -6   8  24    0.48    0.21
   8  24  -6    0.68    0.20
   6  -8  24    0.36    0.23
   6   8  24    0.51    0.22
  24  -6  -8    0.72    0.23
  -8  24  -6    0.48    0.20
  24   6   8    1.01    0.24
   8  24   6    0.69    0.22
  -6  -8  24    0.46    0.25
  -8  24   8  115.27    3.02
  24  -8   8  109.19    3.14
  24   8  -8  105.31    3.14
   8  24  -8  111.71    3.01
  -8  24   8  117.81    2.99
 -24   8   8  108.77    2.98
   8  -8  24  105.09    3.14
  -8   8  24  110.94    2.93
  -8  24  -8  113.08    3.09
  24  -8  -8  110.73    3.06
   8  24   8  109.04    2.97
  24   8   8  107.57    3.13
  -8  -8  24  112.60    3.22
   8   8  24  112.23    2.94
  24 -10   8    0.66    0.25
  -8  24  10    0.47    0.21
 -24  10   8    0.67    0.21
   8  24 -10    0.53    0.21
  10  -8  24    0.23    0.20
  -8  24  10    1.12    0.24
  24  10  -8    0.77    0.23
 -10   8  24    0.67    0.22
  24  10   8    0.72    0.23
  10   8  24    0.15    0.19
   8  24  10    0.46    0.19
  24 -10  -8    0.50    0.21
  24  10   8    0.68    0.24
  -8  24 -10    0.80    0.22
 -10  -8  24    0.65    0.23
  24  12  -8   44.13    1.62
  24 -12   8   42.70    1.56
  -8  24  12   46.35    1.49
 -12   8  24   45.80    1.50
  12  -8  24   42.85    1.60
   8  24 -12   45.85    1.51
 -24  12   8   44.56    1.50
  -8  24  12   43.88    1.53
  24  12   8   44.56    1.59
 -12  -8  24   42.13    1.61
  12   8  24   43.40    1.46
   8  24  12   44.51    1.52
  24  12   8   43.40    1.55
  24 -12  -8   47.12    1.51
  -8  24 -12   46.34    1.58
  14  -8  24    0.61    0.25
 -14   8  24    0.61    0.21
  -8  24  14    0.39    0.21
 -24  14   8    0.46    0.20
  24 -14   8    0.31    0.20
  24  14  -8    0.44    0.23
   8  24 -14    0.68    0.22
  -8  24 -14    0.16    0.17
 -14  -8  24    0.35    0.21
   8  24  14    0.68    0.22
  14   8  24    0.54    0.22
  24  14   8    0.54    0.24
 -16   8  24   55.96    1.79
  -8  24  16   56.39    1.88
 -24  16   8   54.12    1.79
  16  -8  24   54.20    1.91
  24  16  -8   51.69    1.89
  24 -16   8   56.26    1.86
 -16  -8  24   55.42    1.95
  24  16   8   57.09    1.90
   8  24  16   56.47    1.85
  16   8  24   56.72    1.78
  -8  24 -16   54.64    1.85
  24  18  -8    0.34    0.20
  18  -8  24    0.57    0.26
 -24  18   8    0.34    0.18
 -18   8  24    0.20    0.20
  24 -18   8    0.25    0.25
  -8  24  18    0.30    0.24
  18   8  24    0.40    0.24
 -18  -8  24    0.14    0.16
  -8  24 -18    0.51    0.24
   8  24  18    0.23    0.21
  -8 -24  18    0.20    0.21
  24  18   8   -0.02    0.19
 -24  20   8   38.39    1.42
   8 -24  20   40.14    1.49
  -8  24  20   37.65    1.51
 -20   8  24   37.19    1.43
   8  24  20   37.96    1.47
  -8  24 -20   39.11    1.52
  -8 -24  20   39.08    1.49
  24  20   8   36.69    1.50
   0  10  24    0.13    0.16
  24   0  10    0.09    0.15
 -10  24   0    0.21    0.16
  10  24   0    0.14    0.16
   0 -10  24    0.31    0.18
  24   0 -10   -0.02    0.16
  10  24  -2    0.93    0.23
  -2  10  24    1.60    0.27
 -10  24   2    1.27    0.26
   2 -10  24    1.54    0.29
  24  -2  10    1.31    0.28
  24   2 -10    2.13    0.32
  10  24   2    1.03    0.23
  -2 -10  24    1.15    0.26
  24  -2 -10    1.23    0.26
 -10  24  -2    1.05    0.25
   2  10  24    1.70    0.26
  24   2  10    1.35    0.27
   4 -10  24    0.24    0.18
  24   4 -10    0.35    0.20
  10  24  -4    0.55    0.20
  -4  10  24    0.38    0.21
 -10  24   4    0.69    0.22
  24  -4  10    0.75    0.24
  24   4  10    0.24    0.19
  10  24   4    0.52    0.20
  24  -4 -10    0.34    0.20
   4  10  24    0.44    0.20
  -4 -10  24    0.17    0.17
 -10  24  -4    0.48    0.21
  10  24  -6    1.23    0.26
  -6  10  24    1.77    0.30
 -10  24   6    1.40    0.28
 -24   6  10    2.11    0.29
 -10  24   6    1.81    0.27
   6 -10  24    1.62    0.30
  24  -6  10    2.64    0.35
  24   6 -10    1.75    0.29
  -6 -10  24    2.06    0.34
  24   6  10    1.95    0.31
 -10  24  -6    2.17    0.31
  10  24   6    1.19    0.25
   6  10  24    2.02    0.29
  24   6  10    1.60    0.29
  24  -6 -10    1.91    0.29
 -10  24   8    0.90    0.25
  10  24  -8    0.80    0.23
 -24   8  10    0.81    0.22
  -8  10  24    0.61    0.22
  24  -8  10    0.53    0.23
  24   8 -10    0.35    0.18
 -10  24   8    0.37    0.20
   8 -10  24    0.88    0.23
  -8 -10  24    0.88    0.25
 -10  24  -8    0.64    0.23
  24  -8 -10    0.60    0.21
  24   8  10    0.63    0.23
  24   8  10    0.64    0.25
   8  10  24    0.79    0.24
  10  24   8    0.37    0.19
 -10  24  10    0.02    0.18
  24  10 -10   -0.04    0.16
  10  24 -10    0.05    0.15
  10 -10  24    0.17    0.16
  24 -10  10    0.10    0.19
 -10  24  10    0.27    0.18
 -24  10  10    0.08    0.13
 -10  10  24   -0.08    0.18
  24 -10 -10    0.04    0.17
  24  10  10    0.04    0.15
  10  10  24    0.04    0.19
  10  24  10    0.22    0.17
  24  10  10   -0.10    0.17
 -10  24 -10   -0.04    0.18
 -10 -10  24   -0.04    0.15
 -10  24  12   -0.04    0.18
  24  12 -10   -0.02    0.16
  10  24 -12    0.32    0.19
  12 -10  24    0.41    0.21
 -24  12  10    0.48    0.20
 -12  10  24    0.16    0.18
  24 -12  10    0.51    0.24
 -10  24 -12    0.33    0.20
 -12 -10  24    0.17    0.17
  24  12  10    0.19    0.19
  10  24  12    0.13    0.21
  24  12  10   -0.41    0.16
  12  10  24    0.22    0.20
  14 -10  24    1.18    0.29
 -14  10  24    1.27    0.28
  24  14 -10    1.35    0.29
 -24  14  10    1.85    0.30
 -10  24  14    1.65    0.32
  24 -14  10    2.07    0.34
 -14 -10  24    1.14    0.28
  10  24  14    1.84    0.32
 -10  24 -14    1.11    0.27
  24  14  10    1.33    0.32
  14  10  24    1.77    0.31
 -10  24  16    0.25    0.25
  24 -16  10    0.33    0.25
  16 -10  24    0.33    0.19
 -24  16  10    0.53    0.21
 -16  10  24    0.76    0.26
  24  16 -10    0.32    0.22
 -16 -10  24    0.34    0.22
 -10  24 -16    0.59    0.22
  24  16  10    0.67    0.26
  10  24  16    0.75    0.25
  16  10  24    0.53    0.25
 -24  18  10    0.03    0.17
 -18  10  24    0.07    0.20
  24 -18  10    0.48    0.24
 -10  24  18    0.04    0.20
  24  18 -10    0.29    0.18
  24  18  10    0.25    0.24
 -18 -10  24    0.11    0.21
  10  24  18    0.35    0.24
 -10 -24  18    0.02    0.22
 -10  24 -18    0.14    0.19
  18  10  24    0.05    0.21
  10 -24  20    0.72    0.31
 -10  24  20    0.77    0.29
  24  20 -10    1.04    0.30
 -24  20  10    0.46    0.22
 -20  10  24    0.92    0.31
 -10 -24  20    0.42    0.30
  24  20  10    1.14    0.31
 -10  24 -20    1.25    0.31
  20  10  24    0.65    0.29
  10  24  20    0.72    0.31
   0 -12  24   39.86    1.50
  24   0 -12   40.55    1.46
 -12  24   0   38.61    1.39
   0  12  24   42.84    1.42
  24   0  12   41.21    1.50
  12  24   0   40.67    1.34
  24  -2  12    0.26    0.17
 -12  24   2    0.09    0.18
   2 -12  24   -0.09    0.20
  12  24  -2    0.40    0.18
  24   2 -12    0.06    0.16
  -2  12  24    0.01    0.17
  -2 -12  24   -0.67    0.19
   2  12  24   -0.22    0.16
  24   2  12    0.21    0.19
  24   2  12    0.19    0.18
  24  -2 -12    0.31    0.20
 -12  24  -2    0.33    0.18
  12  24   2    0.27    0.16
  -4  12  24   76.85    2.20
  24  -4  12   75.28    2.33
   4 -12  24   79.91    2.36
  24   4 -12   72.08    2.30
 -24   4  12   75.59    2.22
  12  24  -4   71.51    2.16
 -12  24   4   74.66    2.19
 -12  24  -4   69.91    2.20
  12  24   4   76.75    2.18
   4  12  24   73.44    2.17
  24  -4 -12   75.50    2.27
  24   4  12   74.29    2.19
  24   4  12   76.01    2.34
  -4 -12  24   69.88    2.33
  24  -6  12    0.39    0.21
 -12  24   6    0.06    0.16
   6 -12  24   -0.17    0.21
 -24   6  12    0.20    0.16
  12  24  -6    0.19    0.16
  -6  12  24    0.00    0.20
 -12  24   6    0.25    0.17
  24   6 -12    0.05    0.16
 -12  24  -6    0.14    0.18
   6  12  24    0.04    0.18
  24   6  12    0.07    0.16
  -6 -12  24   -0.06    0.21
  24   6  12    0.22    0.19
  24  -6 -12   -0.07    0.17
  12  24   6    0.28    0.19
 -12  24   8   43.86    1.46
  24  -8  12   44.62    1.60
  -8  12  24   41.94    1.48
  24   8 -12   45.56    1.62
   8 -12  24   44.03    1.60
  12  24  -8   45.73    1.49
 -12  24   8   48.80    1.52
 -24   8  12   45.55    1.53
   8  12  24   44.18    1.50
  -8 -12  24   43.13    1.63
  24   8  12   43.24    1.53
  24   8  12   41.07    1.55
 -12  24  -8   43.06    1.53
  24  -8 -12   45.20    1.51
  12  24   8   43.10    1.49
  12  24 -10    0.16    0.18
  10 -12  24   -0.07    0.17
  24 -10  12    0.37    0.23
 -12  24  10    0.33    0.17
 -10  12  24    0.22    0.19
 -24  10  12    0.22    0.17
  24  10 -12    0.43    0.19
  12  24  10    0.06    0.16
  24  10  12    0.20    0.19
  24  10  12    0.17    0.19
  24 -10 -12    0.51    0.21
 -10 -12  24    0.00    0.19
  10  12  24   -0.02    0.19
 -12  24 -10    0.11    0.18
  24  12 -12   50.83    1.82
 -12  12  24   53.12    1.75
  12 -12  24   50.01    1.80
 -24  12  12   50.47    1.71
 -12  24  12   53.57    1.73
  24 -12  12   50.34    1.77
 -12 -12  24   51.37    1.86
  12  12  24   54.12    1.73
 -12  24 -12   53.09    1.78
  12  24  12   50.08    1.71
  24  12  12   51.74    1.77
 -24  14  12    0.38    0.20
 -12  24  14    0.13    0.18
 -14  12  24    0.23    0.22
  24  14 -12    0.34    0.20
  24 -14  12    0.13    0.23
  14 -12  24    0.22    0.26
  14  12  24    0.11    0.22
 -12  24 -14    0.25    0.19
 -14 -12  24    0.50    0.24
  24  14  12    0.48    0.26
  12  24  14    0.11    0.16
 -24  16  12   29.50    1.22
 -16  12  24   27.78    1.20
 -12  24  16   30.09    1.26
  16 -12  24   30.44    1.31
  24  16 -12   26.23    1.23
  24 -16  12   31.26    1.28
  24  16  12   30.40    1.30
 -12  24 -16   31.79    1.29
  12  24  16   30.63    1.25
  16  12  24   30.93    1.24
 -16 -12  24   29.14    1.31
 -24  18  12    0.42    0.23
 -18  12  24   -0.11    0.17
  24  18 -12    0.11    0.20
 -12  24  18    0.49    0.24
  24 -18  12    0.32    0.27
  18  12  24    0.23    0.24
 -12  24 -18    0.33    0.21
  24  18  12   -0.10    0.23
 -12 -24  18    0.07    0.21
  12  24  18    0.08    0.19
  24   0  14    0.01    0.17
  24   0  14    0.07    0.15
  24   0 -14    0.06    0.19
 -14  24   0    0.09    0.15
  14  24   0    0.40    0.18
   0 -14  24    0.20    0.19
   0  14  24    0.10    0.19
  14  24  -2    0.22    0.18
   2 -14  24    0.67    0.25
  -2  14  24    0.17    0.21
  24   2 -14    0.45    0.20
 -14  24   2    0.61    0.23
  24  -2  14    0.61    0.23
  -2 -14  24    0.38    0.21
   2  14  24    0.49    0.22
 -14  24  -2    0.95    0.25
  14  24   2    0.33    0.19
  24   2  14    0.24    0.19
  24   2  14    0.67    0.24
  24  -2 -14    0.49    0.21
  24  -4  14    0.55    0.23
  14  24  -4    0.11    0.16
 -24   4  14    0.23    0.18
  24   4 -14    0.22    0.19
  -4  14  24    0.42    0.23
 -14  24   4    0.41    0.20
   4 -14  24    0.41    0.23
  -4 -14  24    0.19    0.20
  24   4  14    0.66    0.23
   4  14  24    0.55    0.23
 -14  24  -4    0.05    0.18
  24  -4 -14    0.69    0.22
  24   4  14    0.39    0.21
  14  24   4    0.11    0.18
 -14  24   6    0.86    0.21
  14  24  -6    0.34    0.19
 -24   6  14    0.12    0.18
   6 -14  24    0.39    0.23
  -6  14  24    0.67    0.25
 -14  24   6    0.43    0.21
  24  -6  14    0.53    0.24
  24   6 -14    0.50    0.25
  24   6  14    0.68    0.23
 -14  24  -6    0.28    0.20
  24   6  14    0.60    0.24
  14  24   6    0.32    0.20
   6  14  24    0.08    0.19
  -6 -14  24    0.22    0.21
  24  -6 -14    0.58    0.23
  14  24  -8    0.65    0.21
 -24   8  14    0.44    0.19
   8 -14  24    0.68    0.27
  -8  14  24    0.12    0.19
  24   8 -14    0.38    0.20
 -14  24   8    0.13    0.17
  24  -8  14    0.46    0.23
  24  -8 -14    0.35    0.20
  -8 -14  24    0.08    0.20
 -14  24  -8    0.40    0.21
  24   8  14    0.68    0.24
   8  14  24    0.70    0.25
  14  24   8    0.24    0.18
  24   8  14    0.36    0.22
  24  10 -14    1.44    0.31
  10 -14  24    1.78    0.32
 -10  14  24    2.00    0.33
  24 -10  14    1.45    0.31
 -14  24  10    1.23    0.28
 -24  10  14    1.27    0.27
  24  10  14    1.41    0.30
 -14  24 -10    1.70    0.33
  10  14  24    2.07    0.33
  14  24  10    1.53    0.30
  24  10  14    1.98    0.33
 -10 -14  24    1.48    0.34
  24 -12  14    0.64    0.27
  12 -14  24    0.26    0.20
 -12  14  24    0.05    0.21
 -24  12  14    0.10    0.17
  24  12 -14    0.08    0.18
 -14  24  12    0.02    0.18
  24  12  14    0.34    0.24
 -12 -14  24    0.32    0.22
  12  14  24    0.27    0.22
 -14  24 -12    0.16    0.19
  14  24  12   -0.08    0.19
 -24  14  14    0.29    0.20
  24 -14  14    0.07    0.24
  14 -14  24    0.18    0.23
  24  14 -14    0.36    0.21
 -14  14  24    0.22    0.22
 -14  24  14    0.18    0.22
  14  14  24    0.28    0.24
 -14  24 -14    0.25    0.21
 -14 -14  24    0.29    0.25
  24  14  14    0.75    0.28
  14  24  14    0.16    0.21
  24 -16  14    0.41    0.28
 -16  14  24    1.20    0.30
 -14  24  16    0.45    0.26
 -24  16  14    0.67    0.24
  24  16 -14    0.52    0.25
  16  14  24    0.75    0.28
 -14  24 -16    0.45    0.23
  14  24  16    0.37    0.26
  24  16  14    0.63    0.31
 -14 -24  18    0.04    0.24
   0  16  24   77.33    2.27
  16  24   0   73.90    2.18
 -16  24   0   72.47    2.23
  24   0 -16   74.02    2.32
   0 -16  24   70.83    2.33
  24   0  16   76.18    2.37
  -2  16  24    0.31    0.26
 -24   2  16    0.29    0.21
   2 -16  24   -0.30    0.22
  24   2 -16    1.01    0.28
  24  -2  16    0.17    0.19
 -16  24   2    0.43    0.20
  16  24  -2    0.51    0.20
  24  -2 -16    0.69    0.25
  -2 -16  24   -0.38    0.24
  -2  16 -24    0.69    0.22
  16  24   2    0.32    0.19
   2  16  24    0.19    0.25
  24   2  16    0.79    0.25
 -16  24  -2    0.28    0.21
  24   2  16    0.29    0.21
 -24   4  16   42.82    1.50
  24  -4  16   41.69    1.57
  -4  16  24   42.94    1.52
  24   4 -16   42.79    1.58
  16  24  -4   43.23    1.47
   4 -16  24   45.07    1.59
 -16  24   4   42.13    1.46
 -16  24  -4   43.22    1.53
  24   4  16   42.68    1.48
   4  16  24   41.58    1.51
  -4 -16  24   41.80    1.59
  16  24   4   42.19    1.48
  24  -4 -16   42.24    1.53
  24   4  16   40.63    1.56
 -24   6  16    0.36    0.20
  24  -6  16    0.34    0.21
  -6  16  24   -0.41    0.22
   6 -16  24    0.11    0.23
  16  24  -6    0.16    0.19
  24   6 -16    0.23    0.23
 -16  24  -6    0.08    0.20
  -6 -16  24    0.08    0.24
  24   6  16    0.19    0.20
  24  -6 -16    0.38    0.23
  24   6  16    0.35    0.21
   6  16  24    0.22    0.23
  16  24   6    0.08    0.18
  24  -8  16   54.13    1.90
 -24   8  16   55.82    1.83
  -8  16  24   58.20    1.86
  24   8 -16   55.60    1.92
   8 -16  24   53.23    1.87
 -16  24   8   55.66    1.76
 -16  24  -8   53.63    1.82
  16  24   8   55.34    1.82
  -8 -16  24   55.96    1.94
  24   8  16   52.10    1.81
  24  -8 -16   56.28    1.82
  24   8  16   53.07    1.86
   8  16  24   53.31    1.81
 -10  16  24    0.58    0.26
  10 -16  24    0.26    0.24
  24 -10  16    0.76    0.30
 -16  24  10    0.73    0.24
 -24  10  16    0.37    0.19
  24  10 -16    0.60    0.23
 -10 -16  24    0.64    0.29
  24  10  16    0.69    0.27
  16  24  10    0.45    0.25
  10  16  24    0.24    0.26
 -16  24 -10    0.60    0.25
 -24  12  16   30.31    1.24
  24  12 -16   29.17    1.29
  12 -16  24   30.35    1.29
  24 -12  16   29.64    1.29
 -12  16  24   31.10    1.26
 -16  24  12   31.52    1.24
 -16  24 -12   28.74    1.25
 -12 -16  24   29.44    1.31
  24  12  16   29.40    1.27
 -24 -12  16   28.71    1.29
  12  16  24   30.44    1.26
  16  24  12   31.14    1.26
 -14  16  24    0.43    0.26
 -24  14  16    0.57    0.25
 -16  24  14    0.86    0.27
  16  24  14    0.62    0.26
 -16  24 -14    0.66    0.25
  14  16  24    0.56    0.27
  24  14  16    0.61    0.29
 -16  16  24   42.54    1.60
 -16  24  16   41.41    1.60
 -24  16  16   44.21    1.61
  16  24  16   42.30    1.61
  16  16  24   43.16    1.60
  24  16  16   42.89    1.67
 -16  24 -16   42.96    1.65
   0 -18  24    0.25    0.22
  24   0  18    0.19    0.20
  24   0 -18   -0.31    0.16
  18  24   0    0.21    0.20
   0  18  24   -0.07    0.19
 -18  24   0    0.31    0.23
 -24   2  18   -0.02    0.17
  -2  18  24    0.05    0.21
  24  -2  18   -0.15    0.15
  18  24  -2    0.00    0.17
  24   2 -18    0.11    0.21
   2 -18  24    0.15    0.22
  -2  18 -24    0.25    0.19
 -18  24  -2   -0.20    0.16
  24  -2 -18    0.04    0.21
  -2 -18  24    0.33    0.22
  24   2  18    0.20    0.17
  18  24   2    0.10    0.19
   2  18  24    0.09    0.23
   4 -18  24    0.30    0.21
 -24   4  18    0.34    0.23
  18  24  -4    0.08    0.18
  -4  18  24    0.28    0.22
  24   4 -18    0.12    0.20
  24  -4  18    0.50    0.23
  -4 -18  24    0.49    0.23
  -4  18 -24    0.18    0.19
   4  18  24    0.39    0.25
  24   4  18    0.21    0.20
 -18  24  -4    0.41    0.22
  24   4  18    0.35    0.22
  24  -4 -18    0.54    0.25
  18  24   4    0.31    0.21
  24  -6  18    0.63    0.27
  24   6 -18    0.54    0.26
 -24   6  18    0.42    0.24
   6 -18  24    0.65    0.26
  -6  18  24    0.92    0.30
 -18  24  -6    0.71    0.25
   6  18  24    0.92    0.30
  24   6  18    0.62    0.25
  24   6  18    0.60    0.25
 -24  -6  18    0.42    0.20
  -6 -18  24    0.47    0.24
  18  24   6    0.54    0.24
  24  -6 -18    0.40    0.24
  24  -8  18    0.18    0.26
 -18  24   8    0.16    0.19
 -24   8  18    0.47    0.22
   8 -18  24    0.28    0.25
  24   8 -18    0.18    0.24
  -8  18  24   -0.04    0.23
  -8 -18  24    0.23    0.23
  24   8  18    0.40    0.23
 -24  -8  18    0.38    0.22
 -18  24  -8    0.39    0.19
   8  18  24    0.20    0.24
  24   8  18    0.57    0.24
  18  24   8    0.25    0.20
  10 -18  24    0.05    0.21
 -10  18  24   -0.13    0.23
 -24  10  18    0.32    0.21
 -18  24  10    0.15    0.18
  24  10  18    0.15    0.22
 -18  24 -10    0.13    0.21
 -10 -18  24   -0.02    0.23
  18  24  10    0.04    0.22
  10  18  24    0.27    0.22
 -24 -10  18    0.06    0.23
 -24  12  18    0.14    0.17
 -18  24  12    0.00    0.18
 -12  18  24    0.12    0.21
 -18  24 -12    0.42    0.24
  24  12  18   -0.19    0.22
  18  24  12    0.15    0.20
  12  18  24   -0.02    0.20
   0 -20  24   35.01    1.44
  24   0  20   38.05    1.50
  20  24   0   39.18    1.41
   0  20  24   36.26    1.43
  24   0 -20   35.85    1.45
  24  -2  20    1.20    0.31
   2 -20  24   -0.03    0.28
  -2  20  24    0.17    0.25
 -24   2  20    1.22    0.30
  24   2 -20    1.07    0.33
  20  24  -2    1.53    0.31
  -2 -20  24   -0.28    0.30
   2  20  24    0.65    0.30
  24  -2 -20    1.42    0.33
 -20  24  -2    1.07    0.27
  24   2  20    0.66    0.28
  -2  20 -24    1.43    0.30
  20  24   2    0.73    0.27
 -24   4  20   46.80    1.68
   4 -20  24   51.45    1.80
  24   4 -20   44.22    1.75
  -4  20  24   49.13    1.75
  24  -4  20   52.82    1.85
  20  24   4   49.33    1.72
 -24  -4  20   50.40    1.82
   4  20  24   47.07    1.72
  -4  20 -24   49.70    1.74
  24  -4 -20   48.80    1.74
 -20  24  -4   48.74    1.71
  -4 -20  24   50.29    1.83
  24   4  20   51.52    1.82
 -24   6  20    0.58    0.27
  -6  20  24    0.40    0.30
   6 -20  24   -0.15    0.26
 -20  24  -6    0.33    0.25
   6  20  24    0.54    0.29
  24   6  20    0.81    0.27
  20  24   6    0.40    0.22
  24  -6 -20    0.68    0.29
  24   6  20    0.35    0.23
  -6  20 -24    0.25    0.21
  -6 -20  24    0.10    0.32
  -8  20  24   36.14    1.48
 -24   8  20   38.96    1.48
  -8  20 -24   37.89    1.49
 -20  24  -8   39.29    1.50
   8  20  24   36.19    1.47
  24   8  20   39.67    1.48
  20  24   8   38.83    1.50
 -20  24  10    1.11    0.29
 -24  10  20    1.07    0.30
 -10  20  24    1.04    0.36
  20  24  10    0.94    0.30
  10  20  24    0.61    0.31
 -20  24 -10    0.78    0.29
  24  10  20    1.32    0.33
 -24   0  22   -0.01    0.20
  22  24   0    0.27    0.23
   0 -22  24    0.16    0.26
   0  22  24    0.31    0.27
  -2  22  24    0.34    0.27
  22  24  -2    0.44    0.24
 -24   2  22   -0.12    0.20
  24   2  22    0.60    0.29
   2  22  24    0.40    0.27
  24  -2 -22    0.08    0.27
  -2  22 -24    0.65    0.27
  22  24   2    0.19    0.23
  -4  22  24    0.19    0.26
 -24   4  22    0.06    0.20
  -4  22 -24   -0.05    0.19
 -22  24  -4   -0.35    0.20
  24  -4 -22    0.10    0.23
  22  24   4    0.26    0.24
  24   4  22    0.20    0.24
   4  22  24    0.09    0.23
  24   6  22    0.55    0.28
  -1  25   1    0.06    0.14
   1  25  -1   -0.04    0.14
  25  -1   1    0.16    0.18
   1  -1  25   -0.14    0.11
  -1   1  25   -0.13    0.12
  25   1  -1    0.15    0.18
  -1  -1  25   -0.13    0.12
  -1  25  -1    0.04    0.15
   1   1  25   -0.04    0.13
   1  25   1   -0.29    0.12
  25  -1  -1   -0.05    0.15
  25   1   1    0.00    0.13
  -3   1  25    0.01    0.12
   3  -1  25    0.03    0.17
   1  25  -3   -0.12    0.13
  25   3  -1    0.00    0.14
  -1  25   3   -0.03    0.12
  25  -3   1    0.00    0.14
  -1  25   3   -0.19    0.13
  25   3   1   -0.05    0.15
   1  25   3   -0.13    0.12
  25  -3  -1    0.01    0.16
   3   1  25    0.07    0.14
   1  25   3   -0.01    0.14
  -3  -1  25    0.02    0.13
  -1  25  -3    0.00    0.13
  -1  25   5   -0.02    0.14
  25  -5   1    0.05    0.17
  25   5  -1   -0.20    0.13
   5  -1  25    0.11    0.19
  -1  25   5    0.29    0.17
  -5   1  25    0.07    0.14
   1  25  -5    0.04    0.13
  -5  -1  25    0.12    0.16
   1  25   5    0.01    0.14
  -1  25  -5    0.03    0.13
  25  -5  -1    0.25    0.18
   1  25   5    0.26    0.18
   5   1  25    0.06    0.16
  25   5   1    0.10    0.14
  -1  25   7    0.15    0.17
  25  -7   1    0.18    0.17
   7  -1  25    0.19    0.18
   1  25  -7    0.23    0.17
  -7   1  25    0.34    0.18
  -7   1  25    0.17    0.14
  25   7  -1    0.08    0.16
  -1  25   7    0.09    0.17
  25   7   1    0.14    0.18
   7   1  25    0.19    0.18
   1  25   7    0.40    0.19
  25  -7  -1    0.15    0.18
  -1  25  -7    0.17    0.14
  -7  -1  25    0.10    0.14
   1  25   7    0.30    0.17
  -1  25   9    0.00    0.14
  -9   1  25    0.13    0.16
  25  -9   1   -0.14    0.16
  -1  25   9   -0.08    0.14
   1  25  -9    0.10    0.14
  -9   1  25   -0.11    0.13
  25   9  -1   -0.04    0.14
   9  -1  25    0.18    0.17
  25   9   1   -0.02    0.14
  -1  25  -9   -0.13    0.12
   9   1  25    0.06    0.15
   1  25   9   -0.09    0.15
  25  -9  -1    0.16    0.18
  -9  -1  25   -0.01    0.11
  -1  25  11    0.44    0.21
 -11   1  25    0.00    0.15
  25 -11   1    0.13    0.17
  25  11  -1   -0.10    0.14
  -1  25  11    0.12    0.17
   1  25 -11    0.15    0.15
 -11   1  25    0.17    0.16
  11  -1  25   -0.08    0.14
  11   1  25    0.14    0.19
  25 -11  -1    0.12    0.19
   1  25  11    0.16    0.19
  -1  25 -11   -0.11    0.14
  25  11   1    0.16    0.18
 -11  -1  25    0.03    0.14
  -1  25  13   -0.10    0.16
  13  -1  25    0.07    0.17
 -13   1  25   -0.15    0.11
  25 -13   1   -0.07    0.18
  25  13  -1    0.03    0.15
 -13   1  25   -0.32    0.12
   1  25 -13   -0.04    0.14
  13   1  25   -0.02    0.16
 -13  -1  25   -0.03    0.14
  25 -13  -1    0.10    0.20
  25  13   1   -0.05    0.14
  -1  25 -13    0.04    0.14
   1  25  13    0.16    0.17
  -1  25  15    0.33    0.23
 -15   1  25    0.59    0.22
   1  25 -15    0.72    0.25
  25  15  -1    0.25    0.21
  15  -1  25    0.47    0.25
 -15   1  25    0.28    0.20
  25 -15   1    0.64    0.24
  15   1  25    0.35    0.21
 -15  -1  25    0.37    0.22
   1  25  15    0.85    0.27
 -15  -1  25    0.57    0.22
  -1  25 -15    0.44    0.22
  25 -15  -1    0.44    0.24
  25  15   1    0.51    0.23
  17  -1  25    0.15    0.16
  25  17  -1    0.05    0.20
  25  17  -1    0.31    0.21
 -17   1  25    0.13    0.19
 -17   1  25   -0.03    0.17
   1  25 -17   -0.07    0.17
  -1  25  17    0.15    0.20
   1  25  17    0.10    0.20
  17   1  25    0.13    0.18
  25  17   1    0.08    0.18
  -1  25 -17    0.09    0.21
 -17  -1  25    0.20    0.19
 -17  -1  25   -0.03    0.19
   1  25 -19   -0.11    0.18
  -1  25  19    0.31    0.23
 -19   1  25    0.06    0.17
  25  19  -1   -0.07    0.19
  19  -1  25   -0.08    0.19
 -19   1  25    0.17    0.21
  19   1  25   -0.11    0.19
  25  19   1    0.15    0.23
 -19  -1  25    0.11    0.21
  -1  25 -19   -0.10    0.21
 -19  -1  25    0.15    0.22
   1  25  19    0.07    0.20
   1 -25  21   -0.25    0.20
 -21   1  25   -0.11    0.19
  -1  25  21   -0.21    0.18
  25  21  -1    0.10    0.20
 -21   1  25    0.13    0.20
   1  25 -21   -0.08    0.18
  25  21   1    0.04    0.20
  21   1  25    0.11    0.22
  -1  25 -21   -0.10    0.18
 -21  -1  25    0.19    0.24
   1  25  21    0.11    0.22
  -1 -25  21    0.14    0.22
   1  -3  25   -0.03    0.15
  -3  25   1   -0.15    0.14
  25  -1   3    0.01    0.15
  25   1  -3   -0.04    0.15
   3  25  -1   -0.06    0.14
  -1   3  25   -0.08    0.12
  -1   3  25   -0.07    0.12
   1   3  25   -0.08    0.13
  -3  25  -1    0.16    0.16
  25  -1  -3   -0.08    0.15
  25   1   3   -0.12    0.15
   1   3  25    0.02    0.13
   3  25   1    0.07    0.13
  -1  -3  25    0.13    0.14
  -3   3  25    0.14    0.13
   3  25  -3    0.00    0.13
  25  -3   3    0.04    0.18
  -3   3  25   -0.13    0.12
  25   3  -3   -0.06    0.13
   3  -3  25   -0.01    0.14
  -3  25   3   -0.07    0.14
  -3  25  -3   -0.07    0.15
  25  -3  -3   -0.03    0.15
  25   3   3    0.13    0.15
  -3  -3  25    0.06    0.14
   3  25   3   -0.13    0.14
   3  25   3    0.04    0.15
   3   3  25   -0.25    0.11
  -5   3  25    0.03    0.13
  -3  25   5   -0.01    0.14
  -5   3  25    0.26    0.16
  -3  25   5    0.01    0.15
  25  -5   3    0.38    0.20
   5  -3  25    0.22    0.19
   3  25  -5    0.29    0.16
  25   5  -3    0.03    0.14
  25   5   3    0.06    0.16
   3  25   5   -0.13    0.13
  25  -5  -3    0.12    0.16
  -3  25  -5    0.26    0.16
  -5  -3  25    0.13    0.15
   3  25   5    0.07    0.14
   5   3  25   -0.07    0.15
   7  -3  25    0.08    0.14
  -3  25   7    0.12    0.15
  -7   3  25    0.16    0.16
  -7   3  25    0.04    0.13
  25  -7   3    0.14    0.18
  25   7  -3   -0.13    0.12
   3  25  -7    0.04    0.12
  -3  25   7    0.05    0.15
  25  -7  -3   -0.09    0.15
  25   7   3   -0.07    0.14
  -7  -3  25    0.02    0.13
   3  25   7    0.03    0.15
  -3  25  -7   -0.08    0.12
   7   3  25    0.04    0.15
   9  -3  25    0.35    0.20
  -3  25   9    0.33    0.18
  -9   3  25    0.40    0.17
  -9   3  25    0.15    0.16
   3  25  -9    0.54    0.19
  -3  25   9    0.51    0.20
  25  -9   3    0.56    0.24
  25   9  -3    0.26    0.18
  25  -9  -3    0.27    0.19
  -9  -3  25    0.29    0.18
   9   3  25    0.32    0.19
  -3  25  -9    0.19    0.16
   3  25   9    0.51    0.21
  25   9   3    0.60    0.21
 -11   3  25    0.26    0.18
  -3  25  11    0.02    0.16
  -3  25  11   -0.07    0.14
 -11   3  25   -0.01    0.13
   3  25 -11    0.13    0.14
  25 -11   3    0.16    0.21
  25  11  -3    0.08    0.18
  11  -3  25   -0.10    0.17
  25 -11  -3    0.05    0.18
  11   3  25   -0.25    0.14
 -11  -3  25    0.11    0.16
   3  25  11   -0.14    0.14
  -3  25 -11    0.11    0.17
  25  11   3    0.22    0.20
  -3  25  13    0.24    0.18
  13  -3  25    0.04    0.18
  25  13  -3    0.06    0.16
 -13   3  25    0.05    0.16
   3  25 -13    0.02    0.15
  -3  25  13    0.00    0.17
 -13   3  25    0.27    0.18
  25 -13   3    0.32    0.21
  25  13   3    0.36    0.20
  25 -13  -3   -0.19    0.16
 -13  -3  25   -0.15    0.14
  13   3  25    0.17    0.18
   3  25  13   -0.11    0.16
  -3  25 -13   -0.18    0.12
  15  -3  25    0.03    0.16
  -3  25  15   -0.15    0.16
 -15   3  25   -0.07    0.14
  25 -15   3   -0.25    0.19
   3  25 -15    0.07    0.17
  -3  25  15   -0.06    0.17
 -15   3  25    0.03    0.17
  25  15  -3    0.04    0.17
  25  15   3   -0.06    0.15
  15   3  25   -0.17    0.16
 -15  -3  25    0.01    0.17
   3  25  15    0.32    0.23
  -3  25 -15   -0.38    0.14
  25  15   3    0.18    0.22
  25  17  -3    0.10    0.21
   3  25 -17    0.03    0.19
  -3  25  17    0.17    0.21
 -25  17   3    0.16    0.18
 -17   3  25    0.05    0.18
  17  -3  25    0.14    0.20
 -17   3  25    0.08    0.18
  25  17   3   -0.04    0.16
  17   3  25    0.27    0.21
 -17  -3  25   -0.03    0.17
   3  25  17    0.18    0.19
  -3  25 -17   -0.12    0.15
 -19   3  25   -0.17    0.16
  25  19  -3   -0.06    0.18
  19  -3  25    0.12    0.19
  -3  25  19   -0.17    0.17
   3  25 -19   -0.11    0.17
 -19   3  25   -0.38    0.16
  25  19   3    0.04    0.21
 -19  -3  25    0.09    0.18
   3  25  19    0.09    0.20
  -3  25 -19   -0.19    0.16
  19   3  25   -0.18    0.20
 -21   3  25    0.20    0.20
  -3  25  21   -0.07    0.18
  25  21  -3    0.26    0.20
 -21   3  25    0.14    0.23
   3 -25  21    0.18    0.25
   3  25  21   -0.22    0.19
  -3  25 -21   -0.18    0.18
  25  21   3    0.12    0.21
  21   3  25   -0.03    0.24
  -3 -25  21    0.12    0.22
  25  -1   5   -0.04    0.14
  25   1  -5    0.13    0.16
   1  -5  25   -0.10    0.15
  -1   5  25    0.11    0.14
   5  25  -1    0.14    0.13
  -1   5  25    0.15    0.14
  -5  25   1    0.12    0.15
  25  -1  -5    0.24    0.18
   5  25   1    0.04    0.13
  -5  25  -1   -0.06    0.14
   1   5  25    0.11    0.15
  -1  -5  25   -0.02    0.15
   1   5  25    0.20    0.17
  25   1   5    0.14    0.16
  -5  25   3   -0.03    0.15
   3  -5  25    0.04    0.17
  -3   5  25    0.24    0.16
  25   3  -5   -0.05    0.16
  -3   5  25    0.17    0.15
   5  25  -3    0.07    0.16
  25  -3   5    0.29    0.19
  25  -3  -5    0.21    0.19
  -5  25  -3   -0.03    0.13
   5  25   3   -0.17    0.14
   3   5  25    0.07    0.14
   5  25   3    0.14    0.13
   3   5  25    0.04    0.14
  25   3   5    0.03    0.16
  -3  -5  25    0.30    0.17
  -5  25   5   -0.09    0.14
   5  25  -5    0.05    0.12
  -5  25   5   -0.09    0.13
  -5   5  25   -0.01    0.13
  25   5  -5    0.18    0.17
  25  -5   5   -0.06    0.16
  -5   5  25   -0.09    0.13
   5  -5  25    0.03    0.14
   5   5  25   -0.21    0.11
  -5  25  -5    0.13    0.17
   5  25   5    0.05    0.15
  -5  -5  25    0.01    0.13
   5   5  25    0.22    0.16
  25   5   5    0.02    0.15
  25  -5  -5    0.25    0.20
  -5  25   7   -0.07    0.14
   5  25  -7    0.16    0.15
  -5  25   7   -0.25    0.12
  -7   5  25   -0.01    0.13
  25  -7   5    0.00    0.17
   7  -5  25   -0.05    0.14
  -7   5  25   -0.11    0.13
  25   7  -5   -0.02    0.16
  25  -7  -5   -0.02    0.14
   7   5  25   -0.18    0.14
  -5  25  -7    0.04    0.13
  25   7   5    0.04    0.17
  -7  -5  25   -0.10    0.12
   5  25   7    0.07    0.16
   7   5  25   -0.10    0.13
   5  25  -9    0.23    0.16
  25  -9   5    0.26    0.21
  25   9  -5    0.19    0.18
  -9   5  25    0.23    0.17
  -9   5  25    0.21    0.15
   9  -5  25   -0.04    0.17
  -5  25   9    0.33    0.19
  -5  25   9    0.26    0.18
  -9  -5  25    0.28    0.18
  25  -9  -5    0.18    0.19
   5  25   9    0.26    0.19
   9   5  25    0.09    0.17
  25   9   5    0.36    0.19
  -5  25  -9    0.21    0.16
  11  -5  25    0.01    0.17
 -11   5  25    0.10    0.17
  25 -11   5    0.35    0.20
 -11   5  25    0.32    0.16
   5  25 -11   -0.04    0.15
  -5  25  11    0.11    0.18
  25  11  -5    0.18    0.20
  -5  25  11   -0.28    0.14
  11   5  25   -0.14    0.16
 -11  -5  25    0.14    0.16
  25  11   5    0.10    0.18
  -5  25 -11    0.05    0.14
  25 -11  -5    0.20    0.18
   5  25  11   -0.18    0.15
   5  25 -13    0.10    0.16
  -5  25  13    0.07    0.17
  25  13  -5   -0.29    0.16
  25 -13   5   -0.07    0.18
  13  -5  25   -0.02    0.16
 -25  13   5   -0.08    0.13
 -13   5  25    0.07    0.15
  -5  25  13   -0.03    0.16
  25  13   5    0.07    0.18
  -5  25 -13   -0.28    0.13
  25  13   5   -0.19    0.14
  13   5  25    0.04    0.17
  25 -13  -5   -0.11    0.19
 -13  -5  25    0.15    0.16
   5  25  13   -0.04    0.17
 -25  15   5   -0.02    0.16
   5  25 -15    0.21    0.18
 -15   5  25    0.13    0.17
  15  -5  25    0.39    0.22
  -5  25  15    0.08    0.18
  25 -15   5    0.25    0.22
  -5  25  15    0.21    0.22
  25  15  -5    0.19    0.23
   5  25  15    0.19    0.21
  15   5  25    0.33    0.22
 -15  -5  25    0.20    0.20
  25  15   5    0.08    0.18
  -5  25 -15    0.23    0.19
  -5  25  17   -0.02    0.17
  25  17  -5    0.08    0.20
  25 -17   5   -0.11    0.20
  17  -5  25    0.09    0.19
 -17   5  25    0.28    0.21
   5  25 -17   -0.08    0.17
 -25  17   5    0.23    0.20
  17   5  25   -0.13    0.18
   5  25  17   -0.05    0.17
  25  17   5    0.31    0.19
 -17  -5  25   -0.16    0.16
  -5  25 -17   -0.19    0.17
 -19   5  25   -0.23    0.18
  -5  25  19    0.22    0.21
  19  -5  25    0.11    0.21
 -25  19   5    0.12    0.19
 -19  -5  25   -0.13    0.19
   5  25  19    0.08    0.19
  25  19   5    0.12    0.20
  19   5  25    0.07    0.22
  -5  25 -19   -0.11    0.18
   5 -25  21   -0.12    0.24
  -5  25  21    0.58    0.25
 -21   5  25    0.08    0.21
  25  21  -5   -0.07    0.19
  -5 -25  21    0.07    0.24
  25  21   5    0.25    0.23
  -5  25 -21    0.06    0.19
   5  25  21   -0.17    0.19
   7  25  -1    0.08    0.14
  25  -1   7    0.04    0.17
   1  -7  25    0.12    0.15
  -1   7  25    0.27    0.17
  -7  25   1    0.28    0.19
  25   1  -7    0.33    0.18
  25  -1  -7   -0.15    0.14
  -1  -7  25    0.29    0.19
   7  25   1    0.18    0.15
  25   1   7    0.21    0.17
   7  25   1    0.03    0.15
   1   7  25    0.21    0.17
  -7  25  -1    0.21    0.17
   3  -7  25    0.03    0.15
  25   3  -7    0.01    0.17
  -7  25   3   -0.05    0.13
  -3   7  25   -0.05    0.14
  25  -3   7   -0.03    0.18
   7  25  -3    0.20    0.14
  -3  -7  25   -0.07    0.11
  25  -3  -7   -0.23    0.15
  25   3   7    0.04    0.17
  -7  25  -3    0.00    0.17
   7  25   3   -0.14    0.12
   3   7  25   -0.03    0.16
  25  -5   7   -0.24    0.16
  -7  25   5   -0.09    0.13
  -5   7  25   -0.11    0.12
  -7  25   5   -0.01    0.14
  25   5  -7    0.08    0.15
   7  25  -5   -0.09    0.14
   5  -7  25    0.00    0.15
  25   5   7   -0.02    0.15
  -7  25  -5    0.14    0.17
  25  -5  -7    0.05    0.18
   7  25   5   -0.08    0.13
   5   7  25   -0.11    0.15
  -5  -7  25   -0.02    0.11
  -7   7  25    0.15    0.14
  -7  25   7   -0.02    0.14
   7  25  -7    0.04    0.14
   7  -7  25    0.02    0.16
  25  -7   7   -0.41    0.14
  -7  25   7   -0.07    0.14
  25   7  -7   -0.15    0.16
  -7  25  -7    0.02    0.14
  -7  -7  25   -0.10    0.14
   7  25   7   -0.05    0.15
  25  -7  -7   -0.18    0.13
  25   7   7    0.15    0.17
   7   7  25    0.09    0.15
   7  25  -9    0.17    0.17
 -25   9   7   -0.01    0.13
   9  -7  25   -0.14    0.12
  -7  25   9   -0.16    0.17
  25  -9   7    0.03    0.19
  -9   7  25    0.15    0.16
  25   9  -7    0.15    0.16
  -7  25   9   -0.01    0.14
   7  25   9    0.14    0.17
  25  -9  -7    0.01    0.17
  25   9   7   -0.05    0.17
  -7  25  -9   -0.02    0.14
  -9  -7  25    0.01    0.14
   9   7  25    0.08    0.17
  -7  25  11    0.30    0.20
  -7  25  11   -0.06    0.17
 -11   7  25    0.01    0.16
 -25  11   7    0.06    0.14
  25  11  -7    0.12    0.21
   7  25 -11   -0.03    0.14
  11  -7  25   -0.11    0.15
  25 -11   7    0.03    0.21
  11   7  25   -0.01    0.17
  25  11   7    0.06    0.17
  25  11   7    0.02    0.17
  25 -11  -7    0.28    0.20
 -11  -7  25    0.15    0.16
   7  25  11    0.07    0.17
  -7  25 -11   -0.24    0.11
 -13   7  25   -0.06    0.16
 -25  13   7    0.19    0.18
  13  -7  25   -0.01    0.15
  25 -13   7   -0.03    0.18
  -7  25  13   -0.09    0.19
  25  13  -7   -0.03    0.17
   7  25 -13    0.11    0.17
  -7  25  13    0.07    0.19
  25  13   7   -0.12    0.19
 -13  -7  25    0.02    0.17
  25  13   7   -0.15    0.18
  13   7  25   -0.13    0.18
   7  25  13   -0.36    0.14
  -7  25 -13    0.34    0.20
   7  25 -15    0.14    0.18
  25  15  -7    0.15    0.21
 -25  15   7   -0.21    0.15
  -7  25  15   -0.03    0.17
 -15   7  25    0.02    0.19
  25 -15   7    0.00    0.23
  15  -7  25    0.18    0.21
  25  15   7    0.09    0.19
   7  25  15   -0.19    0.16
  -7  25 -15    0.03    0.19
 -15  -7  25   -0.01    0.15
  25 -17   7    0.35    0.25
  17  -7  25   -0.03    0.17
 -17   7  25    0.17    0.20
  -7  25  17    0.16    0.21
 -25  17   7    0.28    0.18
  25  17  -7    0.14    0.19
 -17  -7  25    0.16    0.18
   7  25  17    0.40    0.24
  -7  25 -17    0.28    0.18
  25  17   7    0.21    0.22
 -19   7  25    0.06    0.19
  25  19  -7    0.00    0.20
  -7  25  19   -0.12    0.21
 -25  19   7   -0.19    0.15
  25  19   7   -0.27    0.19
  -7  25 -19   -0.21    0.19
   7  25  19    0.31    0.24
   1  -9  25   -0.08    0.14
   9  25  -1    0.02    0.14
  -1   9  25    0.15    0.16
  -9  25   1    0.08    0.14
  25  -1   9    0.08    0.17
  25   1  -9    0.05    0.17
  -1  -9  25   -0.03    0.16
  25  -1  -9   -0.08    0.16
  -9  25  -1    0.19    0.16
   1   9  25    0.05    0.15
   9  25   1   -0.13    0.13
   9  25   1   -0.11    0.10
  25   1   9   -0.05    0.14
  25   3  -9    0.41    0.22
  -3   9  25    0.50    0.21
  25  -3   9    0.41    0.20
  -9  25   3    0.61    0.22
   3  -9  25    0.31    0.20
   9  25  -3    0.27    0.16
  -3  -9  25    0.28    0.20
   9  25   3    0.38    0.19
  25   3   9    0.72    0.24
  25  -3  -9    0.39    0.20
   3   9  25    0.49    0.21
  -9  25  -3    0.19    0.18
  -5   9  25    0.33    0.19
  25   5  -9    0.34    0.18
   5  -9  25    0.11    0.18
  -9  25   5    0.21    0.18
   9  25  -5    0.05    0.14
  25  -5   9    0.26    0.22
   9  25   5   -0.04    0.16
  -9  25  -5    0.11    0.18
  25  -5  -9   -0.05    0.18
   5   9  25   -0.16    0.16
  25   5   9    0.52    0.22
  -5  -9  25    0.04    0.16
 -25   7   9    0.07    0.14
  -9  25   7    0.01    0.14
  -7   9  25   -0.21    0.14
   9  25  -7    0.22    0.17
   7  -9  25   -0.25    0.14
  25  -7   9    0.18    0.21
  -9  25   7   -0.06    0.16
  25   7  -9   -0.15    0.13
  25   7   9   -0.05    0.16
   9  25   7    0.04    0.16
  25  -7  -9    0.04    0.18
   7   9  25   -0.10    0.15
  25   7   9   -0.08    0.15
  -7  -9  25    0.05    0.16
  -9  25  -7    0.17    0.18
  25   9  -9    0.17    0.19
  -9  25   9   -0.02    0.16
 -25   9   9    0.05    0.15
  25  -9   9   -0.16    0.17
   9  25  -9    0.00    0.14
   9  -9  25   -0.02    0.15
  -9  25   9    0.03    0.17
  -9   9  25    0.03    0.16
  25   9   9   -0.14    0.15
   9  25   9   -0.01    0.16
  -9  25  -9   -0.25    0.15
   9   9  25    0.06    0.18
  -9  -9  25   -0.05    0.14
  25   9   9   -0.10    0.17
  25  -9  -9   -0.23    0.15
  -9  25  11    0.20    0.18
  25 -11   9   -0.25    0.19
   9  25 -11    0.09    0.17
 -25  11   9   -0.26    0.12
 -11   9  25    0.03    0.17
  -9  25  11    0.02    0.17
  11  -9  25   -0.07    0.15
  25  11  -9   -0.16    0.15
  25 -11  -9   -0.07    0.18
  25  11   9    0.02    0.16
  25  11   9   -0.10    0.16
  11   9  25    0.00    0.18
  -9  25 -11   -0.04    0.16
 -11  -9  25   -0.10    0.14
   9  25  11   -0.02    0.14
  -9  25  13    0.02    0.18
  25 -13   9    0.12    0.21
 -13   9  25    0.29    0.21
   9  25 -13    0.23    0.17
  25  13  -9    0.23    0.20
  13  -9  25    0.29    0.20
 -25  13   9    0.24    0.18
  25  13   9   -0.08    0.17
   9  25  13    0.26    0.19
 -13  -9  25    0.20    0.20
  -9  25 -13    0.21    0.18
  13   9  25   -0.34    0.16
  -9  25  15    0.35    0.22
  15  -9  25   -0.06    0.17
 -15   9  25   -0.06    0.19
  25 -15   9   -0.10    0.23
 -25  15   9   -0.17    0.15
  25  15  -9    0.02    0.19
 -15  -9  25   -0.09    0.14
  -9  25 -15   -0.01    0.16
   9  25  15    0.08    0.17
  25  15   9    0.20    0.23
  15   9  25   -0.18    0.17
 -25  17   9    0.26    0.18
  25 -17   9    0.39    0.24
  -9  25  17    0.34    0.25
  25  17  -9    0.16    0.19
  17  -9  25    0.31    0.21
 -17   9  25    0.12    0.21
  -9  25 -17    0.18    0.20
  17   9  25    0.24    0.26
  25  17   9    0.31    0.21
 -17  -9  25    0.08    0.17
   9  25  17    0.26    0.21
 -25  19   9    0.02    0.17
 -19   9  25   -0.10    0.20
  25  19  -9   -0.24    0.18
  25 -19   9    0.00    0.25
  -9  25  19    0.19    0.20
  19   9  25   -0.03    0.22
  25  19   9    0.01    0.22
   9  25  19   -0.04    0.21
  -9  25 -19   -0.08    0.18
  25  -1  11    0.01    0.16
  -1  11  25    0.11    0.19
  25   1 -11    0.17    0.20
  11  25  -1    0.16    0.16
 -11  25   1    0.00    0.16
   1 -11  25    0.24    0.19
 -11  25  -1    0.06    0.17
   1  11  25    0.23    0.19
  25   1  11   -0.13    0.14
  25  -1 -11    0.23    0.21
  -1 -11  25    0.02    0.16
  11  25   1    0.08    0.17
   3 -11  25   -0.07    0.14
  -3  11  25    0.12    0.18
  25  -3  11   -0.02    0.17
  25   3 -11   -0.18    0.17
  11  25  -3   -0.16    0.12
 -11  25   3    0.22    0.17
  25   3  11    0.03    0.17
  25  -3 -11    0.09    0.17
  11  25   3    0.07    0.15
   3  11  25    0.04    0.17
 -11  25  -3   -0.10    0.17
  -3 -11  25    0.19    0.16
  25  -5  11   -0.16    0.16
 -11  25   5   -0.21    0.15
  -5  11  25    0.38    0.21
  25   5 -11    0.06    0.18
  11  25  -5   -0.11    0.12
   5 -11  25   -0.02    0.16
  25  -5 -11   -0.21    0.17
   5  11  25   -0.22    0.14
 -11  25  -5    0.38    0.21
  -5 -11  25    0.02    0.14
  11  25   5    0.04    0.15
  25   5  11   -0.17    0.18
  25   5  11    0.17    0.19
   7 -11  25    0.20    0.18
 -11  25   7   -0.03    0.18
  25  -7  11    0.03    0.19
  11  25  -7    0.04    0.15
 -25   7  11   -0.09    0.13
  25   7 -11   -0.04    0.17
 -11  25   7    0.16    0.17
  -7  11  25    0.15    0.17
  25   7  11   -0.17    0.16
   7  11  25    0.06    0.18
  -7 -11  25    0.01    0.15
  25  -7 -11    0.12    0.18
 -11  25  -7   -0.10    0.17
  11  25   7   -0.11    0.15
  25   7  11    0.27    0.19
  25  -9  11   -0.28    0.16
 -11  25   9   -0.16    0.14
  11  25  -9   -0.02    0.14
 -11  25   9    0.00    0.16
   9 -11  25   -0.13    0.16
  25   9 -11   -0.06    0.14
  -9  11  25   -0.07    0.15
 -25   9  11    0.09    0.15
 -11  25  -9   -0.06    0.15
   9  11  25   -0.06    0.19
  -9 -11  25   -0.17    0.14
  25   9  11   -0.12    0.17
  11  25   9   -0.22    0.16
  25  -9 -11    0.01    0.19
  25   9  11   -0.07    0.18
  25 -11  11   -0.10    0.21
 -11  25  11   -0.32    0.14
  11 -11  25    0.11    0.19
  25  11 -11   -0.13    0.16
 -11  11  25   -0.07    0.18
 -25  11  11   -0.07    0.14
  11  25 -11    0.05    0.16
 -11 -11  25   -0.06    0.13
  11  11  25   -0.24    0.19
  11  25  11    0.23    0.20
  25  11  11   -0.09    0.19
  25  11  11   -0.12    0.17
 -11  25 -11   -0.16    0.17
 -11  25  13   -0.19    0.17
  25  13 -11    0.24    0.19
  13 -11  25    0.10    0.22
  25 -13  11    0.07    0.20
 -25  13  11    0.15    0.17
 -13  11  25    0.11    0.18
 -13 -11  25    0.17    0.19
 -11  25 -13    0.05    0.17
  25  13  11    0.11    0.21
  11  25  13   -0.10    0.17
  13  11  25   -0.09    0.19
  25  15 -11    0.73    0.25
  15 -11  25    1.38    0.34
 -15  11  25    0.89    0.28
 -25  15  11    0.72    0.24
  25 -15  11    1.03    0.32
 -11  25  15    1.31    0.32
 -15 -11  25    0.63    0.26
  15  11  25    0.74    0.27
 -11  25 -15    0.76    0.28
  11  25  15    0.94    0.27
  25  15  11    1.25    0.34
  25  17 -11    0.01    0.20
  25 -17  11   -0.08    0.25
 -11  25  17    0.28    0.23
 -17  11  25    0.04    0.19
 -25  17  11   -0.07    0.16
  17  11  25   -0.03    0.21
  11  25  17   -0.19    0.20
 -11  25 -17    0.05    0.19
  25  17  11    0.41    0.25
  25   1 -13    0.08    0.19
   1 -13  25   -0.09    0.17
  -1  13  25   -0.23    0.14
  25  -1  13    0.04    0.19
 -13  25   1    0.19    0.18
  25  -1 -13   -0.35    0.15
 -13  25  -1    0.01    0.15
  25   1  13    0.07    0.16
   1  13  25   -0.07    0.18
  25   1  13   -0.01    0.16
  13  25   1   -0.17    0.15
  -1 -13  25   -0.07    0.18
  25  -3  13    0.06    0.19
 -13  25   3    0.15    0.20
  25   3 -13    0.07    0.18
  13  25  -3    0.04    0.15
   3 -13  25   -0.17    0.16
  -3  13  25   -0.05    0.19
  -3 -13  25   -0.08    0.19
  25   3  13    0.11    0.20
  13  25   3   -0.18    0.14
 -13  25  -3   -0.09    0.14
  25   3  13    0.07    0.17
  25  -3 -13   -0.12    0.19
   3  13  25   -0.06    0.19
 -25   5  13   -0.09    0.16
  25   5 -13    0.03    0.19
   5 -13  25    0.10    0.19
  -5  13  25    0.18    0.19
  13  25  -5    0.15    0.16
 -13  25   5   -0.05    0.16
  25  -5  13   -0.30    0.13
 -13  25  -5    0.07    0.17
  25  -5 -13   -0.26    0.18
  25   5  13    0.22    0.20
  25   5  13   -0.29    0.14
  13  25   5   -0.04    0.16
   5  13  25   -0.13    0.18
  -5 -13  25   -0.25    0.13
 -13  25   7    0.11    0.18
  13  25  -7   -0.25    0.12
 -25   7  13   -0.13    0.13
  25  -7  13   -0.03    0.22
  -7  13  25    0.10    0.18
  25   7 -13   -0.20    0.15
 -13  25   7    0.28    0.19
   7 -13  25   -0.05    0.20
  25  -7 -13   -0.24    0.17
   7  13  25    0.03    0.19
  -7 -13  25    0.01    0.19
 -13  25  -7   -0.06    0.17
  25   7  13   -0.07    0.19
  13  25   7    0.20    0.18
  25   7  13   -0.01    0.18
  -9  13  25   -0.04    0.19
 -13  25   9    0.17    0.17
  13  25  -9    0.28    0.20
 -25   9  13    0.27    0.19
  25   9 -13    0.14    0.16
   9 -13  25    0.14    0.21
  25  -9  13    0.00    0.21
  13  25   9   -0.13    0.18
  25   9  13    0.07    0.20
 -13  25  -9   -0.13    0.18
  25  -9 -13   -0.09    0.19
   9  13  25   -0.08    0.19
  -9 -13  25    0.23    0.22
  25   9  13    0.28    0.21
  11 -13  25    0.31    0.23
 -13  25  11    0.00    0.16
 -25  11  13    0.27    0.19
 -11  13  25   -0.18    0.18
  25 -11  13    0.08    0.19
  25  11 -13   -0.09    0.16
  11  13  25    0.05    0.20
 -11 -13  25   -0.13    0.21
  25  11  13   -0.16    0.21
 -13  25 -11    0.05    0.17
  13  25  11    0.11    0.18
  25  11  13   -0.20    0.19
 -13  25  13   -0.20    0.16
  13 -13  25    0.12    0.24
  25  13 -13   -0.24    0.14
 -13  13  25   -0.01    0.18
  25 -13  13   -0.17    0.24
 -25  13  13    0.02    0.16
  13  25  13   -0.21    0.17
  13  13  25   -0.02    0.22
 -13  25 -13   -0.04    0.19
  25  13  13   -0.20    0.21
 -13 -13  25   -0.22    0.20
 -25  15  13   -0.04    0.16
 -13  25  15    0.14    0.20
 -15  13  25    0.18    0.21
  25  15 -13   -0.11    0.19
  25 -15  13   -0.10    0.26
 -13  25 -15    0.31    0.22
  13  25  15   -0.19    0.18
  25  15  13    0.34    0.24
  15  13  25    0.00    0.24
 -17  13  25   -0.09    0.19
 -13  25  17   -0.04    0.16
 -25  17  13    0.03    0.18
  25  17  13   -0.01    0.22
  13  25  17   -0.08    0.19
  17  13  25    0.12    0.24
 -13  25 -17    0.12    0.20
   1 -15  25    1.02    0.28
  -1  15  25    0.55    0.25
 -15  25   1    0.63    0.24
  25   1 -15    0.61    0.26
  25  -1  15    0.85    0.26
  15  25  -1    0.37    0.22
  25   1  15    0.03    0.22
  25   1  15    0.96    0.25
  -1 -15  25    0.81    0.28
 -15  25  -1    0.68    0.25
  25  -1 -15    0.53    0.27
  15  25   1    0.64    0.24
   1  15  25    0.58    0.25
   3 -15  25   -0.04    0.19
  25   3 -15    0.24    0.22
  -3  15  25    0.12    0.20
  15  25  -3    0.16    0.17
  25  -3  15   -0.02    0.18
 -15  25   3    0.14    0.18
  15  25   3   -0.05    0.16
 -15  25  -3   -0.22    0.16
  25  -3 -15    0.29    0.20
  25   3  15    0.14    0.22
  -3 -15  25    0.06    0.21
   3  15  25    0.16    0.22
  25   3  15    0.08    0.19
  -5  15  25   -0.05    0.21
 -25   5  15    0.46    0.22
  15  25  -5    0.05    0.17
  25  -5  15    0.22    0.21
   5 -15  25    0.51    0.25
  25   5 -15    0.46    0.23
  25   5  15    0.31    0.24
   5  15  25    0.06    0.19
  -5 -15  25    0.47    0.25
 -15  25  -5    0.58    0.24
  25  -5 -15    0.44    0.24
  25   5  15    0.34    0.22
  15  25   5    0.24    0.20
  25   7 -15   -0.33    0.18
  15  25  -7   -0.10    0.16
  -7  15  25    0.16    0.22
 -25   7  15    0.02    0.20
  25  -7  15   -0.15    0.19
   7 -15  25    0.02    0.19
   7  15  25   -0.02    0.21
  15  25   7    0.12    0.19
  -7 -15  25    0.21    0.20
  25  -7 -15   -0.03    0.19
  25   7  15   -0.07    0.17
 -15  25  -7    0.05    0.19
  25   7  15    0.00    0.19
 -25   9  15    0.04    0.15
  -9  15  25   -0.06    0.21
   9 -15  25   -0.17    0.17
  25  -9  15    0.11    0.21
  25   9 -15   -0.10    0.19
 -15  25   9   -0.05    0.17
  -9 -15  25    0.03    0.19
   9  15  25   -0.21    0.18
  25   9  15    0.13    0.20
  15  25   9    0.28    0.22
  25   9  15   -0.19    0.19
 -15  25  -9   -0.18    0.17
  11 -15  25    0.99    0.30
 -15  25  11    0.76    0.26
  25  11 -15    0.84    0.29
 -25  11  15    1.06    0.28
  25 -11  15    0.43    0.29
 -11  15  25    1.46    0.32
  11  15  25    1.45    0.32
 -15  25 -11    0.99    0.31
  25  11  15    0.80    0.30
  15  25  11    1.02    0.28
 -11 -15  25    1.38    0.35
 -25  13  15   -0.17    0.16
  25  13 -15   -0.01    0.18
 -15  25  13    0.13    0.18
 -13  15  25    0.26    0.23
  25 -13  15   -0.09    0.25
  15  25  13    0.16    0.22
  25  13  15    0.04    0.23
 -15  25 -13   -0.09    0.19
  13  15  25   -0.08    0.21
 -15  25  15   -0.12    0.19
 -15  15  25    0.03    0.22
 -25  15  15   -0.07    0.16
  15  15  25   -0.05    0.21
 -15  25 -15    0.01    0.23
  25  15  15   -0.27    0.25
  15  25  15   -0.11    0.18
  25   1 -17    0.24    0.23
  17  25  -1   -0.07    0.17
 -17  25   1    0.14    0.19
  25  -1  17    0.18    0.20
  -1  17  25    0.48    0.25
   1 -17  25    0.05    0.19
  25   1  17    0.19    0.21
  25  -1 -17   -0.06    0.21
  -1 -17  25    0.30    0.24
  17  25   1   -0.34    0.16
 -17  25  -1    0.00    0.20
   1  17  25   -0.26    0.18
  25  -3  17    0.34    0.25
  17  25  -3    0.14    0.19
   3 -17  25   -0.20    0.18
 -25   3  17   -0.05    0.17
  -3  17  25    0.29    0.22
  25   3 -17   -0.08    0.20
  -3 -17  25   -0.04    0.21
   3  17  25   -0.22    0.20
  25   3  17   -0.02    0.19
  17  25   3   -0.15    0.18
 -17  25  -3   -0.16    0.18
  25   3  17    0.35    0.22
  25  -3 -17    0.14    0.23
  17  25  -5    0.04    0.17
  25   5 -17    0.14    0.22
  25  -5  17    0.30    0.21
  -5  17  25   -0.13    0.20
   5 -17  25    0.04    0.22
 -25   5  17    0.11    0.19
 -17  25  -5    0.10    0.17
  17  25   5    0.03    0.19
  -5 -17  25   -0.19    0.21
  25  -5 -17    0.12    0.20
   5  17  25   -0.21    0.17
  25   5  17    0.13    0.22
  25   5  17    0.01    0.19
  -7  17  25    0.15    0.25
  25   7 -17    0.03    0.23
 -25   7  17    0.00    0.18
  25  -7  17    0.06    0.23
   7 -17  25   -0.21    0.22
 -17  25  -7    0.14    0.19
  17  25   7    0.01    0.20
  25  -7 -17   -0.01    0.21
  25   7  17   -0.12    0.20
  -7 -17  25    0.31    0.26
  25   7  17    0.08    0.21
   7  17  25    0.20    0.25
  25   9 -17    0.46    0.21
 -17  25   9    0.18    0.19
 -25   9  17    0.16    0.22
  25  -9  17    0.75    0.30
  -9  17  25    0.29    0.24
   9 -17  25    0.15    0.26
 -17  25  -9    0.24    0.21
  -9 -17  25   -0.11    0.23
  17  25   9    0.03    0.20
  25   9  17    0.27    0.24
   9  17  25    0.47    0.27
 -17  25  11    0.01    0.18
 -11  17  25    0.33    0.25
 -25  11  17   -0.12    0.14
  11  17  25    0.01    0.21
 -17  25 -11    0.08    0.21
  25  11  17   -0.21    0.23
  17  25  11    0.08    0.19
 -17  25  13   -0.06    0.18
 -25  13  17   -0.01    0.17
 -13  17  25   -0.24    0.21
  13  17  25   -0.14    0.25
  25  13  17   -0.20    0.19
 -17  25 -13   -0.13    0.21
  17  25  13    0.19    0.23
  25  -1  19   -0.16    0.18
  19  25  -1    0.02    0.21
  -1  19  25   -0.17    0.20
  25   1 -19   -0.27    0.22
   1 -19  25    0.21    0.26
   1  19  25    0.15    0.26
 -19  25  -1    0.07    0.19
  25   1  19    0.16    0.24
  -1 -19  25    0.14    0.26
  19  25   1    0.27    0.23
  25  -1 -19    0.06    0.21
  25  -3  19   -0.52    0.19
  -3  19  25    0.12    0.23
   3 -19  25   -0.03    0.25
  25   3 -19   -0.46    0.24
 -25   3  19   -0.13    0.19
  19  25   3   -0.21    0.19
  25  -3 -19    0.15    0.25
 -19  25  -3   -0.01    0.21
   3  19  25   -0.24    0.21
  25   3  19    0.01    0.16
  -3  19 -25   -0.14    0.17
  -3 -19  25   -0.02    0.21
  -5  19  25   -0.07    0.22
   5 -19  25    0.22    0.25
 -25   5  19    0.03    0.21
  25   5  19   -0.02    0.22
  25  -5 -19   -0.30    0.21
 -19  25  -5    0.08    0.21
  19  25   5   -0.37    0.17
   5  19  25    0.20    0.23
  -5 -19  25    0.20    0.25
  25   5  19   -0.61    0.15
  -7  19  25   -0.36    0.21
 -25   7  19   -0.18    0.18
  19  25   7    0.08    0.19
  25   7  19    0.11    0.22
 -19  25  -7    0.04    0.20
   7  19  25    0.19    0.24
  25   7  19    0.28    0.24
 -25   9  19    0.23    0.22
  -9  19  25   -0.03    0.22
  25   9  19    0.09    0.22
  19  25   9   -0.12    0.20
   9  19  25   -0.03    0.21
 -19  25  -9    0.36    0.24
  -1  21  25   -0.10    0.23
  21  25  -1   -0.06    0.20
   1  21  25    0.37    0.26
  21  25   1    0.16    0.23
 -25   3  21    0.09    0.23
  -3  21  25   -0.14    0.21
 -21  25  -3   -0.15    0.20
  21  25   3   -0.31    0.19
   3  21  25   -0.02    0.21
  25  -3 -21    0.05    0.25
  -3  21 -25    0.06    0.21
  -5  21  25   -0.04    0.24
 -25   5  21    0.03    0.21
  25  -5 -21    0.16    0.25
   5  21  25   -0.10    0.24
  25   5  21   -0.17    0.23
  -5  21 -25    0.42    0.25
 -21  25  -5    0.18    0.22
  21  25   5    0.23    0.23
   0  26   0   -0.09    0.14
  26   0   0    0.05    0.15
   0   0  26    0.09    0.14
   0  26  -2    0.26    0.17
  26  -2   0   -0.07    0.16
  26   2   0    0.20    0.18
   2   0  26    0.21    0.16
  -2   0  26    0.20    0.15
   0  26   2    0.12    0.16
   0  26   4   -0.08    0.13
   0  26  -4    0.04    0.14
  26   4   0    0.02    0.14
   4   0  26    0.02    0.14
  -4   0  26    0.07    0.13
  26  -4   0   -0.22    0.16
   0  26   4    0.16    0.16
   0  26   6    0.22    0.17
  26  -6   0    0.15    0.20
   0  26   6    0.11    0.17
   0  26  -6    0.16    0.15
   6   0  26    0.08    0.13
  26   6   0    0.01    0.15
  -6   0  26    0.17    0.14
   8   0  26   -0.01    0.15
  26   8   0   -0.01    0.16
  -8   0  26    0.01    0.13
  26  -8   0   -0.18    0.16
   0  26  -8   -0.04    0.14
   0  26   8    0.06    0.15
   0  26   8   -0.14    0.15
  26  10   0    1.24    0.28
   0  26  10    1.70    0.29
  10   0  26    2.10    0.33
 -10   0  26    1.74    0.29
   0  26  10    1.59    0.27
  26 -10   0    1.66    0.30
   0  26 -10    1.75    0.28
 -12   0  26   -0.15    0.12
   0  26 -12   -0.19    0.14
   0  26  12    0.05    0.17
  26  12   0   -0.08    0.15
  26 -12   0    0.17    0.18
  12   0  26   -0.03    0.18
  26 -14   0    0.64    0.25
  26  14   0    0.36    0.22
   0  26 -14    0.46    0.22
   0  26  14    0.87    0.27
 -14   0  26    0.47    0.22
 -14   0  26    0.50    0.21
  14   0  26    1.02    0.28
   0  26 -16   -0.08    0.18
 -16   0  26    0.03    0.18
   0  26  16    0.20    0.20
  26  16   0   -0.12    0.18
 -16   0  26   -0.03    0.15
  16   0  26    0.13    0.20
  26  18   0    0.97    0.28
 -18   0  26    0.74    0.26
   0  26 -18    0.34    0.22
 -18   0  26    0.75    0.27
   0  26  18    0.73    0.26
  18   0  26    0.87    0.26
 -20   0  26    0.16    0.22
   0  26 -20    0.16    0.22
 -20   0  26    0.07    0.19
   0  26  20    0.07    0.22
  26  20   0   -0.08    0.19
   0   2  26    0.15    0.17
   0  -2  26   -0.03    0.15
  26   0  -2    0.00    0.16
  -2  26   0    0.04    0.17
   2  26   0    0.34    0.16
  26   0   2    0.16    0.15
   2  -2  26   16.90    0.84
   2  26  -2   18.95    0.83
  -2  26   2   17.55    0.81
  26  -2   2   17.97    0.85
  26   2  -2   16.88    0.83
  -2   2  26   18.30    0.85
  26   2   2   17.02    0.85
  26  -2  -2   16.50    0.82
  -2  26  -2   17.92    0.82
   2   2  26   16.91    0.83
   2  26   2   17.80    0.81
  -2  -2  26   17.03    0.85
  -4   2  26    1.55    0.28
  -2  26   4    1.76    0.27
  26  -4   2    1.48    0.29
   2  26  -4    1.32    0.25
   4  -2  26    1.66    0.29
  26   4  -2    1.72    0.29
   4   2  26    1.27    0.26
  26  -4  -2    1.83    0.28
  -2  26  -4    2.02    0.29
   2  26   4    1.90    0.27
   2  26   4    1.89    0.28
  26   4   2    1.79    0.29
  -4  -2  26    1.76    0.31
  -6   2  26    9.70    0.60
  -2  26   6   10.13    0.60
  26   6  -2   10.79    0.66
   2  26  -6    9.50    0.58
  26  -6   2    9.26    0.61
  -2  26   6    9.45    0.57
   6  -2  26   11.27    0.66
  -6   2  26    9.56    0.53
   2  26   6   11.01    0.61
   6   2  26   10.79    0.64
  26   6   2   10.45    0.64
  26  -6  -2    9.72    0.61
   2  26   6    9.52    0.58
  -6  -2  26    9.00    0.60
  -2  26  -6   10.90    0.62
  26   8  -2    0.06    0.16
  -2  26   8    0.28    0.16
  -2  26   8    0.19    0.16
  -8   2  26    0.18    0.16
   8  -2  26    0.35    0.18
  -8   2  26    0.19    0.16
  26  -8   2    0.28    0.21
   2  26  -8    0.31    0.18
  -8  -2  26    0.17    0.16
   8   2  26    0.34    0.19
  -2  26  -8    0.40    0.18
   2  26   8   -0.02    0.15
  26   8   2    0.17    0.18
  26  -8  -2    0.21    0.20
   2  26   8    0.29    0.16
   2  26 -10   12.88    0.70
  -2  26  10   13.70    0.72
 -10   2  26   12.71    0.64
 -10   2  26   12.47    0.71
  26 -10   2   12.39    0.71
  -2  26  10   12.31    0.67
  10  -2  26   12.36    0.74
  26  10  -2   13.56    0.76
  -2  26 -10   13.65    0.73
 -10  -2  26   12.37    0.73
  10   2  26   12.51    0.72
  26 -10  -2   12.24    0.70
   2  26  10   13.27    0.72
  26  10   2   12.73    0.74
  -2  26  12    0.74    0.22
  12  -2  26    0.59    0.24
 -12   2  26    0.79    0.22
  26  12  -2    0.49    0.23
  -2  26  12    1.07    0.27
  26 -12   2    0.32    0.24
   2  26 -12    0.37    0.20
 -12   2  26    1.33    0.26
  12   2  26    0.47    0.23
 -12  -2  26    0.76    0.23
   2  26  12    0.93    0.24
  -2  26 -12    0.27    0.20
  26 -12  -2    0.78    0.24
  26  12   2    0.88    0.24
  -2  26  14   17.74    0.88
  14  -2  26   17.23    0.90
  26 -14   2   15.61    0.83
  -2  26  14   16.80    0.82
  26  14  -2   15.39    0.86
 -14   2  26   15.30    0.81
 -14   2  26   15.95    0.77
   2  26 -14   16.69    0.84
  14   2  26   15.76    0.86
  26 -14  -2   18.34    0.86
  26  14   2   16.98    0.88
  -2  26 -14   15.14    0.82
 -14  -2  26   16.10    0.87
   2  26  14   17.29    0.87
  16  -2  26    0.71    0.27
 -16   2  26    0.47    0.21
   2  26 -16    0.17    0.19
  26  16  -2    0.65    0.24
  26 -16   2    0.23    0.24
  -2  26  16    0.57    0.24
 -16   2  26    0.55    0.23
  16   2  26    0.61    0.26
   2  26  16    0.60    0.25
  26  16   2    0.36    0.22
 -16  -2  26    0.44    0.23
  -2  26 -16    0.19    0.21
   2  26 -18    8.24    0.60
 -18   2  26    8.29    0.61
  18  -2  26    8.86    0.66
 -18   2  26    8.73    0.60
  26  18  -2    7.83    0.61
  -2  26  18    9.54    0.67
   2  26  18    8.31    0.63
  -2  26 -18    9.07    0.65
  18   2  26    9.19    0.66
  26  18   2    7.77    0.60
 -18  -2  26    8.75    0.65
   2  26 -20   -0.26    0.17
 -20   2  26   -0.12    0.19
  26  20  -2   -0.08    0.17
  -2  26  20   -0.16    0.19
 -20   2  26    0.04    0.22
  -2  26 -20    0.19    0.21
   2  26  20    0.13    0.22
  20   2  26   -0.04    0.21
  26  20   2    0.11    0.21
  26   0  -4   -0.05    0.14
   0   4  26    0.23    0.14
  26   0   4   -0.10    0.14
  -4  26   0    0.05    0.15
   0  -4  26    0.07    0.14
   0   4  26   -0.04    0.12
   4  26   0    0.03    0.12
  -2   4  26    1.73    0.27
   4  26  -2    1.48    0.25
  -2   4  26    1.83    0.26
  -4  26   2    2.56    0.33
   2  -4  26    1.69    0.29
  26  -2   4    1.80    0.32
  26   2  -4    1.39    0.28
  26  -2  -4    1.77    0.29
   2   4  26    1.42    0.25
  26   2   4    2.20    0.32
  -2  -4  26    1.02    0.24
   4  26   2    1.35    0.24
  -4  26  -2    1.39    0.26
  26   4  -4   -0.05    0.14
  -4  26   4   -0.08    0.14
  -4   4  26    0.02    0.14
  -4   4  26    0.04    0.13
  26  -4   4   -0.06    0.17
   4  -4  26    0.25    0.18
   4  26  -4   -0.11    0.12
  -4  26  -4   -0.01    0.17
   4  26   4    0.05    0.15
  26  -4  -4   -0.08    0.16
  26   4   4    0.10    0.15
   4  26   4   -0.16    0.13
   4   4  26   -0.12    0.13
  -4  -4  26   -0.09    0.12
  -6   4  26    1.60    0.24
  -4  26   6    1.45    0.26
  -6   4  26    1.24    0.25
   6  -4  26    1.59    0.29
   4  26  -6    1.83    0.28
  -4  26   6    2.11    0.29
  26   6  -4    1.76    0.30
  26  -6   4    1.95    0.31
   6   4  26    1.26    0.26
  26  -6  -4    2.40    0.33
   4  26   6    1.60    0.27
  -4  26  -6    2.12    0.30
  26   6   4    1.76    0.31
   4  26   6    0.86    0.24
  -6  -4  26    1.31    0.28
  -8   4  26    0.06    0.15
   8  -4  26    0.05    0.16
  -4  26   8    0.45    0.19
  26   8  -4    0.05    0.14
   4  26  -8   -0.08    0.15
  -8   4  26    0.05    0.14
  26  -8   4    0.17    0.17
  -4  26   8    0.13    0.18
   4  26   8   -0.01    0.16
  -8  -4  26   -0.04    0.13
  26  -8  -4   -0.03    0.17
  26   8   4    0.11    0.19
   8   4  26    0.04    0.15
  -4  26  -8    0.10    0.15
  26 -10   4   -0.03    0.20
  -4  26  10    0.18    0.17
 -10   4  26    0.05    0.16
  26  10  -4   -0.03    0.17
 -10   4  26    0.12    0.16
  -4  26  10    0.04    0.17
   4  26 -10   -0.02    0.15
  10  -4  26    0.45    0.22
  -4  26 -10   -0.04    0.13
 -10  -4  26   -0.02    0.15
   4  26  10    0.27    0.19
  26  10   4    0.03    0.17
  10   4  26    0.00    0.16
  26 -10  -4    0.40    0.21
 -12   4  26    0.16    0.18
  26  12  -4   -0.03    0.16
  12  -4  26    0.31    0.21
 -12   4  26    0.09    0.17
  26 -12   4   -0.03    0.19
   4  26 -12    0.23    0.18
  -4  26  12   -0.04    0.16
  -4  26  12   -0.01    0.16
  12   4  26    0.06    0.18
  26 -12  -4    0.00    0.20
  26  12   4    0.16    0.19
 -12  -4  26   -0.10    0.14
  -4  26 -12    0.10    0.18
   4  26  12    0.21    0.19
  14  -4  26    1.29    0.30
  -4  26  14    0.79    0.27
 -14   4  26    0.66    0.22
  -4  26  14    1.08    0.26
  26 -14   4    0.84    0.29
   4  26 -14    0.75    0.24
  26  14  -4    1.13    0.28
 -14   4  26    0.89    0.26
   4  26  14    1.05    0.27
 -14  -4  26    0.77    0.24
  -4  26 -14    0.69    0.24
  26  14   4    0.84    0.28
  14   4  26    1.13    0.29
  26  14   4    1.93    0.33
   4  26 -16    0.06    0.18
 -16   4  26   -0.12    0.15
  16  -4  26    0.04    0.18
 -16   4  26    0.17    0.19
 -26  16   4    0.06    0.18
  26 -16   4   -0.06    0.23
  -4  26  16    0.06    0.17
  26  16  -4    0.02    0.19
  -4  26  16    0.01    0.18
   4  26  16   -0.15    0.17
 -16  -4  26    0.06    0.16
  26  16   4    0.23    0.19
  16   4  26   -0.16    0.18
  -4  26 -16    0.09    0.17
  18  -4  26   -0.08    0.20
  -4  26  18   -0.03    0.21
 -26  18   4    0.13    0.18
   4  26 -18   -0.23    0.17
  26  18  -4    0.12    0.22
 -18   4  26    0.20    0.19
 -18  -4  26   -0.04    0.17
  18   4  26   -0.03    0.20
  26  18   4    0.01    0.18
  -4  26 -18   -0.11    0.18
   4  26  18    0.14    0.23
  26  20  -4    0.01    0.20
 -20   4  26   -0.12    0.21
  -4  26  20   -0.16    0.18
   4  26  20    0.09    0.18
  20   4  26    0.07    0.22
  26  20   4    0.05    0.21
   0  -6  26    0.06    0.17
   6  26   0    0.36    0.18
  26   0  -6    0.06    0.17
  -6  26   0    0.10    0.16
   0   6  26    0.06    0.15
  26   0   6    0.10    0.14
   2  -6  26    9.33    0.61
  -2   6  26    9.72    0.55
   6  26  -2    9.91    0.58
  26  -2   6    9.12    0.62
  -6  26   2    9.89    0.59
  26   2  -6    9.15    0.61
   2   6  26   10.25    0.56
  -2  -6  26    9.34    0.63
  26  -2  -6    9.42    0.60
  26   2   6    9.36    0.62
   6  26   2    9.42    0.57
  -6  26  -2    9.79    0.60
   6  26  -4    1.65    0.26
  26   4  -6    1.99    0.31
   4  -6  26    1.64    0.30
  -6  26   4    1.49    0.27
  26  -4   6    1.71    0.31
  -4   6  26    2.13    0.28
  -6  26  -4    1.93    0.30
   6  26   4    2.10    0.29
   6  26   4    1.33    0.25
  26   4   6    1.95    0.32
  -4  -6  26    1.30    0.29
  26  -4  -6    1.65    0.30
   4   6  26    1.59    0.26
  -6  26   6    8.00    0.52
   6  -6  26    9.16    0.61
   6  26  -6    9.10    0.56
  26   6  -6    8.46    0.58
  -6   6  26    8.59    0.52
  -6  26   6    9.42    0.58
  26  -6   6    8.10    0.59
   6  26   6    8.21    0.53
  26   6   6    8.41    0.60
  -6  26  -6    8.63    0.59
  26  -6  -6    8.24    0.56
  -6  -6  26    7.29    0.57
   6   6  26    8.61    0.52
   8  -6  26   -0.06    0.14
  -8   6  26    0.22    0.15
  -6  26   8    0.21    0.18
  26   8  -6    0.08    0.16
  -6  26   8    0.05    0.16
   6  26  -8   -0.04    0.13
  26  -8   6    0.18    0.20
  26  -8  -6    0.13    0.19
  26   8   6    0.36    0.21
  -6  26  -8    0.04    0.14
   6  26   8    0.18    0.18
  -8  -6  26   -0.06    0.14
  -6  26  10   11.11    0.63
  10  -6  26    9.67    0.65
   6  26 -10   10.81    0.63
  -6  26  10   10.95    0.65
 -10   6  26   11.01    0.61
  26 -10   6    9.34    0.64
  26  10  -6   10.59    0.69
  26  10   6   11.00    0.68
   6  26  10    9.62    0.61
  26 -10  -6    9.62    0.61
  -6  26 -10    9.87    0.65
 -10  -6  26    9.08    0.65
  -6  26  12    1.33    0.27
  26  12  -6    0.89    0.28
 -26  12   6    0.82    0.23
  -6  26  12    1.31    0.29
 -12   6  26    1.34    0.26
  12  -6  26    0.92    0.27
   6  26 -12    0.83    0.23
  26 -12   6    1.22    0.31
 -12  -6  26    0.63    0.25
  26  12   6    1.01    0.30
   6  26  12    1.63    0.30
  -6  26 -12    1.09    0.27
  26 -12  -6    1.23    0.27
  26  12   6    1.37    0.29
  26  14  -6   11.26    0.73
 -26  14   6   12.35    0.71
  -6  26  14   13.08    0.76
  14  -6  26   13.18    0.78
  26 -14   6   11.58    0.73
 -14   6  26   12.41    0.69
   6  26 -14   12.53    0.71
  -6  26  14   12.13    0.68
   6  26  14   11.34    0.70
  26  14   6   11.65    0.73
  26  14   6   13.79    0.79
 -14  -6  26   12.08    0.75
  -6  26 -14   11.80    0.72
  16  -6  26   -0.08    0.19
 -16   6  26   -0.02    0.18
  -6  26  16    0.00    0.18
  26  16  -6   -0.22    0.15
   6  26 -16   -0.01    0.18
  26 -16   6    0.30    0.25
 -26  16   6    0.02    0.16
   6  26  16   -0.18    0.17
  26  16   6    0.15    0.20
  -6  26 -16   -0.21    0.16
 -16  -6  26    0.11    0.17
  -6  26  18    8.48    0.66
 -26  18   6    9.08    0.61
  26  18  -6    7.02    0.60
 -18   6  26    7.85    0.58
   6  26  18    7.05    0.58
  26  18   6    7.38    0.61
  -6  26 -18    8.45    0.64
  26   0  -8    0.07    0.17
  -8  26   0   -0.21    0.12
  26   0   8    0.15    0.17
   8  26   0    0.05    0.13
   0  -8  26    0.13    0.16
   0   8  26    0.03    0.15
   8  26  -2    0.19    0.17
  26  -2   8    0.06    0.16
   2  -8  26    0.36    0.18
  -2   8  26    0.24    0.18
  -8  26   2    0.49    0.20
  26   2  -8    0.29    0.20
  -2  -8  26    0.37    0.18
  26   2   8    0.32    0.19
   8  26   2    0.13    0.14
  -8  26  -2    0.15    0.18
   2   8  26   -0.07    0.14
  26  -2  -8    0.12    0.17
   8  26   2    0.64    0.20
   8  26  -4   -0.08    0.13
  -4   8  26    0.12    0.16
  26  -4   8    0.10    0.20
  -8  26   4    0.17    0.18
   4  -8  26   -0.15    0.13
  26   4  -8    0.15    0.19
   8  26   4    0.13    0.17
   4   8  26    0.13    0.18
  26   4   8    0.05    0.16
  -8  26  -4    0.13    0.18
  26  -4  -8    0.18    0.17
  -4  -8  26    0.09    0.16
  -6   8  26   -0.02    0.15
   6  -8  26   -0.20    0.13
  -8  26   6    0.04    0.16
  26   6  -8    0.09    0.17
   8  26  -6    0.10    0.16
  26  -6   8    0.03    0.18
  26   6   8   -0.03    0.15
   8  26   6   -0.06    0.15
  -6  -8  26    0.12    0.16
  26  -6  -8    0.15    0.18
  -8  26  -6   -0.01    0.15
   6   8  26   -0.03    0.17
  -8   8  26    0.41    0.19
  -8  26   8   -0.14    0.16
  26   8  -8    0.29    0.21
   8  -8  26    0.27    0.18
  -8  26   8    0.15    0.16
  26  -8   8    0.22    0.24
   8  26  -8    0.26    0.18
  -8  -8  26   -0.01    0.15
   8   8  26    0.28    0.18
  26  -8  -8    0.06    0.16
  -8  26  -8    0.03    0.19
  26   8   8    0.08    0.17
   8  26   8   -0.09    0.16
  26  10  -8    0.72    0.25
  -8  26  10    1.54    0.28
 -10   8  26    1.02    0.25
  10  -8  26    1.09    0.27
 -26  10   8    1.35    0.27
  -8  26  10    0.55    0.23
  26 -10   8    1.25    0.31
   8  26 -10    1.35    0.27
 -10  -8  26    1.23    0.29
  10   8  26    1.37    0.27
  26  10   8    1.21    0.28
  -8  26 -10    1.21    0.28
  26 -10  -8    1.24    0.26
   8  26  10    1.23    0.27
  26  10   8    1.21    0.29
  -8  26  12    0.26    0.21
 -12   8  26    0.26    0.19
  26 -12   8    0.16    0.23
   8  26 -12    0.12    0.18
 -26  12   8    0.23    0.20
  26  12  -8    0.45    0.22
  12  -8  26   -0.02    0.18
  -8  26  12    0.33    0.23
  -8  26 -12    0.26    0.20
   8  26  12    0.34    0.21
 -12  -8  26    0.02    0.18
  26  12   8    0.19    0.20
  12   8  26    0.10    0.20
  26  12   8    0.29    0.22
   8  26 -14    0.24    0.21
 -14   8  26    0.08    0.16
  26 -14   8    0.05    0.21
  26  14  -8   -0.03    0.17
 -26  14   8    0.12    0.18
  14  -8  26    0.16    0.20
  -8  26  14    0.14    0.21
 -14  -8  26    0.21    0.18
  -8  26 -14    0.10    0.17
  26  14   8    0.24    0.23
   8  26  14    0.21    0.22
 -16   8  26    0.24    0.23
  16  -8  26   -0.06    0.19
  26 -16   8    0.03    0.22
 -26  16   8    0.11    0.18
  26  16  -8    0.27    0.24
  -8  26  16    0.13    0.24
 -16  -8  26    0.22    0.21
  -8  26 -16    0.29    0.22
   8  26  16    0.51    0.23
  26  16   8    0.40    0.24
  26 -18   8    0.18    0.26
 -18   8  26    0.04    0.21
  -8  26  18    0.59    0.29
 -26  18   8    0.23    0.20
  26  18  -8    0.12    0.21
  26  18   8    0.17    0.23
   8  26  18    0.31    0.22
  -8  26 -18    0.40    0.23
  26   0  10    1.60    0.30
   0  10  26    1.52    0.28
 -10  26   0    1.91    0.30
   0 -10  26    1.63    0.32
  10  26   0    1.42    0.26
  26   0 -10    1.37    0.29
  26   2 -10   11.59    0.71
  -2  10  26   13.06    0.66
  26  -2  10   11.12    0.71
   2 -10  26   11.21    0.70
  10  26  -2   11.93    0.66
 -10  26   2   13.68    0.71
 -10  26  -2   10.92    0.67
   2  10  26   11.65    0.65
  26  -2 -10   11.33    0.69
  10  26   2   12.25    0.65
  26   2  10   12.07    0.72
  -2 -10  26   12.39    0.75
   4 -10  26   -0.21    0.15
 -10  26   4   -0.15    0.14
  26  -4  10    0.06    0.21
  10  26  -4    0.28    0.15
  -4  10  26    0.02    0.18
  26   4 -10    0.12    0.19
  -4 -10  26   -0.23    0.14
  10  26   4    0.33    0.18
  26   4  10    0.23    0.21
 -10  26  -4   -0.05    0.17
   4  10  26    0.06    0.16
  26  -4 -10    0.05    0.17
  10  26  -6   10.69    0.62
  -6  10  26   10.64    0.61
 -10  26   6   10.31    0.62
  26  -6  10   10.21    0.68
   6 -10  26   10.67    0.67
  26   6 -10   10.13    0.67
   6  10  26   11.32    0.64
  26  -6 -10    9.51    0.61
  26   6  10    9.99    0.65
 -10  26  -6    8.57    0.60
  26   6  10    9.71    0.67
  -6 -10  26    9.35    0.65
  10  26   6   10.25    0.61
  10  26  -8    1.74    0.29
  26  -8  10    1.56    0.32
 -10  26   8    1.41    0.27
 -10  26   8    0.89    0.25
 -26   8  10    0.85    0.24
  -8  10  26    1.75    0.30
   8 -10  26    0.81    0.25
  26   8 -10    0.97    0.27
  10  26   8    1.20    0.28
  26  -8 -10    1.38    0.28
  26   8  10    1.60    0.33
  26   8  10    1.26    0.30
   8  10  26    1.36    0.28
 -10  26  -8    1.05    0.29
  -8 -10  26    1.11    0.29
 -10  26  10   11.99    0.68
  26 -10  10    9.64    0.68
 -26  10  10    9.94    0.63
  10  26 -10   10.62    0.63
 -10  10  26   11.80    0.67
  26  10 -10    9.80    0.67
 -10  26  10   12.12    0.66
  10 -10  26    9.70    0.66
  26  10  10    9.53    0.66
 -10  26 -10   10.06    0.67
  26  10  10    9.60    0.68
  26 -10 -10   10.68    0.64
  10  26  10   10.89    0.66
 -10 -10  26    9.69    0.67
  10  10  26    8.58    0.60
 -12  10  26    0.61    0.24
  26  12 -10    0.49    0.23
  12 -10  26    0.28    0.20
 -10  26  12    0.27    0.22
  26 -12  10    0.14    0.22
 -26  12  10    0.00    0.16
  10  26 -12    0.46    0.21
  26  12  10    0.02    0.21
  26  12  10    0.08    0.22
 -12 -10  26    0.28    0.22
  10  26  12    0.24    0.20
  12  10  26   -0.01    0.18
 -10  26 -12    0.11    0.19
  26  14 -10   11.49    0.74
 -26  14  10   11.37    0.70
  14 -10  26   11.26    0.74
  26 -14  10   10.86    0.72
 -14  10  26   11.43    0.69
 -10  26  14   11.43    0.72
  14  10  26   10.52    0.67
  26  14  10    9.23    0.71
 -10  26 -14   11.58    0.74
 -14 -10  26   10.92    0.74
  10  26  14   10.46    0.68
  26 -16  10    0.02    0.27
 -16  10  26    0.19    0.21
 -10  26  16   -0.01    0.20
  26  16 -10    0.21    0.21
 -26  16  10    0.38    0.22
  16  10  26    0.34    0.24
 -10  26 -16    0.30    0.23
  26  16  10   -0.18    0.21
  10  26  16    0.55    0.24
  26   0  12    0.12    0.19
   0 -12  26   -0.05    0.18
  26   0 -12   -0.19    0.15
   0  12  26   -0.04    0.16
  12  26   0   -0.15    0.15
 -12  26   0    0.16    0.19
   2 -12  26    0.91    0.27
  12  26  -2    0.66    0.21
  -2  12  26    0.61    0.23
  26   2 -12    0.23    0.22
  26  -2  12    1.19    0.29
 -12  26   2    0.57    0.23
  -2 -12  26    0.60    0.24
  26   2  12    0.60    0.23
  12  26   2    0.27    0.20
  26  -2 -12    0.60    0.25
   2  12  26    0.83    0.24
  26   2  12    1.10    0.30
 -12  26  -2    1.04    0.27
  26  -4  12    0.26    0.19
  -4  12  26    0.23    0.20
   4 -12  26   -0.14    0.18
  12  26  -4    0.25    0.18
 -12  26   4    0.13    0.18
  26   4 -12    0.06    0.21
  -4 -12  26    0.07    0.18
   4  12  26    0.12    0.20
 -12  26  -4    0.03    0.19
  26   4  12    0.26    0.21
  26   4  12    0.14    0.18
  26  -4 -12    0.00    0.17
  12  26   4    0.27    0.19
 -12  26   6    1.08    0.26
   6 -12  26    1.32    0.30
  26  -6  12    1.81    0.35
 -26   6  12    1.01    0.25
  -6  12  26    0.75    0.24
  26   6 -12    1.06    0.29
  12  26  -6    0.74    0.22
  26   6  12    1.35    0.29
 -12  26  -6    1.14    0.28
  26  -6 -12    1.10    0.28
  -6 -12  26    1.41    0.32
  12  26   6    1.10    0.26
   6  12  26    0.90    0.25
  26   6  12    1.06    0.29
  26   8 -12    0.17    0.19
 -12  26   8    0.18    0.19
   8 -12  26    0.44    0.25
 -12  26   8   -0.05    0.16
 -26   8  12   -0.01    0.15
  12  26  -8    0.23    0.20
  -8  12  26    0.12    0.21
  26  -8  12    0.12    0.23
  26  -8 -12    0.43    0.22
  12  26   8    0.28    0.20
  26   8  12    0.00    0.21
  26   8  12    0.09    0.19
 -12  26  -8    0.15    0.19
   8  12  26   -0.03    0.18
  -8 -12  26    0.07    0.17
  26  10 -12    0.38    0.22
 -26  10  12    0.27    0.19
 -10  12  26    0.27    0.22
  26 -10  12    0.67    0.27
  10 -12  26    0.01    0.19
 -12  26  10    0.26    0.20
  12  26 -10    0.19    0.17
 -12  26 -10    0.14    0.20
  26  10  12    0.03    0.20
  10  12  26    0.29    0.22
  12  26  10   -0.14    0.16
  26 -10 -12    0.09    0.21
 -10 -12  26    0.08    0.19
  26  10  12    0.06    0.22
 -12  26  12    0.03    0.18
 -12  12  26    0.36    0.22
  26  12 -12    0.27    0.20
  12 -12  26    0.19    0.25
 -26  12  12    0.23    0.20
  26 -12  12   -0.08    0.23
  26  12  12    0.11    0.22
  12  12  26    0.15    0.22
 -12 -12  26   -0.10    0.20
  12  26  12    0.05    0.20
 -12  26 -12    0.17    0.20
  26 -14  12    1.74    0.39
 -26  14  12    2.49    0.37
  26  14 -12    2.45    0.38
 -14  12  26    2.42    0.37
 -12  26  14    1.83    0.35
 -12  26 -14    2.06    0.35
  12  26  14    2.28    0.37
  26  14  12    1.68    0.36
  14  12  26    2.00    0.36
 -26  16  12    0.28    0.22
 -12  26  16    0.21    0.26
 -16  12  26    0.09    0.24
 -12  26 -16    0.29    0.23
  26  16  12    0.11    0.24
  12  26  16    0.49    0.25
  16  12  26    0.17    0.23
  26   0  14    0.48    0.23
 -14  26   0    0.74    0.24
   0  14  26    0.39    0.22
  26   0 -14    0.58    0.25
   0 -14  26    0.75    0.29
  26   0  14    0.56    0.22
 -14  26   2   14.68    0.80
  26  -2  14   15.31    0.86
  14  26  -2   15.73    0.80
  -2  14  26   15.46    0.81
  26   2 -14   15.34    0.86
   2 -14  26   16.04    0.87
  26   2  14   15.44    0.86
  14  26   2   16.61    0.80
  26   2  14   14.79    0.79
 -14  26  -2   15.37    0.82
  -2 -14  26   18.31    0.94
  26  -2 -14   15.09    0.83
   2  14  26   16.78    0.83
  14  26  -4    0.92    0.25
  26  -4  14    1.03    0.28
  26   4 -14    1.24    0.29
   4 -14  26    0.59    0.26
 -14  26   4    0.92    0.26
  -4  14  26    1.46    0.32
  26   4  14    0.94    0.28
  -4 -14  26    0.78    0.29
  26   4  14    1.02    0.30
  14  26   4    0.92    0.25
  26  -4 -14    0.80    0.27
   4  14  26    0.93    0.27
 -14  26  -4    0.89    0.26
  14  26  -6   12.45    0.70
   6 -14  26   14.18    0.81
  -6  14  26   13.58    0.76
  26  -6  14   12.43    0.77
  26   6 -14   11.53    0.76
 -26   6  14   12.24    0.73
  26  -6 -14   13.42    0.75
  26   6  14   11.09    0.74
  26   6  14   12.02    0.74
   6  14  26   12.20    0.73
  -6 -14  26   11.87    0.78
  14  26   6   12.48    0.71
 -14  26  -6   12.37    0.74
  14  26  -8    0.06    0.18
  26   8 -14    0.35    0.18
  26  -8  14    0.44    0.24
  -8  14  26    0.27    0.24
   8 -14  26    0.16    0.21
 -26   8  14    0.33    0.19
  -8 -14  26    0.00    0.20
  26   8  14    0.10    0.20
   8  14  26   -0.08    0.18
  14  26   8    0.01    0.17
  26   8  14    0.33    0.21
 -14  26  -8   -0.01    0.19
  26  -8 -14    0.32    0.22
  26 -10  14   12.09    0.77
 -14  26  10   11.01    0.68
  10 -14  26   10.62    0.73
 -10  14  26   11.78    0.72
  26  10 -14   11.83    0.75
 -26  10  14    9.44    0.65
  26  10  14   12.08    0.76
  14  26  10   10.28    0.67
 -10 -14  26    9.44    0.71
  10  14  26   11.88    0.72
 -14  26 -10   10.12    0.69
  26  10  14   10.31    0.72
 -12  14  26    1.68    0.34
 -14  26  12    1.64    0.34
 -26  12  14    2.07    0.34
  26 -12  14    2.41    0.40
  12  14  26    1.77    0.36
 -14  26 -12    1.58    0.33
  26  12  14    2.42    0.41
  14  26  12    2.32    0.37
 -14  26  14   11.72    0.76
 -14  14  26   12.41    0.77
 -26  14  14   10.81    0.71
  14  26  14   12.06    0.76
 -14  26 -14   10.53    0.75
  14  14  26   11.94    0.76
  26  14  14   11.03    0.79
  16  26   0   -0.03    0.17
   0  16  26   -0.15    0.20
 -16  26   0   -0.05    0.18
   0 -16  26   -0.14    0.19
  26   0 -16    0.39    0.23
  26   0  16    0.01    0.20
  16  26  -2    0.48    0.22
 -16  26   2   -0.01    0.19
  -2  16  26    0.41    0.23
  26   2 -16    0.41    0.27
   2 -16  26    0.64    0.28
  26  -2  16    0.17    0.22
   2  16  26    0.53    0.27
  16  26   2    0.28    0.22
  26   2  16    0.46    0.25
 -16  26  -2    0.08    0.21
  26   2  16    0.31    0.23
  -2 -16  26    0.20    0.24
  26  -2 -16    0.56    0.26
  26   4 -16   -0.05    0.18
  16  26  -4    0.00    0.16
   4 -16  26    0.00    0.20
 -26   4  16   -0.03    0.19
  26  -4  16    0.15    0.22
  -4  16  26    0.01    0.22
  26  -4 -16    0.04    0.19
  26   4  16    0.12    0.19
  26   4  16   -0.06    0.19
   4  16  26   -0.13    0.20
  16  26   4   -0.07    0.17
  -4 -16  26    0.04    0.20
 -16  26  -4    0.02    0.18
  -6  16  26    0.22    0.23
  16  26  -6    0.02    0.19
 -26   6  16   -0.14    0.17
  26  -6  16   -0.16    0.20
   6 -16  26    0.11    0.21
  26   6 -16    0.02    0.22
  16  26   6    0.19    0.20
  26   6  16   -0.21    0.19
  26   6  16    0.08    0.21
 -16  26  -6    0.02    0.17
   6  16  26    0.01    0.19
  -6 -16  26   -0.03    0.20
  26  -6 -16    0.17    0.23
 -26   8  16    0.23    0.22
  26  -8  16    0.26    0.27
   8 -16  26    0.06    0.20
  26   8 -16    0.29    0.22
  -8  16  26   -0.01    0.18
  16  26   8    0.21    0.22
  26   8  16    0.12    0.23
  -8 -16  26    0.28    0.24
   8  16  26    0.16    0.23
 -16  26  -8    0.22    0.22
  26  -8 -16    0.27    0.23
  26   8  16    0.13    0.22
 -10  16  26    0.05    0.22
 -16  26  10    0.23    0.21
 -26  10  16    0.03    0.17
  10  16  26   -0.15    0.23
 -16  26 -10   -0.09    0.20
  26  10  16   -0.19    0.20
  16  26  10    0.28    0.23
 -16  26  12    0.25    0.24
 -12  16  26    0.35    0.26
 -26  12  16    0.10    0.19
  26  12  16    0.11    0.25
 -16  26 -12    0.50    0.26
  12  16  26    0.35    0.24
  16  26  12    0.19    0.21
   0 -18  26    1.25    0.35
  26   0 -18    0.45    0.26
  26   0  18    0.34    0.25
   0  18  26    0.45    0.27
 -18  26   0    0.46    0.24
  18  26   0    0.69    0.27
   2 -18  26    8.50    0.65
  -2  18  26    8.59    0.64
  26   2 -18    8.33    0.65
  26  -2  18    9.80    0.70
 -18  26  -2    8.36    0.63
  18  26   2    9.45    0.64
   2  18  26    8.53    0.63
  26  -2 -18    8.77    0.67
  26   2  18    8.65    0.67
  -2 -18  26    8.70    0.67
  18  26  -4   -0.10    0.17
  -4  18  26    0.04    0.23
 -26   4  18    0.09    0.21
  -4 -18  26   -0.11    0.25
  26   4  18    0.52    0.26
   4  18  26    0.15    0.21
 -18  26  -4    0.17    0.23
  26  -4 -18    0.33    0.23
  26   4  18   -0.10    0.20
  18  26   4    0.02    0.18
  -6  18  26    7.32    0.62
 -26   6  18    7.69    0.60
  26   6  18    7.20    0.60
  26   6  18    7.04    0.61
 -18  26  -6    8.23    0.63
   6  18  26    9.62    0.67
  26  -6 -18    7.80    0.62
  18  26   6    7.94    0.61
  -8  18  26    0.29    0.26
 -26   8  18    0.28    0.24
   8  18  26    0.45    0.29
  26   8  18    0.13    0.22
  26   8  18    0.45    0.27
  18  26   8    0.33    0.23
 -18  26  -8    0.48    0.25
  20  26   0   -0.02    0.23
   0  20  26   -0.14    0.24
  -2  20  26    0.01    0.24
   2  20  26   -0.18    0.23
  20  26   2    0.08    0.22
 -20  26  -2    0.15    0.22
 -26   4  20    0.08    0.22
  -4  20  26   -0.17    0.22
  20  26   4    0.38    0.26
  26  -4 -20   -0.14    0.23
   4  20  26   -0.15    0.23
   1  27  -1    0.11    0.13
   1  -1  27    0.10    0.15
  -1  27   1    0.07    0.16
  27   1  -1   -0.06    0.17
  27  -1   1    0.00    0.19
  -1   1  27    0.00    0.13
   1  27   1    0.00    0.13
   1   1  27    0.16    0.16
  -1  27  -1    0.06    0.14
  27   1   1    0.20    0.15
  -1  -1  27    0.14    0.17
  27  -1  -1   -0.05    0.15
  -3   1  27    0.03    0.14
   1  27  -3   -0.04    0.15
  27   3  -1   -0.02    0.13
  -1  27   3   -0.14    0.14
  27  -3   1    0.03    0.17
   3  -1  27    0.17    0.15
  27  -3  -1    0.31    0.20
  -1  27  -3    0.17    0.14
   3   1  27    0.14    0.16
  27   3   1    0.13    0.15
  -3  -1  27    0.18    0.18
   1  27   3    0.08    0.16
  27   5  -1    0.18    0.19
   5  -1  27    0.28    0.20
   1  27  -5    0.46    0.18
  -5   1  27    0.17    0.18
  -1  27   5    0.10    0.16
  27  -5   1    0.37    0.21
  -5  -1  27    0.67    0.22
   5   1  27    0.14    0.19
   1  27   5    0.35    0.18
  27  -5  -1    0.48    0.23
  -1  27  -5    0.19    0.16
   1  27   5    0.55    0.20
  27   5   1    0.48    0.22
  27   7  -1    0.31    0.19
  -1  27   7    0.60    0.22
   1  27  -7    0.33    0.19
   7  -1  27    0.37    0.21
  -7   1  27    0.42    0.19
  27  -7   1    0.58    0.24
  -1  27   7    0.56    0.20
   1  27   7    0.49    0.20
   7   1  27    0.36    0.20
  27  -7  -1    0.45    0.23
  -7  -1  27    0.56    0.23
  27   7   1    0.48    0.21
  -1  27  -7    0.44    0.20
   1  27   7    0.33    0.20
  27  -9   1   -0.07    0.19
  -9   1  27   -0.25    0.13
   9  -1  27   -0.11    0.16
  -1  27   9    0.16    0.18
  27   9  -1    0.19    0.18
  -1  27   9   -0.07    0.14
   1  27  -9    0.27    0.19
  -1  27  -9   -0.04    0.15
  27  -9  -1    0.08    0.20
   1  27   9   -0.07    0.18
   9   1  27    0.29    0.20
  27   9   1    0.04    0.15
  -9  -1  27    0.20    0.16
   1  27   9    0.02    0.16
  27  11  -1    0.24    0.21
 -11   1  27    0.26    0.18
   1  27 -11    0.03    0.17
  -1  27  11    0.26    0.21
  27 -11   1    0.22    0.21
  11  -1  27    0.51    0.23
  -1  27  11    0.20    0.19
  -1  27 -11   -0.09    0.16
  27 -11  -1    0.18    0.21
   1  27  11    0.21    0.19
  27  11   1   -0.04    0.18
  11   1  27    0.33    0.22
   1  27  11    0.36    0.20
 -11  -1  27    0.24    0.18
  -1  27  13   -0.04    0.17
 -13   1  27    0.23    0.20
  13  -1  27    0.12    0.21
   1  27 -13    0.10    0.19
  27 -13   1   -0.24    0.21
  27  13  -1    0.12    0.19
  -1  27  13    0.08    0.19
  27  13   1   -0.02    0.19
  27 -13  -1    0.13    0.21
  13   1  27    0.17    0.21
   1  27  13    0.00    0.16
  -1  27 -13   -0.10    0.15
 -13  -1  27    0.07    0.16
  15  -1  27    0.69    0.26
  -1  27  15    0.66    0.26
  27  15  -1    0.69    0.25
  -1  27  15    0.08    0.21
 -15   1  27    0.86    0.27
 -15   1  27    0.67    0.24
  27 -15   1    0.95    0.28
   1  27 -15    0.58    0.26
  27  15   1    0.53    0.25
  15   1  27    0.94    0.29
   1  27  15    0.54    0.26
  -1  27 -15    0.52    0.24
 -15  -1  27    0.43    0.23
  -1  27  17    0.04    0.22
  17  -1  27   -0.04    0.20
 -17   1  27    0.00    0.18
   1  27 -17   -0.15    0.17
 -17   1  27   -0.02    0.19
  27  17  -1    0.08    0.21
  17   1  27   -0.03    0.18
   1  27  17    0.07    0.22
  -1  27 -17   -0.17    0.19
  27  17   1   -0.03    0.17
 -17  -1  27    0.17    0.20
  27  19  -1    0.05    0.20
  -1  27  19    0.07    0.21
 -19   1  27    0.19    0.21
 -19   1  27    0.00    0.21
   1  27 -19    0.01    0.20
   1  27  19    0.02    0.20
  -1  27 -19    0.05    0.21
  27  19   1   -0.01    0.19
  -3  27   1    0.12    0.17
  27  -1   3    0.11    0.19
   3  27  -1    0.02    0.14
  27   1  -3    0.10    0.18
   1  -3  27    0.09    0.16
  -1   3  27   -0.11    0.14
   3  27   1   -0.06    0.12
  27   1   3    0.12    0.16
  -3  27  -1    0.15    0.15
  27  -1  -3    0.12    0.18
   1   3  27    0.00    0.15
  -1  -3  27    0.05    0.16
  27   3  -3   -0.08    0.14
  -3   3  27   -0.02    0.14
   3  27  -3   -0.03    0.12
   3  -3  27    0.04    0.15
  -3  27   3   -0.01    0.14
  27  -3   3   -0.10    0.18
  -3  27  -3   -0.09    0.14
   3   3  27    0.03    0.14
   3  27   3   -0.14    0.15
  27   3   3   -0.11    0.13
  27  -3  -3    0.15    0.19
  -3  -3  27    0.06    0.14
   5  -3  27    0.18    0.19
  27   5  -3   -0.18    0.12
   3  27  -5    0.48    0.19
  -5   3  27    0.05    0.15
  27  -5   3    0.21    0.22
  -3  27   5   -0.04    0.15
   5   3  27    0.30    0.19
   3  27   5    0.21    0.18
   3  27   5    0.47    0.20
  -3  27  -5    0.24    0.18
  27   5   3    0.26    0.19
  27  -5  -3    0.34    0.20
  -5  -3  27    0.53    0.22
   7  -3  27    0.28    0.18
  -7   3  27   -0.15    0.13
  -3  27   7   -0.14    0.15
  -3  27   7    0.09    0.15
  27   7  -3    0.05    0.15
   3  27  -7    0.02    0.14
  -7   3  27    0.11    0.15
  27  -7   3   -0.02    0.19
   3  27   7    0.14    0.17
  27   7   3   -0.01    0.17
  27  -7  -3    0.20    0.19
   3  27   7   -0.26    0.17
   7   3  27   -0.26    0.13
  -7  -3  27    0.02    0.17
  -3  27  -7    0.00    0.15
  27  -9   3   -0.18    0.17
  -9   3  27    0.05    0.15
   3  27  -9    0.16    0.19
  -3  27   9   -0.06    0.16
  27   9  -3    0.11    0.18
  -3  27   9    0.00    0.17
  -9   3  27   -0.03    0.15
   9  -3  27    0.02    0.16
   3  27   9    0.04    0.15
  -3  27  -9    0.07    0.15
   9   3  27    0.12    0.17
  27   9   3    0.42    0.22
  -9  -3  27    0.11    0.17
  27  -9  -3    0.28    0.20
   3  27 -11   -0.01    0.17
  -3  27  11   -0.14    0.16
  11  -3  27    0.25    0.19
  27  11  -3    0.12    0.18
 -11   3  27    0.13    0.16
  -3  27  11    0.22    0.20
  27 -11   3   -0.13    0.16
 -11   3  27   -0.40    0.13
   3  27  11    0.01    0.16
  27  11   3    0.30    0.20
 -11  -3  27   -0.20    0.14
  11   3  27    0.17    0.17
  27 -11  -3    0.00    0.19
  -3  27 -11    0.09    0.18
  27  13  -3   -0.01    0.18
  -3  27  13    0.37    0.23
 -13   3  27   -0.13    0.18
 -13   3  27    0.13    0.20
  -3  27  13   -0.13    0.18
  27 -13   3    0.20    0.22
   3  27 -13    0.03    0.20
  13  -3  27    0.36    0.24
 -13  -3  27    0.07    0.17
  27  13   3   -0.34    0.17
  13   3  27    0.24    0.20
   3  27  13    0.54    0.25
  27 -13  -3   -0.05    0.19
  -3  27 -13   -0.04    0.16
  27  15  -3    0.60    0.25
  27 -15   3    0.34    0.27
  15  -3  27    0.52    0.25
 -15   3  27    0.45    0.21
 -15   3  27    0.29    0.21
  -3  27  15    0.57    0.25
  -3  27  15    0.73    0.24
   3  27 -15    0.32    0.22
   3  27  15    0.55    0.23
  15   3  27    0.44    0.25
  -3  27 -15    0.75    0.26
 -15  -3  27    0.86    0.27
  27  15   3    0.24    0.23
  27  15   3    0.62    0.26
  27  17  -3    0.04    0.21
 -17   3  27   -0.08    0.18
 -17   3  27   -0.21    0.16
  -3  27  17    0.21    0.21
  17  -3  27    0.19    0.24
   3  27 -17   -0.23    0.17
  27  17   3   -0.07    0.17
  -3  27 -17   -0.22    0.15
   3  27  17    0.06    0.17
  17   3  27    0.04    0.20
 -17  -3  27   -0.08    0.18
  -5  27   1    0.17    0.18
  27   1  -5    0.46    0.22
   5  27  -1    0.22    0.16
  27  -1   5    0.46    0.22
   1  -5  27    0.32    0.18
  -1   5  27    0.44    0.19
  -1  -5  27    0.29    0.20
   5  27   1    0.45    0.19
  27   1   5    0.39    0.22
  -5  27  -1    0.16    0.18
  27  -1  -5    0.32    0.22
  27  -3   5    0.42    0.22
  -5  27   3    0.15    0.17
  -3   5  27    0.14    0.16
   5  27  -3    0.02    0.14
   3  -5  27    0.36    0.19
  27   3  -5    0.15    0.17
  -3  -5  27    0.06    0.15
  -5  27  -3    0.01    0.18
  27  -3  -5    0.33    0.20
   5  27   3    0.18    0.16
  27   3   5    0.32    0.22
   5  27  -5   -0.01    0.12
  -5   5  27    0.03    0.16
   5  -5  27   -0.07    0.15
  27   5  -5    0.03    0.14
  -5  27   5   -0.06    0.14
  27  -5   5   -0.13    0.18
  27   5   5    0.12    0.17
  -5  27  -5   -0.15    0.16
  27  -5  -5    0.11    0.19
   5  27   5   -0.11    0.15
   5  27   5   -0.19    0.12
  -5  -5  27   -0.19    0.13
  27  -7   5    0.34    0.25
  -7   5  27    0.31    0.19
  -5  27   7    0.30    0.20
   5  27  -7    0.02    0.17
   7  -5  27    0.01    0.17
  27   7  -5    0.45    0.21
  -5  27   7    0.10    0.18
  -5  27  -7    0.22    0.17
  27   7   5    0.23    0.20
  -7  -5  27    0.09    0.18
   5  27   7    0.37    0.18
  27  -7  -5    0.31    0.21
  -5  27   9    0.09    0.16
   5  27  -9    0.12    0.17
   9  -5  27    0.51    0.23
  -5  27   9    0.43    0.21
  -9   5  27    0.23    0.18
  27  -9   5   -0.09    0.20
  27   9  -5   -0.15    0.16
  27  -9  -5    0.03    0.20
  27   9   5   -0.01    0.18
  -5  27  -9   -0.03    0.18
   5  27   9    0.32    0.19
  -9  -5  27    0.19    0.18
  -5  27  11    0.01    0.18
  -5  27  11   -0.05    0.18
  11  -5  27   -0.03    0.16
 -11   5  27   -0.01    0.17
  27  11  -5    0.00    0.17
  27 -11   5   -0.23    0.17
   5  27 -11    0.15    0.17
  -5  27 -11    0.15    0.17
 -11  -5  27    0.03    0.16
   5  27  11    0.17    0.18
  27  11   5   -0.16    0.14
  27 -11  -5    0.02    0.19
 -13   5  27   -0.18    0.17
  27 -13   5    0.14    0.25
  13  -5  27    0.27    0.21
  -5  27  13    0.29    0.21
   5  27 -13   -0.10    0.15
  27  13  -5    0.14    0.19
  -5  27  13   -0.21    0.18
  27  13   5    0.01    0.17
 -13  -5  27    0.13    0.18
  27 -13  -5    0.18    0.22
  27  13   5   -0.01    0.20
   5  27  13    0.33    0.22
  -5  27 -13   -0.04    0.19
  27 -15   5    0.18    0.23
   5  27 -15   -0.03    0.20
  -5  27  15    0.54    0.25
  27  15  -5    0.34    0.23
  15  -5  27    0.43    0.25
 -15   5  27    0.09    0.20
 -15  -5  27    0.27    0.18
  27  15   5    0.09    0.19
  -5  27 -15    0.50    0.24
   5  27  15    0.10    0.20
  -5  27  17   -0.06    0.22
 -27  17   5    0.05    0.19
  27 -17   5    0.27    0.26
  27  17  -5   -0.14    0.20
   5  27 -17    0.02    0.20
 -17   5  27   -0.05    0.19
  27  17   5   -0.25    0.19
  -5  27 -17   -0.21    0.18
   5  27  17    0.01    0.20
   7  27  -1    0.29    0.18
  27   1  -7    0.42    0.23
   1  -7  27    0.30    0.20
  -7  27   1    0.67    0.23
  -1   7  27    0.73    0.21
  27  -1   7    0.59    0.25
   1   7  27    0.77    0.21
   7  27   1    0.58    0.20
  -1  -7  27    0.05    0.15
  27   1   7    0.49    0.21
  -7  27  -1    0.51    0.22
  27  -1  -7    0.37    0.20
   3  -7  27    0.04    0.16
  -3   7  27   -0.03    0.14
   7  27  -3    0.21    0.16
  27  -3   7   -0.12    0.18
  27   3  -7    0.15    0.19
  -7  27   3   -0.04    0.16
   7  27   3    0.17    0.18
   7  27   3   -0.24    0.13
  -7  27  -3   -0.06    0.18
  27  -3  -7    0.08    0.19
  -3  -7  27    0.07    0.16
   3   7  27    0.23    0.18
  27   3   7    0.23    0.19
   5  -7  27    0.22    0.18
  27  -5   7    0.22    0.21
  27   5  -7   -0.14    0.14
   7  27  -5   -0.01    0.17
  -5   7  27    0.20    0.17
  -7  27   5    0.26    0.20
  27  -5  -7    0.26    0.20
  27   5   7    0.33    0.21
  -7  27  -5    0.19    0.18
   5   7  27    0.17    0.18
  -5  -7  27    0.54    0.22
   7  27   5    0.35    0.20
  -7   7  27   -0.15    0.13
   7  27  -7   -0.01    0.17
   7  -7  27   -0.13    0.15
  27  -7   7   -0.16    0.20
  27   7  -7   -0.06    0.16
  -7  27   7   -0.10    0.13
   7   7  27    0.05    0.16
  -7  -7  27   -0.03    0.13
  -7  27  -7    0.04    0.18
  27  -7  -7   -0.09    0.17
  27   7   7    0.19    0.19
   7  27   7    0.11    0.17
   7  27  -9   -0.03    0.15
  -7  27   9   -0.20    0.16
  -7  27   9    0.10    0.18
   9  -7  27   -0.01    0.14
  27  -9   7   -0.18    0.20
  -9   7  27   -0.17    0.17
  27   9  -7   -0.09    0.14
   7  27   9    0.21    0.19
  27   9   7   -0.11    0.18
  -7  27  -9    0.03    0.19
  -9  -7  27    0.02    0.19
  27  -9  -7   -0.13    0.17
 -11   7  27    0.09    0.18
  -7  27  11    0.08    0.19
  27 -11   7   -0.12    0.21
   7  27 -11    0.08    0.18
  11  -7  27    0.00    0.15
  -7  27  11    0.17    0.18
  27  11  -7   -0.15    0.16
  -7  27 -11   -0.21    0.15
  27 -11  -7    0.07    0.20
  27  11   7    0.31    0.22
   7  27  11    0.21    0.21
 -11  -7  27    0.05    0.17
  27  11   7    0.26    0.22
 -27  13   7   -0.07    0.15
  -7  27  13   -0.09    0.18
  27  13  -7    0.06    0.20
 -13   7  27   -0.04    0.17
   7  27 -13    0.01    0.17
  27 -13   7    0.18    0.25
  13  -7  27   -0.15    0.16
  27  13   7   -0.13    0.22
  -7  27 -13    0.02    0.17
 -13  -7  27    0.06    0.19
   7  27  13    0.11    0.20
  27  13   7   -0.10    0.19
  27 -15   7   -0.23    0.24
  -7  27  15    0.29    0.23
  15  -7  27    0.04    0.18
 -27  15   7   -0.12    0.14
 -15   7  27   -0.20    0.20
   7  27 -15    0.13    0.22
  27  15  -7   -0.09    0.19
   7  27  15    0.27    0.22
  27  15   7   -0.08    0.20
  -7  27 -15    0.10    0.21
 -15  -7  27    0.03    0.19
  27 -17   7   -0.13    0.26
  -7  27  17   -0.26    0.20
 -27  17   7   -0.12    0.18
  27  17  -7   -0.18    0.20
 -17   7  27    0.11    0.22
   7  27  17    0.14    0.19
  -7  27 -17    0.30    0.21
  27  17   7    0.05    0.20
  27  -1   9   -0.18    0.14
   9  27  -1    0.06    0.15
   1  -9  27    0.11    0.17
  -1   9  27    0.30    0.19
  -9  27   1    0.06    0.18
  27   1  -9   -0.17    0.16
  27  -1  -9    0.11    0.19
  -9  27  -1    0.05    0.18
  27   1   9   -0.27    0.16
   1   9  27    0.03    0.15
   9  27   1    0.01    0.17
  -1  -9  27    0.09    0.16
   9  27  -3   -0.10    0.15
  -3   9  27    0.41    0.20
  27  -3   9   -0.27    0.14
  -9  27   3    0.09    0.17
   3  -9  27    0.23    0.19
  27   3  -9    0.00    0.18
  -9  27  -3    0.00    0.18
  27   3   9   -0.22    0.16
  -3  -9  27    0.06    0.16
   9  27   3    0.04    0.17
  27  -3  -9    0.03    0.18
   3   9  27    0.08    0.18
  -9  27   5    0.15    0.19
   5  -9  27    0.19    0.18
  27  -5   9    0.18    0.22
  27   5  -9    0.29    0.22
   9  27  -5    0.10    0.19
  -5   9  27    0.24    0.18
   5   9  27    0.15    0.17
  27   5   9    0.23    0.21
  -9  27  -5   -0.10    0.19
   9  27   5   -0.02    0.16
  -5  -9  27    0.24    0.18
  27  -5  -9    0.08    0.19
  -7   9  27   -0.01    0.16
  -9  27   7   -0.06    0.16
   9  27  -7   -0.09    0.15
  27   7  -9   -0.04    0.16
  27  -7   9    0.03    0.21
   7  -9  27   -0.05    0.16
  -7  -9  27   -0.11    0.14
   9  27   7   -0.18    0.14
  -9  27  -7   -0.15    0.19
  27   7   9    0.03    0.20
  27  -7  -9   -0.18    0.18
  27   7   9    0.21    0.20
   7   9  27   -0.16    0.17
   9  -9  27   -0.08    0.17
  27  -9   9    0.02    0.23
  -9   9  27   -0.13    0.16
  -9  27   9    0.30    0.21
  27   9  -9   -0.10    0.15
  -9  27   9    0.08    0.17
   9  27  -9   -0.05    0.17
   9   9  27   -0.08    0.16
  -9  27  -9   -0.41    0.17
   9  27   9    0.25    0.20
  -9  -9  27   -0.06    0.15
  27  -9  -9   -0.03    0.17
  27   9   9   -0.26    0.17
  27   9   9   -0.24    0.15
 -11   9  27   -0.32    0.16
  27  11  -9   -0.11    0.17
  -9  27  11   -0.24    0.16
  -9  27  11   -0.24    0.17
  11  -9  27   -0.03    0.18
  27 -11   9    0.05    0.21
 -27  11   9   -0.10    0.16
   9  27 -11    0.22    0.18
  27 -11  -9    0.02    0.20
  27  11   9   -0.08    0.19
 -11  -9  27    0.03    0.17
  11   9  27   -0.16    0.19
   9  27  11   -0.21    0.17
  -9  27 -11    0.09    0.17
  27  11   9    0.00    0.21
  13  -9  27   -0.03    0.17
  27 -13   9    0.10    0.27
  27  13  -9    0.26    0.19
 -27  13   9   -0.12    0.17
 -13   9  27    0.08    0.17
  -9  27  13   -0.22    0.18
   9  27 -13   -0.07    0.16
  13   9  27   -0.22    0.18
  27  13   9   -0.18    0.22
 -13  -9  27   -0.03    0.18
   9  27  13    0.00    0.19
  -9  27 -13   -0.17    0.17
 -27  15   9    0.49    0.24
  27  15  -9    0.26    0.19
  27 -15   9    0.27    0.28
 -15   9  27    0.32    0.22
  -9  27  15    0.06    0.20
   9  27  15    0.24    0.22
  27  15   9    0.14    0.27
  -9  27 -15    0.04    0.20
  -1  11  27    0.43    0.21
  11  27  -1   -0.03    0.15
 -11  27   1    0.12    0.21
  27   1 -11    0.16    0.21
   1 -11  27    0.53    0.23
  27  -1  11    0.13    0.19
  27  -1 -11    0.07    0.22
  11  27   1    0.11    0.19
 -11  27  -1    0.41    0.22
   1  11  27    0.63    0.24
  27   1  11    0.40    0.24
  -1 -11  27    0.28    0.20
  27  -3  11   -0.01    0.18
  27   3 -11    0.08    0.20
 -11  27   3   -0.08    0.16
  11  27  -3    0.01    0.16
   3 -11  27    0.16    0.17
  -3  11  27   -0.02    0.18
  27  -3 -11   -0.04    0.20
   3  11  27   -0.01    0.18
  11  27   3    0.06    0.17
  27   3  11    0.20    0.21
 -11  27  -3   -0.28    0.18
  -3 -11  27   -0.06    0.16
 -11  27   5   -0.16    0.17
  -5  11  27    0.15    0.19
  27  -5  11    0.00    0.23
  27   5 -11   -0.31    0.16
   5 -11  27    0.34    0.20
  11  27  -5    0.15    0.17
 -11  27  -5    0.12    0.19
   5  11  27   -0.07    0.17
  27  -5 -11    0.06    0.18
  -5 -11  27   -0.14    0.15
  27   5  11   -0.05    0.19
  11  27   5   -0.22    0.14
  27   5  11   -0.07    0.15
  27   7 -11    0.26    0.19
  27  -7  11    0.14    0.21
 -11  27   7   -0.10    0.18
   7 -11  27    0.03    0.16
  -7  11  27    0.04    0.18
  11  27  -7    0.09    0.17
  27   7  11    0.61    0.28
  27   7  11   -0.04    0.18
  27  -7 -11   -0.03    0.20
 -11  27  -7   -0.28    0.16
  11  27   7   -0.05    0.18
   7  11  27   -0.18    0.16
  -7 -11  27    0.09    0.18
  27  -9  11   -0.37    0.21
   9 -11  27   -0.04    0.15
 -27   9  11   -0.11    0.14
  11  27  -9    0.10    0.18
  27   9 -11   -0.26    0.15
 -11  27   9   -0.29    0.14
  -9  11  27    0.09    0.19
  27   9  11    0.02    0.19
  11  27   9   -0.18    0.16
  -9 -11  27   -0.06    0.18
  27  -9 -11   -0.08    0.19
  27   9  11   -0.16    0.18
   9  11  27    0.01    0.19
 -11  27  -9   -0.16    0.17
 -27  11  11    0.11    0.17
  11  27 -11   -0.05    0.17
  27  11 -11    0.04    0.18
  27 -11  11   -0.13    0.20
 -11  11  27   -0.14    0.17
 -11  27  11   -0.20    0.18
  11 -11  27    0.04    0.19
  11  27  11   -0.01    0.17
 -11  27 -11    0.17    0.20
 -11 -11  27   -0.23    0.16
  11  11  27    0.02    0.22
  27  11  11   -0.19    0.20
  27  11  11   -0.16    0.22
 -27  13  11    0.20    0.18
 -13  11  27   -0.09    0.20
 -11  27  13   -0.13    0.17
  27  13 -11    0.14    0.20
  27 -13  11    0.05    0.24
  13  11  27    0.16    0.24
  11  27  13    0.09    0.20
 -11  27 -13    0.06    0.19
  27  13  11   -0.08    0.22
 -27  15  11    0.26    0.20
 -15  11  27    0.18    0.24
 -11  27  15   -0.41    0.18
  11  27  15    0.38    0.24
  15  11  27   -0.12    0.23
  27  15  11   -0.20    0.22
 -11  27 -15    0.06    0.19
   1 -13  27   -0.10    0.18
  27  -1  13    0.43    0.23
 -13  27   1    0.05    0.18
  27   1 -13   -0.31    0.17
  13  27  -1    0.12    0.19
  -1  13  27    0.03    0.19
  27   1  13    0.08    0.21
  -1 -13  27    0.13    0.20
  27  -1 -13   -0.04    0.20
 -13  27  -1   -0.26    0.17
  27   1  13    0.32    0.23
   1  13  27    0.91    0.25
   3 -13  27    0.14    0.21
  13  27  -3   -0.21    0.17
 -13  27   3    0.15    0.22
  27   3 -13   -0.03    0.18
  27  -3  13    0.32    0.20
  -3  13  27    0.20    0.21
 -13  27  -3    0.26    0.23
   3  13  27   -0.01    0.18
  27   3  13    0.39    0.23
  27  -3 -13    0.04    0.21
  27   3  13    0.06    0.21
  -3 -13  27    0.12    0.20
  13  27   3    0.17    0.18
  27   5 -13   -0.08    0.22
  -5  13  27    0.26    0.22
 -13  27   5   -0.05    0.18
  13  27  -5    0.15    0.18
  27  -5  13   -0.09    0.21
   5 -13  27    0.44    0.24
  13  27   5   -0.10    0.17
  27  -5 -13    0.18    0.23
  -5 -13  27    0.04    0.20
  27   5  13    0.24    0.21
 -13  27  -5    0.10    0.21
  27   5  13   -0.20    0.18
   5  13  27    0.06    0.21
 -27   7  13   -0.26    0.14
  13  27  -7    0.18    0.18
  27   7 -13   -0.17    0.16
  -7  13  27    0.34    0.21
  27  -7  13    0.09    0.23
   7 -13  27   -0.07    0.20
 -13  27  -7   -0.24    0.17
  27  -7 -13   -0.09    0.21
   7  13  27    0.18    0.22
  27   7  13   -0.09    0.19
  13  27   7    0.12    0.20
  27   7  13   -0.05    0.21
  -7 -13  27    0.04    0.20
  13  27  -9    0.11    0.18
  -9  13  27    0.23    0.22
 -27   9  13    0.00    0.18
  27  -9  13   -0.16    0.25
  27   9 -13   -0.34    0.14
   9 -13  27    0.03    0.20
  -9 -13  27   -0.13    0.19
  27   9  13   -0.28    0.19
  27  -9 -13   -0.28    0.20
  27   9  13   -0.39    0.19
   9  13  27   -0.10    0.20
  13  27   9   -0.14    0.16
 -13  27  -9   -0.06    0.23
 -11  13  27   -0.11    0.20
 -13  27  11   -0.33    0.15
 -27  11  13   -0.10    0.14
  11  13  27   -0.08    0.20
  13  27  11   -0.02    0.20
 -13  27 -11    0.07    0.20
  27  11  13   -0.09    0.23
 -13  13  27    0.03    0.21
 -27  13  13   -0.27    0.14
 -13  27  13   -0.21    0.19
  27  13  13   -0.10    0.24
  13  27  13   -0.27    0.19
 -13  27 -13   -0.17    0.22
  13  13  27    0.14    0.24
  27  -1  15    0.48    0.28
 -15  27   1   -0.02    0.21
  15  27  -1    0.43    0.22
   1 -15  27    0.33    0.26
  -1  15  27    0.59    0.25
  27   1 -15    0.22    0.27
  27   1  15    0.53    0.24
 -15  27  -1    0.28    0.23
  27  -1 -15    0.52    0.26
   1  15  27    0.43    0.25
  -1 -15  27    0.95    0.30
  27   1  15    0.20    0.21
  27   3 -15    0.75    0.29
  15  27  -3    0.56    0.23
 -15  27   3    0.40    0.24
   3 -15  27    0.61    0.28
  -3  15  27    0.50    0.25
  27  -3  15    0.55    0.23
   3  15  27    0.33    0.24
  27   3  15    0.50    0.27
  -3 -15  27    0.56    0.30
  27   3  15    0.20    0.21
  15  27   3    0.75    0.25
  27  -3 -15    0.90    0.28
 -15  27  -3    0.49    0.24
  27  -5  15    0.13    0.22
  27   5 -15    0.41    0.26
   5 -15  27    0.55    0.27
  15  27  -5    0.47    0.22
  -5  15  27    0.08    0.23
  27   5  15    0.05    0.22
   5  15  27    0.26    0.22
 -15  27  -5    0.25    0.22
  -5 -15  27    0.02    0.23
  27   5  15    0.07    0.20
  27  -5 -15    0.22    0.22
  15  27   5   -0.16    0.17
  -7  15  27   -0.06    0.21
 -27   7  15    0.07    0.17
  15  27  -7   -0.08    0.18
   7 -15  27    0.05    0.20
   7  15  27    0.28    0.22
  -7 -15  27   -0.16    0.20
 -15  27  -7   -0.03    0.21
  27   7  15    0.26    0.25
  15  27   7    0.09    0.18
  27   7  15    0.01    0.21
  27  -7 -15   -0.09    0.20
 -27   9  15    0.33    0.22
  -9  15  27    0.04    0.20
  27   9  15   -0.07    0.21
  15  27   9    0.08    0.21
   9  15  27    0.04    0.21
  27   9  15    0.07    0.22
 -15  27  -9   -0.07    0.18
 -15  27  11    0.16    0.21
 -27  11  15    0.30    0.22
 -11  15  27   -0.01    0.23
  27  11  15   -0.05    0.24
  11  15  27   -0.12    0.22
  15  27  11    0.01    0.20
 -15  27 -11   -0.02    0.21
  27  -1  17    0.09    0.20
  17  27  -1    0.03    0.18
  -1  17  27    0.17    0.23
  27   1 -17   -0.23    0.24
 -17  27   1   -0.12    0.20
   1  17  27    0.02    0.21
  17  27   1    0.16    0.21
  27  -1 -17   -0.11    0.22
  27   1  17   -0.02    0.18
 -17  27  -1   -0.23    0.18
  -3  17  27    0.12    0.22
  17  27  -3   -0.25    0.15
  27   3  17   -0.03    0.24
 -17  27  -3    0.07    0.23
  17  27   3    0.04    0.21
  27  -3 -17   -0.27    0.22
   3  17  27   -0.26    0.19
  -5  17  27    0.18    0.23
 -27   5  17   -0.32    0.19
  17  27  -5   -0.06    0.18
  17  27   5   -0.07    0.20
  27   5  17   -0.32    0.21
 -17  27  -5   -0.35    0.17
  27   5  17   -0.01    0.22
   5  17  27    0.02    0.20
  27  -5 -17   -0.13    0.23
  -7  17  27    0.22    0.25
 -27   7  17    0.04    0.20
  27   7  17   -0.28    0.19
  17  27   7    0.07    0.20
   7  17  27    0.04    0.24
 -17  27  -7    0.04    0.22
  27  -7 -17   -0.32    0.20
  27   7  17   -0.24    0.20
  -1  19  27    0.18    0.25
  19  27   1    0.05    0.22
   1  19  27   -0.06    0.22
   0   0  28   37.76    1.43
   0  28   0   38.27    1.38
  28   0   0   37.67    1.43
  28   2   0    0.21    0.18
   2   0  28   -0.38    0.16
  28  -2   0    0.10    0.20
   0  28  -2   -0.03    0.16
  -2   0  28   -0.59    0.17
   0  28   2    0.25    0.20
  -4   0  28   54.59    1.87
  28  -4   0   54.24    1.84
   4   0  28   54.46    1.85
  28   4   0   53.70    1.86
   0  28  -4   57.46    1.82
   0  28   4   54.87    1.78
   0  28  -6    0.07    0.17
  28  -6   0    0.06    0.19
  28   6   0    0.24    0.21
  -6   0  28   -0.01    0.18
   0  28   6    0.06    0.19
   0  28   6    0.20    0.21
   6   0  28    0.04    0.19
   0  28   8   36.65    1.35
   8   0  28   35.03    1.40
  28   8   0   38.04    1.45
   0  28   8   36.64    1.33
  28  -8   0   36.20    1.40
  -8   0  28   36.31    1.40
   0  28  -8   37.44    1.38
   0  28  10    0.34    0.21
  28 -10   0   -0.11    0.20
  28  10   0    0.30    0.23
   0  28  10   -0.22    0.17
 -10   0  28    0.05    0.16
   0  28 -10    0.17    0.19
  10   0  28   -0.13    0.15
   0  28  12   50.03    1.71
 -12   0  28   47.76    1.74
   0  28 -12   52.66    1.76
  28 -12   0   50.93    1.76
  12   0  28   49.54    1.79
  28  12   0   49.31    1.80
   0  28  12   51.04    1.70
   0  28 -14    0.36    0.23
  28  14   0    0.23    0.24
 -14   0  28    0.10    0.19
  14   0  28    0.19    0.18
   0  28  14    0.13    0.22
  28 -14   0    0.11    0.24
   0  28  14    0.13    0.20
  16   0  28   32.21    1.39
 -16   0  28   31.70    1.36
  28  16   0   34.77    1.42
   0  28  16   34.55    1.36
   0  28 -16   30.61    1.31
  28   0  -2   -0.09    0.20
  28   0   2    0.27    0.19
   0   2  28   -0.03    0.16
   2  28   0    0.17    0.16
  -2  28   0    0.03    0.19
   0  -2  28    0.23    0.18
  28   2  -2    0.76    0.23
  28  -2   2    1.05    0.30
  -2   2  28    0.32    0.20
  -2  28   2    0.77    0.26
   2  -2  28    1.01    0.26
   2  28  -2    0.36    0.21
   2   2  28    0.46    0.21
   2  28   2    0.56    0.23
  -2  28  -2    0.39    0.22
  -2  -2  28    0.93    0.26
  28  -2  -2    0.44    0.22
  28   2   2    0.77    0.25
  -2  28   4   -0.05    0.18
  -4   2  28    0.59    0.21
   2  28  -4    0.07    0.15
   4  -2  28   -0.07    0.14
  28  -4   2   -0.21    0.21
  28   4  -2   -0.01    0.19
   2  28   4   -0.06    0.15
  -4  -2  28    0.19    0.17
   4   2  28    0.23    0.16
  28   4   2   -0.35    0.18
  -2  28  -4    0.30    0.19
  28  -4  -2    0.08    0.23
  -6   2  28   -0.06    0.15
  -2  28   6    0.01    0.16
   6  -2  28    0.03    0.18
   2  28  -6   -0.16    0.15
  28   6  -2    0.31    0.20
  28  -6   2   -0.06    0.19
  28  -6  -2   -0.21    0.17
   2  28   6    0.03    0.15
  -6  -2  28    0.13    0.18
  28   6   2    0.13    0.20
  -2  28  -6   -0.21    0.15
   6   2  28   -0.03    0.15
   2  28   6   -0.20    0.16
  28   8  -2    0.34    0.21
   2  28  -8    0.11    0.18
  -2  28   8    0.32    0.20
   8  -2  28   -0.08    0.17
  -2  28   8   -0.16    0.18
  28  -8   2   -0.02    0.21
  -8   2  28    0.24    0.17
  -8  -2  28    0.40    0.20
  28   8   2    0.50    0.22
   2  28   8    0.16    0.19
  28  -8  -2    0.25    0.23
   8   2  28    0.21    0.19
  -2  28  -8    0.25    0.19
   2  28   8   -0.27    0.18
 -10   2  28    0.27    0.20
  -2  28  10    0.23    0.22
   2  28 -10    0.03    0.18
  -2  28  10   -0.03    0.20
  28 -10   2    0.40    0.25
  10  -2  28    0.72    0.26
  28  10  -2    0.61    0.25
  28  10   2    0.39    0.24
   2  28  10    0.42    0.22
  10   2  28    0.21    0.20
  -2  28 -10    0.47    0.21
  28 -10  -2    0.19    0.24
 -10  -2  28    0.25    0.19
   2  28  10    0.55    0.23
  -2  28  12   -0.23    0.21
  -2  28  12    0.25    0.22
 -12   2  28    0.33    0.19
   2  28 -12    0.30    0.18
  28 -12   2    0.01    0.22
  12  -2  28    0.26    0.19
  28  12  -2    0.11    0.19
 -12  -2  28    0.31    0.20
  28 -12  -2   -0.12    0.20
  28  12   2    0.09    0.21
   2  28  12   -0.41    0.19
  12   2  28    0.43    0.23
  -2  28 -12    0.06    0.17
  -2  28  14    0.46    0.24
  -2  28  14    0.61    0.23
  14  -2  28    0.14    0.21
   2  28 -14    0.37    0.22
 -14   2  28    0.42    0.21
  28 -14   2    0.78    0.30
  28  14  -2    0.21    0.21
  28 -14  -2    0.47    0.27
  14   2  28    0.05    0.20
  28  14   2    0.60    0.26
   2  28  14    0.01    0.19
 -14  -2  28    0.23    0.20
  -2  28 -14    0.46    0.25
 -16   2  28    0.65    0.26
  -2  28  16   -0.07    0.25
   2  28 -16    0.95    0.27
  -2  28  16    0.86    0.28
  28  16  -2    0.02    0.21
  16  -2  28    0.98    0.29
 -16   2  28    0.63    0.26
 -16  -2  28    0.10    0.19
  -2  28 -16    0.76    0.26
  16   2  28    0.79    0.28
  28  16   2    0.15    0.21
   2  28  16    0.39    0.26
  28   0  -4   50.50    1.77
   4  28   0   48.99    1.68
  -4  28   0   53.90    1.75
  28   0   4   53.74    1.82
   0  -4  28   53.02    1.83
  28  -2   4    0.24    0.23
  -4  28   2    0.04    0.20
   4  28  -2    0.18    0.16
   2  -4  28   -0.10    0.18
  28   2  -4    0.00    0.18
  28   2   4    0.01    0.18
  -4  28  -2   -0.01    0.18
  28  -2  -4    0.02    0.17
   4  28   2    0.36    0.18
  -2  -4  28   -0.12    0.20
   4  -4  28   39.55    1.50
  28  -4   4   38.66    1.49
   4  28  -4   39.94    1.42
  -4  28   4   42.63    1.45
  28   4  -4   40.11    1.50
   4   4  28   38.58    1.43
  -4  -4  28   39.14    1.51
  -4  28  -4   41.38    1.46
  28  -4  -4   39.70    1.47
  28   4   4   40.74    1.52
   4  28   4   38.59    1.41
   6  -4  28    0.05    0.19
  -4  28   6    0.38    0.21
   4  28  -6    0.47    0.21
  28   6  -4    0.21    0.18
  28  -6   4    0.20    0.23
  28  -6  -4    0.57    0.25
  -4  28  -6    0.23    0.18
  -6  -4  28   -0.16    0.18
   4  28   6    0.13    0.20
   4  28   6    0.19    0.20
  28   6   4   -0.20    0.18
   4  28  -8   53.11    1.76
  -4  28   8   53.07    1.72
  28   8  -4   53.35    1.87
  -4  28   8   51.24    1.73
  -8   4  28   57.21    1.66
   8  -4  28   53.00    1.86
  28  -8   4   50.89    1.82
   4  28   8   51.55    1.74
  -8  -4  28   50.73    1.85
   4  28   8   55.18    1.74
  28   8   4   54.70    1.87
  28  -8  -4   51.60    1.78
  -4  28  -8   54.62    1.81
  -4  28  10    0.34    0.22
  10  -4  28    0.10    0.20
   4  28 -10    0.37    0.20
 -10   4  28    0.02    0.18
  -4  28  10    0.17    0.20
  28 -10   4    0.38    0.25
  28  10  -4    0.25    0.20
   4  28  10    0.10    0.20
  -4  28 -10    0.28    0.19
  28  10   4    0.30    0.23
  28 -10  -4    0.08    0.23
 -10  -4  28    0.12    0.17
   4  28 -12   33.55    1.31
  28 -12   4   34.88    1.38
  -4  28  12   31.41    1.26
  12  -4  28   34.75    1.41
  28  12  -4   31.26    1.37
  -4  28  12   35.30    1.34
 -12   4  28   35.32    1.25
 -12  -4  28   34.39    1.41
  -4  28 -12   34.63    1.36
  28  12   4   36.16    1.43
   4  28  12   32.92    1.30
  28 -12  -4   33.66    1.33
 -14   4  28    0.25    0.21
  -4  28  14    0.00    0.20
  28  14  -4    0.10    0.22
   4  28 -14   -0.06    0.19
  -4  28  14    0.17    0.20
  14  -4  28    0.08    0.21
  28 -14   4    0.38    0.27
   4  28  14    0.28    0.24
  28  14   4    0.48    0.23
  -4  28 -14    0.26    0.21
 -14  -4  28    0.12    0.20
  28  14   4    0.22    0.24
  -4  28  16   35.79    1.42
  28 -16   4   33.77    1.39
   4  28 -16   34.60    1.38
 -16   4  28   33.60    1.29
  28  16  -4   37.24    1.50
  -4  28 -16   36.35    1.43
  28  16   4   33.69    1.41
   4  28  16   36.01    1.41
   0  -6  28    0.35    0.21
  28   0   6   -0.06    0.16
  28   0  -6    0.06    0.19
   6  28   0    0.05    0.15
   0   6  28    0.19    0.17
  -6  28   0   -0.14    0.17
  -6  28   2   -0.14    0.18
   6  28  -2   -0.08    0.16
  28  -2   6    0.12    0.21
  28   2  -6   -0.01    0.20
  -2   6  28    0.10    0.16
   2  -6  28    0.16    0.19
   6  28   2    0.18    0.19
  -6  28  -2   -0.13    0.15
  28   2   6    0.22    0.20
  28  -2  -6    0.11    0.21
  -2  -6  28   -0.24    0.15
   6  28  -4    0.41    0.19
  28  -4   6    0.14    0.22
  -6  28   4    0.17    0.19
  28   4  -6    0.40    0.21
  -4   6  28    0.16    0.18
   4  -6  28    0.54    0.22
   6  28   4    0.22    0.17
  -4  -6  28    0.08    0.19
  28   4   6    0.00    0.23
  28  -4  -6   -0.08    0.19
  -6  28  -4    0.19    0.19
  28  -6   6   -0.01    0.19
   6  28  -6    0.09    0.20
  -6  28   6   -0.01    0.17
  28   6  -6    0.05    0.17
   6  -6  28    0.20    0.17
  -6   6  28    0.08    0.18
  -6  28  -6    0.11    0.21
   6  28   6   -0.13    0.16
  28   6   6   -0.06    0.19
  -6  -6  28    0.05    0.16
   6  28   6    0.15    0.19
  28  -6  -6    0.04    0.20
   8  -6  28    0.11    0.18
   6  28  -8    0.00    0.17
  -6  28   8    0.02    0.20
  -6  28   8    0.15    0.21
  -8   6  28    0.24    0.20
  28  -8   6    0.33    0.24
  28   8  -6    0.19    0.20
  -6  28  -8    0.26    0.18
  -8  -6  28    0.33    0.20
  28  -8  -6   -0.37    0.19
  28   8   6    0.04    0.21
   6  28   8   -0.21    0.19
  28 -10   6    0.55    0.26
  -6  28  10   -0.01    0.18
  10  -6  28    0.34    0.19
  28  10  -6    0.36    0.22
   6  28 -10    0.25    0.22
  -6  28  10    0.07    0.19
 -10   6  28    0.55    0.22
  -6  28 -10    0.12    0.18
  28 -10  -6    0.72    0.25
 -10  -6  28    0.18    0.19
   6  28  10    0.33    0.22
  28  10   6    0.10    0.20
  -6  28  12   -0.14    0.18
  28 -12   6    0.35    0.27
  12  -6  28    0.13    0.17
 -12   6  28    0.13    0.20
   6  28 -12    0.27    0.21
  28  12  -6    0.11    0.21
  -6  28  12   -0.05    0.20
   6  28  12    0.08    0.22
  28  12   6   -0.11    0.20
  -6  28 -12    0.20    0.19
 -12  -6  28    0.17    0.18
  28 -12  -6    0.04    0.25
  28  12   6   -0.29    0.20
  28 -14   6    0.37    0.26
  28  14  -6    0.00    0.17
   6  28 -14    0.05    0.20
  14  -6  28    0.13    0.21
 -14   6  28   -0.14    0.17
  -6  28  14    0.08    0.19
 -14  -6  28   -0.04    0.17
  28  14   6    0.04    0.18
  -6  28 -14    0.08    0.20
   6  28  14    0.17    0.19
 -16   6  28    0.48    0.25
  28  16  -6    0.37    0.23
  -6  28  16    0.33    0.27
  28 -16   6    0.45    0.31
   6  28 -16    0.14    0.22
  28  16   6    0.34    0.24
   6  28  16    0.09    0.25
  -6  28 -16    0.62    0.25
  -8  28   0   39.77    1.40
   8  28   0   33.65    1.31
   0  -8  28   34.64    1.43
  28   0   8   35.21    1.42
  28   0  -8   36.22    1.40
   0   8  28   38.18    1.28
   8  28  -2    0.23    0.20
  -8  28   2    0.05    0.20
  -2   8  28   -0.12    0.19
  28  -2   8    0.07    0.18
  28   2  -8    0.44    0.23
   2  -8  28   -0.04    0.19
  -2  -8  28   -0.38    0.16
  28  -2  -8    0.34    0.23
   8  28   2    0.41    0.19
   2   8  28    0.04    0.17
  28   2   8    0.02    0.18
  -8  28  -2    0.56    0.24
  28   4  -8   50.66    1.82
  28  -4   8   55.30    1.87
  -4   8  28   52.21    1.65
   8  28  -4   50.07    1.71
   4  -8  28   53.32    1.85
  -8  28   4   52.68    1.74
   8  28   4   50.27    1.65
   8  28   4   52.46    1.75
  28   4   8   53.08    1.87
   4   8  28   54.71    1.66
  -4  -8  28   52.23    1.87
  28  -4  -8   50.59    1.77
  -8  28  -4   51.95    1.77
  -8  28   6   -0.02    0.19
   8  28  -6    0.14    0.18
  28  -6   8    0.17    0.24
  -6   8  28   -0.12    0.21
  28   6  -8    0.27    0.20
   6  -8  28    0.02    0.19
  28   6   8    0.28    0.21
  -6  -8  28    0.00    0.21
  28  -6  -8    0.05    0.21
   8  28   6    0.15    0.17
  -8  28  -6    0.22    0.21
   6   8  28    0.21    0.21
   8  28  -8   39.96    1.46
  -8   8  28   41.91    1.41
  28   8  -8   42.14    1.60
  -8  28   8   42.57    1.48
  28  -8   8   37.96    1.53
   8  -8  28   43.62    1.60
  -8  28  -8   40.06    1.52
  -8  -8  28   40.62    1.60
  28   8   8   40.26    1.57
  28  -8  -8   40.85    1.49
   8  28   8   37.53    1.41
  28  10  -8    0.25    0.19
   8  28 -10    0.59    0.23
 -10   8  28   -0.07    0.20
  10  -8  28    0.24    0.21
  -8  28  10    0.28    0.21
  -8  28  10    0.20    0.21
  28 -10   8    0.02    0.23
   8  28  10   -0.01    0.16
  28  10   8    0.29    0.26
  -8  28 -10    0.42    0.22
  28  10   8    0.18    0.22
 -10  -8  28    0.14    0.18
  28 -10  -8   -0.07    0.19
  12  -8  28   43.60    1.68
  28 -12   8   42.98    1.66
  -8  28  12   47.39    1.64
 -12   8  28   47.75    1.56
   8  28 -12   46.42    1.60
  28  12  -8   44.29    1.71
  -8  28 -12   45.95    1.66
  28  12   8   41.71    1.62
   8  28  12   41.39    1.56
 -12  -8  28   41.57    1.70
  28  12   8   47.31    1.71
 -14   8  28    0.02    0.21
  28 -14   8    0.07    0.26
 -28  14   8    0.35    0.22
   8  28 -14   -0.18    0.18
  -8  28  14    0.09    0.22
  28  14  -8   -0.02    0.18
  28  14   8    0.20    0.25
  -8  28 -14   -0.11    0.19
   8  28  14    0.04    0.20
   0 -10  28    0.18    0.20
  28   0 -10    0.16    0.21
 -10  28   0    0.40    0.23
  10  28   0    0.03    0.16
  28   0  10    0.23    0.20
   0  10  28    0.19    0.20
   2 -10  28    0.40    0.20
  28  -2  10    0.55    0.23
  28   2 -10    0.18    0.20
  -2  10  28    0.40    0.22
 -10  28   2    0.25    0.20
  10  28  -2    0.03    0.18
  10  28   2    0.33    0.21
 -10  28  -2    0.52    0.25
   2  10  28    0.30    0.22
  -2 -10  28    0.42    0.22
  28  -2 -10    0.02    0.20
  28   2  10    0.15    0.21
  28   4 -10    0.08    0.21
  10  28  -4    0.02    0.17
   4 -10  28    0.49    0.22
  28  -4  10    0.30    0.23
  -4  10  28    0.56    0.22
 -10  28   4    0.06    0.20
  28  -4 -10    0.14    0.22
  28   4  10   -0.04    0.22
 -10  28  -4    0.20    0.21
  -4 -10  28    0.21    0.18
  10  28   4    0.23    0.22
   4  10  28    0.32    0.21
  28  -6  10   -0.07    0.21
   6 -10  28    0.21    0.22
  -6  10  28    0.05    0.20
 -10  28   6   -0.05    0.21
  10  28  -6   -0.03    0.18
  28   6 -10    0.42    0.23
 -10  28  -6    0.49    0.22
  10  28   6    0.49    0.22
  -6 -10  28    0.31    0.21
  28  -6 -10    0.24    0.21
  28   6  10    0.44    0.26
  28   6  10    0.13    0.23
   6  10  28    0.16    0.20
  28   8 -10    0.03    0.18
 -10  28   8    0.09    0.20
  10  28  -8    0.07    0.19
   8 -10  28   -0.09    0.18
  -8  10  28    0.14    0.21
  28  -8  10    0.16    0.23
  10  28   8   -0.16    0.17
 -10  28  -8   -0.05    0.20
   8  10  28    0.07    0.20
  28   8  10    0.33    0.23
  28   8  10    0.05    0.23
  -8 -10  28    0.15    0.19
  28  -8 -10   -0.12    0.22
  28  10 -10    0.15    0.22
  10  28 -10   -0.26    0.16
 -10  10  28   -0.04    0.19
 -10  28  10    0.37    0.23
  10 -10  28    0.17    0.20
  28 -10  10    0.21    0.27
  10  10  28    0.33    0.23
 -10  28 -10    0.53    0.25
  28 -10 -10    0.40    0.25
  28  10  10    0.18    0.25
 -10 -10  28    0.21    0.20
  10  28  10    0.19    0.20
  28  10  10    0.08    0.20
  28 -12  10    0.59    0.28
 -28  12  10    0.29    0.21
  10  28 -12   -0.04    0.19
 -10  28  12    0.26    0.22
 -12  10  28    0.36    0.22
  28  12  10   -0.03    0.26
  28  12  10    0.47    0.26
 -10  28 -12    0.41    0.23
  10  28  12    0.02    0.21
  12  10  28    0.22    0.23
 -28  14  10    0.21    0.21
 -10  28  14    0.39    0.22
 -14  10  28    0.45    0.22
 -10  28 -14    0.29    0.22
  10  28  14    0.23    0.24
  28  14  10    0.40    0.28
  28   0 -12   47.07    1.75
   0 -12  28   49.40    1.81
 -12  28   0   50.14    1.71
   0  12  28   52.35    1.68
  12  28   0   49.81    1.70
  28   0  12   47.17    1.79
  12  28  -2    0.28    0.20
  28   2 -12    0.45    0.26
   2 -12  28   -0.17    0.17
  -2  12  28   -0.19    0.21
 -12  28   2    0.10    0.21
  28  -2  12    0.49    0.24
  -2 -12  28   -0.32    0.19
  28  -2 -12    0.52    0.23
 -12  28  -2    0.15    0.22
   2  12  28    0.15    0.23
  28   2  12    0.39    0.20
  28   2  12    0.43    0.24
  12  28   2    0.15    0.17
  -4  12  28   33.04    1.28
 -12  28   4   34.45    1.31
  12  28  -4   34.33    1.31
   4 -12  28   34.64    1.39
  28   4 -12   32.32    1.39
  28  -4  12   31.40    1.36
  28  -4 -12   31.92    1.31
  -4 -12  28   34.83    1.42
 -12  28  -4   34.25    1.35
  28   4  12   34.30    1.42
   4  12  28   32.44    1.26
  12  28   4   33.67    1.27
  28   4  12   32.73    1.31
  28   6 -12    0.24    0.24
  28  -6  12    0.27    0.25
 -12  28   6    0.17    0.21
  -6  12  28   -0.27    0.19
   6 -12  28    0.09    0.22
  12  28  -6    0.22    0.21
  12  28   6   -0.02    0.17
 -12  28  -6    0.31    0.22
  28   6  12   -0.02    0.17
  -6 -12  28   -0.28    0.20
   6  12  28    0.02    0.22
  28  -6 -12    0.35    0.23
  28   6  12    0.46    0.25
  12  28  -8   45.37    1.56
  -8  12  28   44.62    1.54
  28  -8  12   40.92    1.63
   8 -12  28   42.05    1.62
  28   8 -12   40.58    1.63
  28  -8 -12   44.41    1.58
  28   8  12   40.53    1.58
 -12  28  -8   44.90    1.62
  12  28   8   40.12    1.50
  28   8  12   43.23    1.65
   8  12  28   43.62    1.53
  -8 -12  28   41.12    1.66
 -10  12  28    0.34    0.25
  12  28 -10    0.43    0.22
 -28  10  12    0.42    0.21
  28  10  12    0.17    0.23
  12  28  10    0.51    0.24
 -12  28 -10    0.28    0.23
  28  10  12    0.38    0.25
  10  12  28    0.35    0.25
 -12  12  28   35.86    1.37
 -12  28  12   36.10    1.38
 -28  12  12   33.93    1.38
  12  28  12   32.92    1.35
  28  12  12   32.33    1.42
 -12  28 -12   34.37    1.44
  12  12  28   36.14    1.36
   0  14  28    0.23    0.21
   0 -14  28   -0.03    0.23
  28   0 -14   -0.20    0.23
 -14  28   0    0.12    0.22
  14  28   0    0.15    0.16
  28   0  14   -0.09    0.18
  -2  14  28    0.56    0.24
 -14  28   2    0.35    0.24
  14  28  -2    0.36    0.22
  28  -2  14    0.70    0.28
   2 -14  28    0.67    0.30
  28   2 -14    0.32    0.26
  -2 -14  28    0.38    0.26
  28   2  14    0.60    0.26
  28   2  14    0.23    0.22
   2  14  28    0.73    0.27
 -14  28  -2    0.10    0.21
  28  -2 -14    0.38    0.25
  28   4 -14    0.10    0.24
  -4  14  28   -0.02    0.23
  14  28  -4    0.01    0.17
   4 -14  28    0.54    0.29
  28  -4  14    0.29    0.22
 -14  28   4    0.29    0.22
   4  14  28   -0.03    0.20
  14  28   4    0.26    0.20
  28   4  14    0.43    0.24
 -14  28  -4    0.23    0.23
  28   4  14    0.48    0.27
  28  -4 -14    0.08    0.24
  -4 -14  28    0.10    0.24
  14  28  -6   -0.21    0.16
  -6  14  28   -0.10    0.18
  28  -6 -14   -0.03    0.23
  28   6  14   -0.18    0.20
  28   6  14    0.46    0.25
 -14  28  -6    0.26    0.24
   6  14  28    0.34    0.26
  14  28   6   -0.05    0.18
  -8  14  28   -0.01    0.24
 -28   8  14    0.15    0.18
  14  28  -8    0.07    0.20
   8  14  28    0.47    0.25
  28   8  14    0.21    0.22
  28  -8 -14    0.10    0.25
  28   8  14    0.45    0.25
 -14  28  -8    0.13    0.23
  14  28   8   -0.10    0.19
 -28  10  14    0.52    0.23
 -10  14  28    0.16    0.23
 -14  28 -10    0.09    0.22
  14  28  10    0.69    0.27
  28  10  14    0.02    0.25
  28  10  14    0.46    0.29
  10  14  28    0.48    0.27
 -16  28   0   31.14    1.32
  16  28   0   33.06    1.31
   0  16  28   33.07    1.32
 -16  28   2    0.88    0.28
  16  28  -2    0.72    0.25
  -2  16  28    0.51    0.27
 -16  28  -2    0.13    0.24
  16  28   2    0.89    0.27
   2  16  28    0.24    0.26
  28  -2 -16    0.89    0.29
  -4  16  28   35.72    1.41
  16  28  -4   36.40    1.40
   4  16  28   36.21    1.40
 -16  28  -4   35.55    1.41
  16  28   4   36.12    1.38
  28   4  16   35.38    1.49
  28   4  16   34.16    1.39
  28  -4 -16   34.44    1.43
  -6  16  28    0.00    0.25
  16  28  -6    0.62    0.25
  28   6  16    0.62    0.28
   6  16  28    0.07    0.24
  16  28   6    0.38    0.23
  28  -6 -16    0.54    0.28
 -16  28  -6    0.41    0.25
  28   6  16    0.32    0.26
   1  29  -1    0.18    0.17
  29   1  -1    0.09    0.18
  29  -1   1    0.10    0.20
   1  -1  29   -0.07    0.16
  -1   1  29    0.01    0.15
  -1  29   1   -0.01    0.18
  -1  -1  29    0.03    0.17
  29   1   1    0.17    0.18
  29  -1  -1   -0.06    0.18
   1  29   1   -0.09    0.18
   1   1  29   -0.05    0.15
  -1  29  -1   -0.06    0.16
  -1  29   3    0.04    0.19
   3  -1  29    0.10    0.17
  -3   1  29    0.09    0.14
  29  -3   1    0.38    0.24
  29   3  -1   -0.22    0.15
   1  29  -3   -0.17    0.15
  -1  29  -3   -0.04    0.16
   1  29   3   -0.01    0.18
   3   1  29    0.08    0.15
  29  -3  -1   -0.08    0.19
  -3  -1  29   -0.08    0.15
  29   3   1    0.26    0.20
  -5   1  29    0.27    0.19
  -1  29   5    0.01    0.18
   5  -1  29    0.14    0.19
  29  -5   1    0.35    0.24
  29   5  -1    0.25    0.19
   1  29  -5    0.15    0.16
  29   5   1    0.19    0.18
  -1  29  -5    0.10    0.15
  29  -5  -1    0.06    0.23
  -5  -1  29    0.19    0.17
   1  29   5    0.08    0.21
   5   1  29    0.30    0.21
  -1  29   7   -0.05    0.16
   1  29  -7   -0.03    0.15
   7  -1  29   -0.14    0.17
  29  -7   1   -0.14    0.17
  -7   1  29    0.07    0.17
  29   7  -1   -0.21    0.16
   1  29   7   -0.01    0.17
  -1  29  -7   -0.05    0.14
  -7  -1  29   -0.06    0.17
  29   7   1   -0.13    0.16
   1  29   7   -0.09    0.16
   7   1  29    0.12    0.16
  29  -7  -1    0.22    0.22
  -1  29   9    0.41    0.23
   9  -1  29    0.11    0.19
  29  -9   1    0.11    0.21
   1  29  -9    0.13    0.17
  -1  29   9    0.08    0.19
  -9   1  29    0.20    0.18
  29   9  -1    0.17    0.22
   9   1  29    0.20    0.21
  29   9   1    0.31    0.22
  -1  29  -9    0.25    0.18
  -9  -1  29    0.10    0.17
  29  -9  -1    0.04    0.23
   1  29   9    0.20    0.20
   1  29   9    0.17    0.18
  -1  29  11   -0.43    0.16
  29 -11   1    0.24    0.24
  11  -1  29   -0.23    0.15
  -1  29  11   -0.02    0.19
  29  11  -1   -0.01    0.21
   1  29 -11    0.09    0.20
 -11   1  29   -0.03    0.16
 -11  -1  29   -0.10    0.17
  29 -11  -1    0.34    0.23
  11   1  29    0.00    0.19
   1  29  11   -0.04    0.17
   1  29  11   -0.10    0.16
  29  11   1   -0.05    0.19
  -1  29 -11   -0.15    0.16
  -1  29  13   -0.08    0.17
  13  -1  29   -0.01    0.19
 -13   1  29   -0.14    0.15
  -1  29  13    0.24    0.23
   1  29 -13   -0.07    0.17
  29 -13   1   -0.27    0.22
  29  13  -1    0.20    0.23
   1  29  13   -0.18    0.17
  29  13   1    0.21    0.21
  -1  29 -13   -0.12    0.17
  29 -13  -1    0.07    0.24
  13   1  29    0.14    0.22
 -13  -1  29   -0.09    0.16
   1  29  13    0.16    0.18
 -15   1  29   -0.28    0.17
  -1  29  15   -0.15    0.17
  15  -1  29   -0.04    0.18
  29  15  -1   -0.17    0.22
  -1  29  15   -0.42    0.17
  29 -15   1   -0.07    0.25
   1  29 -15    0.16    0.22
  -1  29 -15    0.03    0.21
  29  15   1    0.06    0.22
   1  29  15   -0.26    0.20
 -15  -1  29   -0.07    0.20
  15   1  29    0.00    0.21
   1  29  15    0.07    0.21
  -3  29   1   -0.07    0.19
  29  -1   3    0.13    0.21
  -1   3  29    0.36    0.20
  29   1  -3    0.05    0.20
   3  29  -1    0.06    0.17
   1  -3  29    0.41    0.22
  29   1   3    0.17    0.17
  -1  -3  29    0.18    0.19
   3  29   1    0.08    0.17
  -3  29  -1   -0.01    0.19
  29  -1  -3    0.23    0.21
   1   3  29   -0.06    0.16
  -3   3  29   -0.01    0.16
  -3  29   3   -0.08    0.18
   3  29  -3   -0.08    0.14
  29  -3   3    0.09    0.21
  29   3  -3   -0.09    0.16
   3  -3  29   -0.24    0.14
   3   3  29    0.00    0.16
   3  29   3   -0.16    0.15
  -3  -3  29    0.00    0.17
  29   3   3    0.14    0.17
  29  -3  -3   -0.06    0.18
  -3  29  -3   -0.05    0.18
  29  -5   3   -0.04    0.21
   5  -3  29    0.05    0.18
  -3  29   5    0.09    0.19
  29   5  -3   -0.09    0.15
  -5   3  29    0.13    0.19
   3  29  -5   -0.06    0.13
  -3  29  -5   -0.06    0.15
   3  29   5   -0.12    0.16
  29  -5  -3    0.24    0.22
  29   5   3   -0.20    0.15
  -5  -3  29   -0.13    0.16
   5   3  29    0.15    0.19
   7  -3  29   -0.05    0.15
  29  -7   3    0.25    0.23
  29   7  -3    0.17    0.18
   3  29  -7   -0.03    0.16
  -3  29   7   -0.10    0.19
  -7   3  29    0.02    0.17
   7   3  29    0.19    0.20
  -3  29  -7   -0.01    0.17
   3  29   7   -0.18    0.17
   3  29   7    0.21    0.20
  29   7   3    0.28    0.21
  29  -7  -3    0.07    0.20
  -7  -3  29    0.31    0.22
  -3  29   9    0.06    0.19
  29   9  -3    0.26    0.23
   3  29  -9   -0.03    0.17
  29  -9   3    0.18    0.20
   9  -3  29    0.30    0.22
  -3  29   9    0.18    0.20
  -9  -3  29    0.31    0.18
  29  -9  -3    0.31    0.23
   9   3  29    0.12    0.21
  29   9   3    0.20    0.22
   3  29   9    0.19    0.21
   3  29   9    0.13    0.19
  -3  29  -9    0.68    0.24
   3  29 -11   -0.15    0.16
  29  11  -3   -0.30    0.18
  29 -11   3    0.35    0.24
  11  -3  29   -0.07    0.19
  -3  29  11   -0.10    0.18
  -3  29  11   -0.20    0.18
  29  11   3    0.14    0.21
   3  29  11    0.05    0.20
  11   3  29   -0.05    0.18
 -11  -3  29   -0.08    0.18
   3  29  11   -0.22    0.16
  29 -11  -3    0.17    0.24
  -3  29 -11   -0.16    0.19
  29  13  -3   -0.10    0.20
  -3  29  13   -0.18    0.18
  29 -13   3   -0.24    0.21
   3  29 -13    0.01    0.18
  -3  29  13   -0.01    0.19
  13  -3  29   -0.08    0.20
 -13  -3  29    0.00    0.17
  29 -13  -3   -0.14    0.22
  -3  29 -13    0.12    0.19
  13   3  29   -0.02    0.21
  29  13   3    0.36    0.26
   3  29  13    0.02    0.20
  29  15  -3   -0.23    0.22
  -3  29  15   -0.15    0.18
   3  29 -15   -0.08    0.17
  -3  29  15    0.17    0.21
  29 -15   3   -0.25    0.26
  29  15   3    0.38    0.24
   3  29  15    0.49    0.24
  -3  29 -15    0.14    0.20
  29  15   3   -0.06    0.22
   1  -5  29   -0.12    0.15
  -5  29   1    0.18    0.20
  29  -1   5    0.20    0.21
  29   1  -5    0.62    0.27
   5  29  -1    0.11    0.16
  -5  29  -1    0.00    0.18
  29   1   5    0.40    0.23
  29  -1  -5    0.01    0.19
   5  29   1   -0.13    0.16
  -1  -5  29   -0.12    0.15
  29   3  -5   -0.02    0.17
   3  -5  29    0.00    0.19
   5  29  -3   -0.10    0.15
  -5  29   3    0.10    0.19
  29  -3   5   -0.04    0.20
  29  -3  -5    0.05    0.19
   5  29   3   -0.11    0.15
  -5  29  -3   -0.14    0.16
  -3  -5  29    0.05    0.20
  29   3   5    0.08    0.18
  -5  29   5   -0.18    0.18
  29   5  -5   -0.04    0.16
   5  29  -5   -0.03    0.17
  29  -5   5   -0.25    0.16
   5  -5  29   -0.05    0.17
  29  -5  -5   -0.14    0.19
  -5  29  -5   -0.01    0.18
  -5  -5  29   -0.04    0.18
  29   5   5   -0.07    0.18
   5  29   5    0.15    0.19
   5  29  -7    0.04    0.18
  -5  29   7   -0.02    0.18
  -7   5  29    0.11    0.17
  29  -7   5    0.10    0.21
  29   7  -5    0.01    0.20
   7  -5  29    0.03    0.18
   5  29   7    0.13    0.18
  -5  29  -7    0.09    0.18
  -7  -5  29   -0.24    0.15
  29  -7  -5    0.12    0.20
   5  29   7    0.12    0.18
  29   7   5    0.05    0.18
  -5  29   9    0.32    0.22
  -9   5  29    0.02    0.18
  29  -9   5    0.33    0.27
  -5  29   9    0.22    0.20
   9  -5  29   -0.07    0.18
   5  29  -9    0.03    0.18
  29   9  -5    0.15    0.20
  -5  29  -9    0.00    0.18
   5  29   9    0.04    0.19
  29  -9  -5   -0.10    0.21
  29   9   5   -0.17    0.19
  -9  -5  29    0.31    0.21
  -5  29  11   -0.28    0.17
   5  29 -11    0.23    0.19
  29  11  -5   -0.09    0.18
  11  -5  29    0.04    0.21
 -11   5  29   -0.11    0.19
  -5  29  11    0.17    0.21
  29 -11   5   -0.11    0.23
  29  11   5    0.17    0.21
   5  29  11    0.19    0.23
  -5  29 -11   -0.16    0.17
  29 -11  -5    0.06    0.24
 -11  -5  29    0.03    0.19
  29  13  -5    0.07    0.18
  29 -13   5   -0.06    0.27
   5  29 -13    0.24    0.22
  -5  29  13    0.03    0.17
 -13   5  29    0.00    0.18
  -5  29  13   -0.08    0.20
  29  13   5    0.12    0.22
 -13  -5  29    0.07    0.18
  -5  29 -13   -0.14    0.20
   5  29  13    0.07    0.19
  29  13   5   -0.27    0.19
   5  29 -15    0.16    0.23
 -15   5  29    0.02    0.20
  -5  29  15    0.00    0.21
  29  15   5   -0.20    0.19
   5  29  15   -0.10    0.20
  -5  29 -15   -0.02    0.20
  -1   7  29   -0.07    0.17
  -7  29   1   -0.34    0.16
  29  -1   7   -0.36    0.13
   7  29  -1    0.00    0.18
  29   1  -7   -0.17    0.18
   1  -7  29   -0.07    0.16
  29  -1  -7    0.08    0.20
  -7  29  -1    0.15    0.19
   7  29   1    0.33    0.17
  -1  -7  29    0.05    0.16
  29   1   7    0.15    0.20
   7  29  -3    0.41    0.21
  -7  29   3   -0.04    0.19
  29   3  -7    0.15    0.23
  -3   7  29    0.37    0.19
   3  -7  29   -0.20    0.15
  29  -3   7   -0.06    0.21
  -7  29  -3    0.18    0.22
  29   3   7    0.02    0.17
  29  -3  -7   -0.05    0.19
   7  29   3    0.00    0.15
  -3  -7  29    0.09    0.18
  29  -5   7   -0.02    0.20
   5  -7  29    0.25    0.22
  -7  29   5    0.37    0.23
  -5   7  29    0.05    0.17
  29   5  -7   -0.14    0.14
   7  29  -5    0.04    0.19
  29   5   7    0.06    0.18
  29  -5  -7   -0.17    0.19
  -7  29  -5    0.23    0.20
  -5  -7  29    0.33    0.21
   7  29   5   -0.01    0.15
  29  -7   7   -0.32    0.20
  -7  29   7   -0.11    0.16
  -7   7  29    0.08    0.18
  29   7  -7    0.10    0.17
   7  29  -7    0.18    0.19
   7  -7  29    0.23    0.19
  -7  29  -7   -0.08    0.19
   7  29   7   -0.07    0.17
  29  -7  -7    0.16    0.22
  -7  -7  29    0.01    0.18
  29   7   7    0.09    0.21
  -9   7  29    0.12    0.20
  29   9  -7    0.07    0.19
  29  -9   7    0.23    0.25
   7  29  -9   -0.09    0.16
   9  -7  29    0.05    0.18
  -7  29   9   -0.08    0.20
  29  -9  -7   -0.04    0.19
  -9  -7  29   -0.15    0.14
  29   9   7   -0.01    0.17
  -7  29  -9   -0.17    0.16
   7  29   9   -0.27    0.16
  11  -7  29    0.40    0.24
  29 -11   7    0.24    0.29
  -7  29  11    0.35    0.24
  29  11  -7   -0.06    0.21
  -7  29  11    0.21    0.23
   7  29 -11    0.49    0.23
 -11   7  29    0.05    0.21
   7  29  11    0.21    0.19
  29 -11  -7    0.04    0.22
 -11  -7  29    0.29    0.21
  -7  29 -11    0.22    0.21
  29  11   7    0.25    0.23
  29  11   7    0.12    0.22
  -7  29  13   -0.08    0.20
   7  29 -13   -0.04    0.19
 -13   7  29    0.58    0.25
  29  13   7    0.41    0.28
   7  29  13    0.32    0.25
  -7  29 -13    0.17    0.21
  29  13   7    0.44    0.28
  29  -1   9    0.23    0.21
  -9  29   1   -0.01    0.19
  29   1  -9    0.01    0.19
   1  -9  29   -0.05    0.16
  -1   9  29    0.12    0.19
   9  29  -1    0.15    0.19
  -9  29  -1    0.36    0.22
   1   9  29    0.06    0.18
   9  29   1    0.12    0.17
  29  -1  -9   -0.16    0.20
  -1  -9  29   -0.19    0.16
  29   1   9    0.19    0.22
  -9  29   3    0.36    0.20
  -3   9  29    0.30    0.21
   3  -9  29   -0.24    0.15
   9  29  -3   -0.12    0.18
  29  -3   9    0.22    0.20
  29   3  -9    0.09    0.22
  -9  29  -3    0.54    0.24
  29   3   9    0.16    0.20
   3   9  29    0.47    0.21
  -3  -9  29    0.31    0.22
   9  29   3    0.42    0.21
  29  -3  -9    0.32    0.23
  -9  29   5    0.19    0.20
   5  -9  29    0.22    0.20
  29  -5   9   -0.18    0.23
  -5   9  29    0.41    0.21
  29   5  -9    0.20    0.20
   9  29  -5    0.32    0.21
  29   5   9   -0.01    0.19
  29  -5  -9   -0.09    0.20
   9  29   5   -0.26    0.17
   9  29   5    0.14    0.16
  -9  29  -5   -0.08    0.22
   5   9  29   -0.01    0.18
  -5  -9  29    0.03    0.17
   7  -9  29   -0.05    0.17
  -9  29   7    0.05    0.19
  -7   9  29   -0.15    0.17
  29   7  -9    0.06    0.22
  29  -7   9   -0.05    0.25
   9  29  -7   -0.09    0.18
  29   7   9    0.05    0.23
  -9  29  -7    0.14    0.19
   9  29   7   -0.20    0.16
  29   7   9    0.00    0.21
  -7  -9  29   -0.19    0.16
  29  -7  -9    0.04    0.19
  -9  29   9   -0.02    0.21
  -9   9  29   -0.02    0.18
  29   9  -9    0.19    0.19
   9  -9  29   -0.22    0.14
   9  29  -9   -0.13    0.16
  29  -9   9    0.39    0.30
  -9  -9  29    0.00    0.16
  29   9   9    0.21    0.25
  29  -9  -9   -0.31    0.19
  -9  29  -9   -0.17    0.20
  29   9   9    0.14    0.23
   9  29   9    0.06    0.21
 -11   9  29   -0.03    0.20
   9  29 -11   -0.27    0.16
  -9  29  11   -0.11    0.17
   9  29  11    0.08    0.21
  -9  29 -11    0.08    0.17
  29  11   9   -0.06    0.20
  29  11   9   -0.22    0.19
  -9  29  13    0.32    0.24
 -13   9  29   -0.12    0.20
   9  29 -13    0.11    0.20
  -9  29 -13   -0.20    0.15
   9  29  13   -0.01    0.22
  29  13   9    0.30    0.24
  -1  11  29   -0.12    0.19
  29  -1  11   -0.06    0.19
  11  29  -1   -0.13    0.16
  29   1 -11   -0.10    0.22
 -11  29   1    0.36    0.22
   1 -11  29    0.15    0.18
   1  11  29    0.26    0.19
  11  29   1   -0.13    0.14
  29   1  11   -0.01    0.22
 -11  29  -1    0.08    0.18
  -1 -11  29   -0.23    0.16
  29  -1 -11   -0.19    0.21
  11  29  -3   -0.07    0.16
  -3  11  29    0.08    0.20
   3 -11  29   -0.08    0.15
  29   3 -11   -0.07    0.20
  29  -3  11   -0.02    0.21
 -11  29   3    0.09    0.20
  -3 -11  29   -0.04    0.16
   3  11  29   -0.07    0.21
  29  -3 -11   -0.05    0.20
  11  29   3    0.02    0.19
 -11  29  -3    0.00    0.19
  29   3  11    0.09    0.20
  -5  11  29    0.07    0.17
  11  29  -5    0.21    0.19
  29   5 -11    0.29    0.25
 -11  29   5    0.08    0.20
  29  -5  11   -0.01    0.22
   5 -11  29    0.13    0.18
  29   5  11   -0.08    0.20
  11  29   5   -0.26    0.17
  29  -5 -11   -0.11    0.20
   5  11  29   -0.18    0.17
  29   5  11    0.20    0.22
  -5 -11  29    0.17    0.20
 -11  29  -5    0.28    0.21
  -7  11  29    0.60    0.26
 -11  29   7    0.27    0.22
  11  29  -7    0.44    0.23
  29   7  11    0.35    0.23
  29   7  11   -0.05    0.23
  29  -7 -11    0.06    0.24
   7  11  29    0.35    0.23
  11  29   7    0.05    0.20
 -11  29  -7   -0.07    0.21
  -9  11  29    0.17    0.21
  11  29  -9    0.00    0.18
  29   9  11    0.06    0.22
  29  -9 -11   -0.18    0.23
   9  11  29    0.04    0.21
  29   9  11    0.10    0.23
 -11  29  -9   -0.36    0.19
  11  29   9    0.09    0.21
 -11  11  29   -0.01    0.20
  11  29 -11   -0.05    0.18
  11  11  29   -0.36    0.21
  11  29  11   -0.13    0.18
  29  11  11    0.04    0.23
 -11  29 -11    0.09    0.25
  29  11  11   -0.29    0.22
  29   1 -13   -0.08    0.22
 -13  29   1   -0.11    0.21
  -1  13  29    0.26    0.23
  13  29  -1    0.21    0.21
  29  -1 -13    0.07    0.25
  29   1  13    0.19    0.23
  13  29   1   -0.11    0.15
 -13  29  -1    0.07    0.22
  29   1  13    0.10    0.20
   1  13  29    0.17    0.23
  -3  13  29    0.07    0.20
  13  29  -3   -0.06    0.17
 -13  29   3   -0.09    0.21
  29   3  13   -0.04    0.20
  29  -3 -13   -0.01    0.25
  29   3  13   -0.33    0.18
   3  13  29   -0.21    0.18
 -13  29  -3   -0.12    0.17
  -5  13  29   -0.04    0.18
 -13  29   5    0.12    0.21
  13  29  -5   -0.26    0.16
 -13  29  -5   -0.09    0.21
  29   5  13   -0.19    0.19
   5  13  29    0.36    0.25
  13  29   5   -0.29    0.18
  29  -5 -13   -0.24    0.22
  29   5  13    0.13    0.25
  13  29  -7    0.10    0.22
  -7  13  29   -0.08    0.19
  13  29   7    0.40    0.23
   7  13  29    0.16    0.22
  29   7  13    0.49    0.27
  29  -7 -13    0.26    0.27
 -13  29  -7    0.11    0.24
  29   7  13    0.33    0.24
  -9  13  29   -0.17    0.19
  13  29   9    0.08    0.21
  29   9  13    0.06    0.23
 -13  29  -9   -0.14    0.24
  29   9  13    0.01    0.21
   9  13  29   -0.14    0.21
 -15  29   1   -0.38    0.19
  15  29  -1   -0.42    0.17
  -1  15  29   -0.16    0.19
   1  15  29   -0.03    0.20
 -15  29  -1    0.09    0.20
  15  29   1    0.14    0.20
 -15  29   3    0.00    0.22
  -3  15  29    0.14    0.25
  15  29  -3   -0.06    0.19
  29   3  15   -0.17    0.22
 -15  29  -3   -0.25    0.21
   3  15  29   -0.09    0.21
  -5  15  29   -0.05    0.22
  15  29   5   -0.24    0.19
 -15  29  -5   -0.14    0.20
   5  15  29   -0.19    0.18
  29   5  15    0.15    0.23
   0   0  30    0.06    0.18
   0  30   0    0.06    0.19
  30   0   0   -0.01    0.18
  -2   0  30    0.66    0.24
  30  -2   0    0.33    0.23
  30   2   0    0.35    0.21
   0  30  -2    1.02    0.27
   0  30   2    0.31    0.22
   2   0  30    0.86    0.26
   0  30  -4   -0.12    0.15
  -4   0  30   -0.01    0.17
  30   4   0    0.26    0.19
  30  -4   0   -0.06    0.22
   0  30   4   -0.08    0.17
   4   0  30   -0.04    0.18
  30  -6   0    0.13    0.25
  30   6   0    0.13    0.19
   0  30   6    0.15    0.20
   0  30  -6    0.16    0.18
   6   0  30    0.07    0.20
  -6   0  30    0.08    0.19
   8   0  30   -0.03    0.17
   0  30  -8   -0.17    0.15
  30   8   0    0.03    0.17
   0  30   8    0.09    0.21
  -8   0  30    0.08    0.19
  30  -8   0   -0.04    0.22
   0  30  10    0.15    0.22
  30  10   0    0.05    0.20
 -10   0  30    0.37    0.22
   0  30 -10    0.28    0.20
  10   0  30    0.05    0.19
   0  30  10    0.32    0.24
  30 -10   0    0.07    0.23
  30  12   0   -0.02    0.21
   0  30  12    0.08    0.18
  30 -12   0   -0.07    0.26
  12   0  30    0.03    0.19
   0  30 -12   -0.21    0.16
 -12   0  30    0.08    0.18
   0  30  12    0.06    0.20
 -14   0  30    0.15    0.23
  30 -14   0    0.31    0.29
  30   0  -2    0.59    0.25
   2  30   0    0.35    0.19
  30   0   2    0.23    0.19
  -2  30   0    0.77    0.25
   0   2  30    0.37    0.23
   0  -2  30    0.71    0.26
   2  -2  30   18.83    0.94
   2  30  -2   18.83    0.90
  -2  30   2   17.58    0.88
  -2   2  30   17.45    0.89
  30  -2   2   18.50    0.95
  30   2  -2   17.80    0.93
  30   2   2   18.12    0.93
   2  30   2   16.22    0.85
  30  -2  -2   16.73    0.90
  -2  30  -2   16.86    0.87
   2   2  30   16.25    0.87
  -2  -2  30   18.33    0.94
   4  -2  30    0.10    0.17
  -2  30   4    0.04    0.21
  -4   2  30    0.06    0.19
  30  -4   2   -0.04    0.23
   2  30  -4   -0.07    0.17
  30   4  -2   -0.15    0.16
  -2  30  -4   -0.21    0.15
  30   4   2   -0.25    0.15
  30  -4  -2   -0.08    0.19
   2  30   4    0.15    0.20
  -4  -2  30   -0.10    0.17
   4   2  30    0.21    0.20
  30  -6   2    9.59    0.69
  -2  30   6   11.11    0.67
   2  30  -6    9.00    0.61
  30   6  -2    9.52    0.68
  -6   2  30    9.11    0.63
   6  -2  30    9.51    0.67
  30  -6  -2    9.30    0.66
  30   6   2   10.30    0.71
   2  30   6    9.47    0.63
   6   2  30   10.22    0.67
  -6  -2  30    9.90    0.68
  -2  30  -6    9.67    0.64
   8  -2  30    0.36    0.23
  30  -8   2    0.06    0.23
  -2  30   8    0.19    0.19
   2  30  -8   -0.07    0.17
  -8   2  30    0.25    0.21
  30   8  -2    0.05    0.17
  -2  30  -8    0.21    0.17
  30   8   2    0.01    0.19
  -8  -2  30   -0.12    0.15
   2  30   8    0.13    0.20
  30  -8  -2    0.45    0.25
   2  30   8    0.18    0.22
   8   2  30   -0.06    0.18
   2  30 -10   14.47    0.81
  30 -10   2   13.15    0.81
 -10   2  30   13.10    0.78
  -2  30  10   14.09    0.79
  10  -2  30   13.58    0.84
  -2  30  10   13.51    0.78
  30  10  -2   14.10    0.86
  30 -10  -2   15.19    0.85
   2  30  10   15.25    0.80
  -2  30 -10   15.60    0.85
 -10  -2  30   13.53    0.82
  10   2  30   15.30    0.85
   2  30  10   12.47    0.75
  30  10   2   14.87    0.87
  -2  30  12    0.22    0.21
  30 -12   2    0.16    0.26
  12  -2  30    0.60    0.27
   2  30 -12    0.23    0.20
  -2  30  12    0.62    0.25
  30  12  -2    0.04    0.22
  30 -12  -2    0.37    0.27
   2  30  12    0.21    0.22
  12   2  30    0.40    0.24
   2  30  12   -0.07    0.22
  -2  30 -12    0.28    0.22
 -12  -2  30    0.46    0.23
  30  12   2    0.40    0.26
  -4  30   0   -0.23    0.17
  30   0  -4    0.00    0.19
   4  30   0    0.08    0.16
  30   0   4   -0.43    0.15
   0  -4  30    0.14    0.16
   2  -4  30    0.31    0.20
  30  -2   4   -0.18    0.23
  30   2  -4   -0.02    0.22
   4  30  -2    0.30    0.21
  -4  30   2   -0.05    0.19
   4  30   2    0.18    0.18
  -2  -4  30    0.19    0.19
  30  -2  -4   -0.14    0.19
  30   2   4    0.02    0.20
  -4  30  -2    0.20    0.21
  -4  30   4   -0.16    0.15
   4  -4  30   -0.06    0.17
   4  30  -4   -0.12    0.14
  30   4  -4   -0.02    0.17
  30  -4   4    0.15    0.23
  -4  30  -4    0.17    0.21
  30   4   4    0.07    0.19
  30  -4  -4    0.08    0.22
   4  30   4    0.05    0.19
  -4  -4  30    0.17    0.20
  -4  30   6    0.15    0.19
  30   6  -4    0.02    0.17
   4  30  -6    0.18    0.17
   6  -4  30    0.24    0.20
  30  -6   4   -0.14    0.22
   4  30   6    0.00    0.17
  -4  30  -6    0.27    0.19
  30   6   4   -0.06    0.19
  30  -6  -4    0.18    0.23
  -6  -4  30   -0.10    0.16
   8  -4  30    0.03    0.18
  30  -8   4    0.27    0.27
  30   8  -4   -0.08    0.17
  -4  30   8    0.03    0.19
   4  30  -8    0.01    0.19
   4  30   8    0.03    0.18
  30   8   4   -0.02    0.20
   4  30   8    0.04    0.19
  30  -8  -4    0.02    0.20
  -4  30  -8   -0.11    0.16
  -8  -4  30    0.23    0.19
  30  10  -4    1.83    0.36
  -4  30  10    1.73    0.32
  10  -4  30    1.84    0.36
  -4  30  10    1.52    0.32
   4  30 -10    1.66    0.31
  30 -10   4    1.93    0.39
  30  10   4    1.93    0.37
  -4  30 -10    1.51    0.31
  30 -10  -4    1.01    0.32
 -10  -4  30    1.40    0.32
   4  30  10    1.57    0.31
   4  30  10    1.62    0.32
  -4  30  12   -0.02    0.19
   4  30 -12   -0.05    0.19
  -4  30  12    0.15    0.22
  -4  30 -12   -0.33    0.17
   4  30  12   -0.25    0.17
  30 -12  -4   -0.15    0.24
  30  12   4   -0.21    0.21
   6  30   0    0.06    0.17
  30   0  -6    0.14    0.23
  -6  30   0    0.23    0.21
  30   0   6    0.41    0.23
   0  -6  30   -0.03    0.17
  30   2  -6    9.56    0.69
  -6  30   2    9.35    0.63
   6  30  -2    9.30    0.62
   2  -6  30   10.45    0.70
  30  -2   6    9.62    0.69
  30  -2  -6   10.29    0.69
  30   2   6   10.18    0.70
  -2  -6  30    9.66    0.69
   6  30   2    9.28    0.62
  -6  30  -2    9.51    0.64
   6  30  -4    0.14    0.18
   4  -6  30   -0.26    0.14
  30  -4   6   -0.06    0.24
  -6  30   4    0.01    0.18
  30   4  -6   -0.06    0.15
  30   4   6    0.11    0.18
  -6  30  -4    0.05    0.20
  -4  -6  30   -0.04    0.18
   6  30   4    0.02    0.14
  30  -4  -6    0.19    0.25
   6  30  -6    6.56    0.53
  30  -6   6    7.57    0.63
  30   6  -6    6.71    0.58
   6  -6  30    5.43    0.54
  -6  30   6    6.36    0.53
  -6  30  -6    7.02    0.58
  30  -6  -6    6.53    0.54
  30   6   6    6.47    0.58
   6  30   6    5.59    0.52
  -6  -6  30    6.74    0.58
  -6  30   8   -0.21    0.19
  30   8  -6    0.39    0.22
  30  -8   6   -0.07    0.24
   8  -6  30    0.56    0.25
   6  30  -8    0.14    0.19
  -8   6  30    0.09    0.19
   6  30   8    0.32    0.23
  -8  -6  30    0.29    0.20
   6  30   8    0.03    0.20
  30  -8  -6   -0.34    0.17
  -6  30  -8   -0.26    0.16
  30   8   6    0.29    0.24
  -6  30  10   10.35    0.69
 -10   6  30   10.85    0.65
   6  30 -10   10.52    0.68
  30  10   6   10.68    0.76
  30 -10  -6   10.02    0.69
   6  30  10    9.02    0.64
  -6  30 -10   10.57    0.72
  -6  30  12    0.26    0.21
 -12   6  30    0.11    0.21
   6  30 -12    0.26    0.22
  -6  30  12    0.13    0.21
  30  12   6    0.25    0.23
  30  12   6    0.03    0.24
  30 -12  -6    0.02    0.26
  -6  30 -12   -0.15    0.18
   6  30  12    0.22    0.22
  -8  30   0    0.14    0.20
   0  -8  30   -0.08    0.16
  30   0  -8   -0.19    0.17
  30   0   8    0.03    0.21
   8  30   0   -0.20    0.15
   2  -8  30    0.28    0.20
  -2   8  30    0.12    0.18
  30  -2   8   -0.12    0.19
   8  30  -2    0.26    0.19
  -8  30   2   -0.13    0.16
  30   2  -8    0.03    0.22
   8  30   2    0.07    0.16
  -2  -8  30   -0.10    0.15
  30  -2  -8   -0.04    0.22
  30   2   8   -0.04    0.20
  -8  30  -2    0.20    0.23
  -4   8  30   -0.07    0.18
  30  -4   8   -0.10    0.23
  30   4  -8    0.02    0.22
  -8  30   4    0.03    0.19
   4  -8  30   -0.10    0.17
   8  30  -4   -0.03    0.18
  -4  -8  30    0.07    0.19
  -8  30  -4   -0.15    0.20
   8  30   4   -0.15    0.12
  30  -4  -8    0.02    0.21
  30   4   8   -0.14    0.20
  30  -6   8    0.20    0.26
  30   6  -8    0.01    0.17
   6  -8  30   -0.02    0.17
  -8  30   6    0.05    0.21
   8  30  -6    0.16    0.21
  -6   8  30    0.15    0.20
  30  -6  -8   -0.03    0.21
  -6  -8  30    0.42    0.23
  30   6   8    0.43    0.26
  -8  30  -6    0.08    0.21
   8  30   6    0.24    0.21
  -8   8  30    0.01    0.20
  -8  30   8   -0.20    0.18
   8  30  -8   -0.13    0.16
  -8  30  -8   -0.18    0.20
  30   8   8    0.21    0.25
   8  30   8   -0.25    0.17
  30  -8  -8    0.08    0.23
  -8  30  10    0.06    0.23
 -10   8  30    0.22    0.21
   8  30 -10    0.29    0.22
   8  30  10    0.15    0.23
  30  10   8    0.08    0.24
  -8  30 -10    0.01    0.21
  30 -10  -8    0.21    0.25
  30  10   8    0.19    0.24
 -10  30   0    0.32    0.23
  30   0 -10   -0.03    0.23
   0  10  30   -0.12    0.21
  10  30   0   -0.09    0.16
  30   0  10    0.02    0.18
   0 -10  30   -0.17    0.17
  10  30  -2   14.92    0.81
   2 -10  30   14.03    0.84
  -2  10  30   15.20    0.78
 -10  30   2   14.09    0.81
  -2 -10  30   15.14    0.89
  30  -2 -10   13.89    0.84
   2  10  30   13.57    0.74
  30   2  10   13.61    0.85
  10  30   2   13.99    0.78
 -10  30  -2   14.19    0.82
 -10  30   4    0.95    0.30
  10  30  -4    1.60    0.31
  -4  10  30    1.33    0.29
   4  10  30    1.48    0.32
  30   4  10    2.18    0.39
 -10  30  -4    2.25    0.38
  30  -4 -10    2.05    0.38
  10  30   4    2.03    0.34
  10  30  -6    9.68    0.66
 -10  30   6   11.03    0.71
  -6  10  30   10.91    0.68
 -10  30  -6   10.71    0.74
  30  -6 -10    9.63    0.68
  10  30   6   10.46    0.67
  30   6  10   10.51    0.76
  30   6  10   10.66    0.73
  -8  10  30    0.53    0.23
 -10  30   8    0.26    0.24
  10  30  -8    0.11    0.20
  30  -8 -10   -0.01    0.24
  30   8  10    0.38    0.26
  30   8  10    0.48    0.26
 -10  30  -8    0.00    0.24
  10  30   8    0.06    0.19
 -12  30   0    0.25    0.22
   0  12  30    0.10    0.22
  12  30   0   -0.15    0.15
 -12  30   2    0.26    0.23
  -2  12  30    0.21    0.24
  12  30  -2    0.54    0.23
 -12  30  -2    0.18    0.25
   2  12  30    0.28    0.24
  12  30   2    0.64    0.24
  30   2  12    0.13    0.27
  12  30  -4   -0.15    0.17
 -12  30   4    0.14    0.22
  -4  12  30   -0.16    0.19
  12  30   4   -0.27    0.18
 -12  30  -4   -0.29    0.21
   4  12  30   -0.02    0.22
  30   4  12    0.17    0.22
  12  30  -6    0.01    0.19
  -6  12  30   -0.06    0.19
 -12  30   6    0.25    0.23
   6  12  30    0.18    0.22
  12  30   6    0.05    0.21
  30   6  12    0.02    0.20
 -12  30  -6    0.13    0.24
   1  31  -1    0.09    0.16
   1  -1  31    0.26    0.20
  -1  31   1    0.08    0.18
  31  -1   1   -0.39    0.18
  31   1  -1   -0.26    0.20
  -1   1  31    0.06    0.19
   1   1  31    0.07    0.18
  31   1   1   -0.27    0.15
   1  31   1    0.16    0.22
  -1  31  -1   -0.18    0.16
  31  -1  -1   -0.17    0.18
  -1  -1  31    0.04    0.18
   1  31  -3    0.05    0.18
  -3   1  31    0.24    0.21
  31   3  -1    0.23    0.20
  31  -3   1    0.03    0.25
   3  -1  31    0.16    0.20
  -1  31   3    0.01    0.18
   3   1  31    0.16    0.19
  31  -3  -1   -0.04    0.22
  -3  -1  31    0.03    0.18
  31   3   1    0.13    0.20
  -1  31  -3   -0.05    0.15
   1  31   3    0.26    0.21
   5  -1  31    0.08    0.18
  31  -5   1    0.32    0.28
  -5   1  31    0.28    0.21
   1  31  -5    0.07    0.18
  31   5  -1    0.06    0.17
  -1  31   5    0.29    0.21
  31  -5  -1    0.14    0.25
  -1  31  -5    0.04    0.19
  -5  -1  31    0.24    0.20
   5   1  31    0.05    0.17
   1  31   5    0.26    0.21
  31   5   1    0.06    0.19
  31  -7   1    0.13    0.26
  -1  31   7   -0.07    0.21
   7  -1  31   -0.05    0.17
  31   7  -1    0.24    0.22
  -7   1  31   -0.33    0.16
   1  31  -7   -0.17    0.17
   7   1  31   -0.03    0.20
   1  31   7   -0.16    0.16
  31   7   1    0.32    0.22
  31  -7  -1    0.02    0.24
  -7  -1  31    0.07    0.19
  -1  31  -7    0.03    0.17
   1  31  -9    0.07    0.17
  -9   1  31   -0.22    0.18
  -1  31   9   -0.27    0.20
   9  -1  31   -0.04    0.20
  31  -9  -1    0.06    0.23
  -9  -1  31   -0.27    0.17
   1  31   9   -0.36    0.17
  -1  31  -9   -0.11    0.21
   9   1  31    0.07    0.19
  11  -1  31   -0.08    0.19
 -11   1  31    0.06    0.22
  -1  31  11   -0.17    0.19
   1  31 -11   -0.11    0.18
  -1  31  11    0.02    0.22
  -1  31 -11   -0.03    0.18
   1  31  11    0.00    0.22
  11   1  31   -0.03    0.21
 -11  -1  31   -0.12    0.19
   1  31  11   -0.07    0.19
   3  31  -1   -0.06    0.15
  31   1  -3    0.25    0.25
  -3  31   1   -0.27    0.18
   1  -3  31    0.14    0.19
  31  -1   3    0.13    0.26
   3  31   1   -0.15    0.15
  31  -1  -3    0.04    0.20
  -1  -3  31    0.05    0.18
  31   1   3   -0.08    0.17
  -3  31  -1    0.07    0.19
  31   3  -3   -0.07    0.16
  -3  31   3   -0.26    0.16
   3  -3  31    0.05    0.16
  31  -3   3   -0.30    0.20
   3  31  -3    0.15    0.15
  -3  31  -3    0.03    0.18
   3  31   3    0.05    0.21
  31   3   3    0.14    0.21
  -3  -3  31    0.17    0.20
  31  -3  -3    0.01    0.25
  31   5  -3    0.38    0.23
   3  31  -5    0.26    0.20
  31  -5   3    0.58    0.25
   5  -3  31    0.94    0.27
  -3  31   5    0.46    0.25
  -5  -3  31    0.38    0.22
  31   5   3    0.34    0.23
  -3  31  -5    0.67    0.26
  31  -5  -3    0.27    0.27
   3  31   5    0.05    0.17
   7  -3  31    0.12    0.21
  31  -7   3   -0.05    0.23
  -3  31   7    0.06    0.20
   3  31  -7   -0.01    0.16
   3  31   7   -0.09    0.19
  31  -7  -3   -0.09    0.23
  31   7   3    0.23    0.24
  -7  -3  31   -0.10    0.19
  -3  31  -7   -0.08    0.17
   3  31  -9    0.09    0.19
  -3  31   9    0.15    0.21
   9  -3  31   -0.16    0.20
   3  31   9    0.03    0.20
  -3  31  -9   -0.34    0.15
  31   9   3    0.20    0.23
  31  -9  -3    0.31    0.26
  -9  -3  31   -0.13    0.20
   3  31   9    0.06    0.21
   3  31 -11    0.18    0.20
  -3  31  11    0.34    0.25
  -3  31 -11   -0.18    0.20
   3  31  11   -0.19    0.18
   1  -5  31    0.17    0.18
   5  31  -1    0.26    0.18
  31  -1   5    0.25    0.20
  -5  31   1   -0.12    0.18
  31   1  -5    0.38    0.28
  31  -1  -5    0.09    0.23
   5  31   1    0.20    0.19
  31   1   5   -0.06    0.18
  -5  31  -1    0.07    0.21
  -1  -5  31   -0.04    0.17
  31  -3   5    0.67    0.31
   5  31  -3    0.31    0.21
  31   3  -5    0.42    0.25
   3  -5  31    0.47    0.26
  -5  31   3    0.44    0.24
  -3  -5  31    0.21    0.21
  31  -3  -5    0.35    0.28
  31   3   5    0.73    0.27
  -5  31  -3    0.26    0.22
   5  31   3    0.24    0.20
   5  31  -5    0.12    0.19
  -5  31   5    0.01    0.20
   5  -5  31   -0.14    0.17
  -5  31  -5   -0.30    0.19
   5  31   5   -0.11    0.20
  31   5   5   -0.14    0.20
  -5  -5  31    0.03    0.19
  31  -5  -5   -0.10    0.22
  -5  31   7    0.05    0.21
   7  -5  31    0.17    0.19
   5  31  -7    0.20    0.21
  -5  31  -7   -0.24    0.18
   5  31   7   -0.17    0.20
  31   7   5   -0.27    0.17
  -7  -5  31    0.15    0.21
  31  -7  -5    0.01    0.22
  -5  31   9    0.04    0.22
   5  31  -9    0.33    0.20
  31  -9  -5   -0.03    0.23
   5  31   9   -0.13    0.22
  -5  31  -9   -0.16    0.18
   5  31   9    0.08    0.22
   1  -7  31   -0.08    0.18
   7  31  -1   -0.05    0.17
  -7  31   1   -0.14    0.20
  31  -1  -7    0.12    0.23
  -7  31  -1   -0.12    0.20
   7  31   1    0.04    0.17
  -1  -7  31    0.10    0.20
   3  -7  31    0.14    0.19
  -7  31   3   -0.06    0.19
   7  31  -3    0.13    0.19
   7  31   3    0.00    0.17
  -3  -7  31    0.28    0.22
  31  -3  -7   -0.11    0.23
  -7  31  -3   -0.30    0.19
  -7  31   5   -0.04    0.20
   7  31  -5    0.12    0.20
   7  31   5   -0.28    0.16
  -7  31  -5    0.00    0.24
  31  -5  -7    0.08    0.23
  -7  31   7   -0.12    0.20
   7  31  -7    0.12    0.20
  -7  31  -7   -0.46    0.17
   7  31   7   -0.20    0.21
  -9   7  31    0.17    0.22
   7  31   9   -0.04    0.22
  -7  31  -9    0.04    0.21
   9  31  -1    0.06    0.17
  -1   9  31   -0.02    0.20
  -9  31   1   -0.03    0.21
   9  31   1    0.16    0.21
  -9  31  -1   -0.09    0.22
   9  31  -3    0.02    0.17
  -3   9  31   -0.18    0.16
  -9  31   3    0.12    0.21
   9  31   3   -0.16    0.17
  -9  31  -3   -0.15    0.23
  -5   9  31    0.13    0.21
   9  31  -5    0.59    0.23
  -9  31   5    0.39    0.25
  -9  31  -5    0.12    0.27
   9  31   5    0.27    0.21
  -7   9  31    0.08    0.19
  -9  31  -7   -0.08    0.24
  31   7   9    0.35    0.26
  -1  11  31    0.05    0.21
  11  31  -1    0.06    0.17
 -11  31   1   -0.10    0.21
   1  11  31   -0.15    0.20
 -11  31  -1   -0.14    0.22
  11  31   1   -0.07    0.19
 -11  31   3    0.11    0.22
  -3  11  31    0.37    0.24
 -11  31  -3    0.12    0.24
  31   3  11    0.35    0.26
   3  11  31    0.50    0.25
   0   0  32   58.94    2.00
   0  32   0   54.41    1.90
   0  32  -2    0.30    0.24
   0  32   2    0.25    0.24
  -2   0  32   -0.16    0.20
   2   0  32   -0.25    0.20
   4   0  32   33.06    1.38
   0  32  -4   35.03    1.37
   0  32   4   32.45    1.32
  -4   0  32   33.76    1.40
   0  32  -6    0.29    0.21
  -6   0  32   -0.41    0.19
   6   0  32   -0.12    0.19
   0  32   6    0.00    0.21
   8   0  32   44.40    1.66
   0  32   8   37.99    1.52
   0  32  -8   43.03    1.60
  -8   0  32   42.56    1.64
  -2  32   0    0.20    0.25
   0  -2  32    0.38    0.22
   2  32   0    0.16    0.21
   2  32  -2   -0.18    0.16
   2  -2  32    0.09    0.19
  -2  32   2   -0.37    0.18
  -2  -2  32   -0.10    0.18
  -2  32  -2   -0.54    0.18
   2  32   2   -0.22    0.22
  -2  32   4    0.21    0.24
   2  32  -4    0.19    0.20
   4  -2  32    0.18    0.22
   2  32   4    0.30    0.24
  -2  32  -4    0.01    0.20
  -4  -2  32   -0.11    0.18
   2  32  -6   -0.14    0.23
  -2  32   6    0.17    0.25
   6  -2  32   -0.10    0.17
  -6  -2  32   -0.18    0.18
   2  32   6   -0.18    0.21
  -2  32  -6    0.24    0.22
   4  32   0   32.71    1.32
   0  -4  32   33.91    1.42
  -4  32   0   31.85    1.33
   4  32  -2    0.09    0.20
  -4  32   2    0.33    0.25
   2  -4  32    0.23    0.25
   4  32   2   -0.11    0.17
  -4  32  -2    0.07    0.25
  -2  -4  32   -0.26    0.23
   4  32  -4   34.92    1.38
   4  -4  32   34.25    1.45
  -4  32   4   35.81    1.40
  -4  -4  32   37.22    1.51
   4  32   4   32.58    1.37
  -4  32  -4   35.77    1.42
   4  32  -6    0.00    0.20
  -4  32   6    0.07    0.24
  -4  32  -6   -0.09    0.19
   4  32   6   -0.05    0.20
   6  32   0   -0.08    0.17
  -6  32   0    0.18    0.26
  -6  32   2    0.02    0.25
   6  32  -2   -0.13    0.21
  -6  32  -2    0.04    0.23
   6  32   2    0.01    0.18
  -6  32   4    0.26    0.25
   6  32  -4    0.46    0.23
  -6  32  -4    0.05    0.22
   6  32   4    0.38    0.22
  -8  32   0   44.52    1.62
   8  32   0   39.09    1.53
   1  -1  33   -0.10    0.21
  -1  -1  33   -0.32    0.19
   3  -1  33    0.45    0.26
  -3  -1  33    0.26    0.25
   0   0   0    0.00    0.00
;
_shelx_hkl_checksum              28507
loop_
_space_group_symop_operation_xyz
'x, y, z'
'-x+1/4, -y+3/4, z+1/2'
'-x+3/4, y+1/2, -z+1/4'
'x+1/2, -y+1/4, -z+3/4'
'z, x, y'
'z+1/2, -x+1/4, -y+3/4'
'-z+1/4, -x+3/4, y+1/2'
'-z+3/4, x+1/2, -y+1/4'
'y, z, x'
'-y+3/4, z+1/2, -x+1/4'
'y+1/2, -z+1/4, -x+3/4'
'-y+1/4, -z+3/4, x+1/2'
'y+3/4, x+1/4, -z'
'-y+1/2, -x+1/2, -z+1/2'
'y+1/4, -x, z+3/4'
'-y, x+3/4, z+1/4'
'x+3/4, z+1/4, -y'
'-x, z+3/4, y+1/4'
'-x+1/2, -z+1/2, -y+1/2'
'x+1/4, -z, y+3/4'
'z+3/4, y+1/4, -x'
'z+1/4, -y, x+3/4'
'-z, y+3/4, x+1/4'
'-z+1/2, -y+1/2, -x+1/2'
'x, y+1/2, z+1/2'
'-x+1/4, -y+5/4, z+1'
'-x+3/4, y+1, -z+3/4'
'x+1/2, -y+3/4, -z+5/4'
'z, x+1/2, y+1/2'
'z+1/2, -x+3/4, -y+5/4'
'-z+1/4, -x+5/4, y+1'
'-z+3/4, x+1, -y+3/4'
'y, z+1/2, x+1/2'
'-y+3/4, z+1, -x+3/4'
'y+1/2, -z+3/4, -x+5/4'
'-y+1/4, -z+5/4, x+1'
'y+3/4, x+3/4, -z+1/2'
'-y+1/2, -x+1, -z+1'
'y+1/4, -x+1/2, z+5/4'
'-y, x+5/4, z+3/4'
'x+3/4, z+3/4, -y+1/2'
'-x, z+5/4, y+3/4'
'-x+1/2, -z+1, -y+1'
'x+1/4, -z+1/2, y+5/4'
'z+3/4, y+3/4, -x+1/2'
'z+1/4, -y+1/2, x+5/4'
'-z, y+5/4, x+3/4'
'-z+1/2, -y+1, -x+1'
'x+1/2, y, z+1/2'
'-x+3/4, -y+3/4, z+1'
'-x+5/4, y+1/2, -z+3/4'
'x+1, -y+1/4, -z+5/4'
'z+1/2, x, y+1/2'
'z+1, -x+1/4, -y+5/4'
'-z+3/4, -x+3/4, y+1'
'-z+5/4, x+1/2, -y+3/4'
'y+1/2, z, x+1/2'
'-y+5/4, z+1/2, -x+3/4'
'y+1, -z+1/4, -x+5/4'
'-y+3/4, -z+3/4, x+1'
'y+5/4, x+1/4, -z+1/2'
'-y+1, -x+1/2, -z+1'
'y+3/4, -x, z+5/4'
'-y+1/2, x+3/4, z+3/4'
'x+5/4, z+1/4, -y+1/2'
'-x+1/2, z+3/4, y+3/4'
'-x+1, -z+1/2, -y+1'
'x+3/4, -z, y+5/4'
'z+5/4, y+1/4, -x+1/2'
'z+3/4, -y, x+5/4'
'-z+1/2, y+3/4, x+3/4'
'-z+1, -y+1/2, -x+1'
'x+1/2, y+1/2, z'
'-x+3/4, -y+5/4, z+1/2'
'-x+5/4, y+1, -z+1/4'
'x+1, -y+3/4, -z+3/4'
'z+1/2, x+1/2, y'
'z+1, -x+3/4, -y+3/4'
'-z+3/4, -x+5/4, y+1/2'
'-z+5/4, x+1, -y+1/4'
'y+1/2, z+1/2, x'
'-y+5/4, z+1, -x+1/4'
'y+1, -z+3/4, -x+3/4'
'-y+3/4, -z+5/4, x+1/2'
'y+5/4, x+3/4, -z'
'-y+1, -x+1, -z+1/2'
'y+3/4, -x+1/2, z+3/4'
'-y+1/2, x+5/4, z+1/4'
'x+5/4, z+3/4, -y'
'-x+1/2, z+5/4, y+1/4'
'-x+1, -z+1, -y+1/2'
'x+3/4, -z+1/2, y+3/4'
'z+5/4, y+3/4, -x'
'z+3/4, -y+1/2, x+3/4'
'-z+1/2, y+5/4, x+1/4'
'-z+1, -y+1, -x+1/2'
'-x, -y, -z'
'x-1/4, y-3/4, -z-1/2'
'x-3/4, -y-1/2, z-1/4'
'-x-1/2, y-1/4, z-3/4'
'-z, -x, -y'
'-z-1/2, x-1/4, y-3/4'
'z-1/4, x-3/4, -y-1/2'
'z-3/4, -x-1/2, y-1/4'
'-y, -z, -x'
'y-3/4, -z-1/2, x-1/4'
'-y-1/2, z-1/4, x-3/4'
'y-1/4, z-3/4, -x-1/2'
'-y-3/4, -x-1/4, z'
'y-1/2, x-1/2, z-1/2'
'-y-1/4, x, -z-3/4'
'y, -x-3/4, -z-1/4'
'-x-3/4, -z-1/4, y'
'x, -z-3/4, -y-1/4'
'x-1/2, z-1/2, y-1/2'
'-x-1/4, z, -y-3/4'
'-z-3/4, -y-1/4, x'
'-z-1/4, y, -x-3/4'
'z, -y-3/4, -x-1/4'
'z-1/2, y-1/2, x-1/2'
'-x, -y+1/2, -z+1/2'
'x-1/4, y-1/4, -z'
'x-3/4, -y, z+1/4'
'-x-1/2, y+1/4, z-1/4'
'-z, -x+1/2, -y+1/2'
'-z-1/2, x+1/4, y-1/4'
'z-1/4, x-1/4, -y'
'z-3/4, -x, y+1/4'
'-y, -z+1/2, -x+1/2'
'y-3/4, -z, x+1/4'
'-y-1/2, z+1/4, x-1/4'
'y-1/4, z-1/4, -x'
'-y-3/4, -x+1/4, z+1/2'
'y-1/2, x, z'
'-y-1/4, x+1/2, -z-1/4'
'y, -x-1/4, -z+1/4'
'-x-3/4, -z+1/4, y+1/2'
'x, -z-1/4, -y+1/4'
'x-1/2, z, y'
'-x-1/4, z+1/2, -y-1/4'
'-z-3/4, -y+1/4, x+1/2'
'-z-1/4, y+1/2, -x-1/4'
'z, -y-1/4, -x+1/4'
'z-1/2, y, x'
'-x+1/2, -y, -z+1/2'
'x+1/4, y-3/4, -z'
'x-1/4, -y-1/2, z+1/4'
'-x, y-1/4, z-1/4'
'-z+1/2, -x, -y+1/2'
'-z, x-1/4, y-1/4'
'z+1/4, x-3/4, -y'
'z-1/4, -x-1/2, y+1/4'
'-y+1/2, -z, -x+1/2'
'y-1/4, -z-1/2, x+1/4'
'-y, z-1/4, x-1/4'
'y+1/4, z-3/4, -x'
'-y-1/4, -x-1/4, z+1/2'
'y, x-1/2, z'
'-y+1/4, x, -z-1/4'
'y+1/2, -x-3/4, -z+1/4'
'-x-1/4, -z-1/4, y+1/2'
'x+1/2, -z-3/4, -y+1/4'
'x, z-1/2, y'
'-x+1/4, z, -y-1/4'
'-z-1/4, -y-1/4, x+1/2'
'-z+1/4, y, -x-1/4'
'z+1/2, -y-3/4, -x+1/4'
'z, y-1/2, x'
'-x+1/2, -y+1/2, -z'
'x+1/4, y-1/4, -z-1/2'
'x-1/4, -y, z-1/4'
'-x, y+1/4, z-3/4'
'-z+1/2, -x+1/2, -y'
'-z, x+1/4, y-3/4'
'z+1/4, x-1/4, -y-1/2'
'z-1/4, -x, y-1/4'
'-y+1/2, -z+1/2, -x'
'y-1/4, -z, x-1/4'
'-y, z+1/4, x-3/4'
'y+1/4, z-1/4, -x-1/2'
'-y-1/4, -x+1/4, z'
'y, x, z-1/2'
'-y+1/4, x+1/2, -z-3/4'
'y+1/2, -x-1/4, -z-1/4'
'-x-1/4, -z+1/4, y'
'x+1/2, -z-1/4, -y-1/4'
'x, z, y-1/2'
'-x+1/4, z+1/2, -y-3/4'
'-z-1/4, -y+1/4, x'
'-z+1/4, y+1/2, -x-3/4'
'z+1/2, -y-1/4, -x-1/4'
'z, y, x-1/2'
loop_
_atom_site_label
_atom_site_type_symbol
_atom_site_fract_x
_atom_site_fract_y
_atom_site_fract_z
_atom_site_U_iso_or_equiv
_atom_site_adp_type
_atom_site_occupancy
_atom_site_site_symmetry_order
_atom_site_calc_flag
_atom_site_refinement_flags_posn
_atom_site_refinement_flags_adp
_atom_site_refinement_flags_occupancy
Er1 Er 0.5000 0.2500 0.5000 0.01746(19) Uani 1 6 d S T P
Co1 Co 0.5000 0.2500 0.2500 0.0151(3) Uani 1 6 d S T P
Co2 Co 0.6250 0.1250 0.1250 0.0360(6) Uani 1 12 d S T P
C1 C 0.49670(18) 0.24179(19) 0.37263(19) 0.0251(11) Uani 1 1 d . . .
C2 C 0.5549(2) 0.2474(2) 0.37935(19) 0.0369(13) Uani 1 1 d . . .
H4A H 0.5726 0.2178 0.3636 0.044 Uiso 1 1 calc R U .
H4B H 0.5669 0.2790 0.3620 0.044 Uiso 1 1 calc R U .
O1 O 0.56680(13) 0.2500 0.43320(13) 0.0275(10) Uani 1 2 d S T P
O2 O 0.46925(14) 0.24169(14) 0.41373(13) 0.0328(8) Uani 1 1 d . . .
O3 O 0.47785(14) 0.23669(14) 0.32806(14) 0.0296(8) Uani 1 1 d . . .
O4 O 0.6250 0.2064(2) 0.1250 0.0531(16) Uani 1 2 d S T P
H4 H 0.5952 0.2171 0.1198 0.080 Uiso 0.5 1 calc R U P
O5 O 0.6250 0.3315(8) 0.1250 0.224(8) Uani 1 2 d S T P
loop_
_atom_site_aniso_label
_atom_site_aniso_U_11
_atom_site_aniso_U_22
_atom_site_aniso_U_33
_atom_site_aniso_U_23
_atom_site_aniso_U_13
_atom_site_aniso_U_12
Er1 0.01746(19) 0.01746(19) 0.01746(19) -0.00513(10) 0.00513(10) -0.00513(10)
Co1 0.0151(3) 0.0151(3) 0.0151(3) -0.0008(3) 0.0008(3) 0.0008(3)
Co2 0.0360(6) 0.0360(6) 0.0360(6) 0.000 0.000 0.000
C1 0.030(3) 0.021(2) 0.025(3) -0.0041(17) 0.0044(18) 0.0002(17)
C2 0.028(3) 0.062(4) 0.021(2) -0.004(2) 0.0068(19) -0.009(2)
O1 0.0210(14) 0.040(3) 0.0210(14) -0.0062(14) 0.0015(17) -0.0062(14)
O2 0.0253(18) 0.046(2) 0.0268(19) -0.0088(16) 0.0061(14) -0.0040(15)
O3 0.0301(18) 0.0337(19) 0.0248(18) -0.0013(14) -0.0001(14) -0.0030(15)
O4 0.036(3) 0.039(3) 0.084(5) 0.000 -0.006(3) 0.000
O5 0.22(2) 0.19(2) 0.26(2) 0.000 0.063(19) 0.000
loop_
_atom_type_symbol
_atom_type_description
_atom_type_scat_dispersion_real
_atom_type_scat_dispersion_imag
_atom_type_scat_source
C C 0.0033 0.0016 'International Tables Vol C Tables 4.2.6.8 and 6.1.1.4'
H H 0.0000 0.0000 'International Tables Vol C Tables 4.2.6.8 and 6.1.1.4'
O O 0.0106 0.0060 'International Tables Vol C Tables 4.2.6.8 and 6.1.1.4'
Co Co 0.3494 0.9721 'International Tables Vol C Tables 4.2.6.8 and 6.1.1.4'
Er Er -0.2586 4.9576 'International Tables Vol C Tables 4.2.6.8 and 6.1.1.4'
loop_
_geom_angle_atom_site_label_1
_geom_angle_atom_site_label_2
_geom_angle_atom_site_label_3
_geom_angle
_geom_angle_site_symmetry_1
_geom_angle_site_symmetry_3
O2 Er1 O2 78.54(14) 72 18_645
O2 Er1 O2 86.69(18) 72 60_554
O2 Er1 O2 145.05(17) 18_645 60_554
O2 Er1 O2 78.54(14) 72 85_446
O2 Er1 O2 78.54(14) 18_645 85_446
O2 Er1 O2 129.46(17) 60_554 85_446
O2 Er1 O2 145.05(17) 72 78_455
O2 Er1 O2 129.46(17) 18_645 78_455
O2 Er1 O2 78.54(14) 60_554 78_455
O2 Er1 O2 86.69(18) 85_446 78_455
O2 Er1 O2 129.46(17) 72 .
O2 Er1 O2 86.69(18) 18_645 .
O2 Er1 O2 78.54(14) 60_554 .
O2 Er1 O2 145.05(17) 85_446 .
O2 Er1 O2 78.54(14) 78_455 .
O2 Er1 O1 64.73(8) 72 .
O2 Er1 O1 72.52(9) 18_645 .
O2 Er1 O1 72.52(9) 60_554 .
O2 Er1 O1 136.65(9) 85_446 .
O2 Er1 O1 136.65(9) 78_455 .
O2 Er1 O1 64.73(8) . .
O2 Er1 O1 72.52(9) 72 60_554
O2 Er1 O1 136.65(9) 18_645 60_554
O2 Er1 O1 64.73(8) 60_554 60_554
O2 Er1 O1 64.73(8) 85_446 60_554
O2 Er1 O1 72.52(9) 78_455 60_554
O2 Er1 O1 136.65(9) . 60_554
O1 Er1 O1 120.0 . 60_554
O2 Er1 O1 136.65(9) 72 78_455
O2 Er1 O1 64.73(8) 18_645 78_455
O2 Er1 O1 136.65(9) 60_554 78_455
O2 Er1 O1 72.52(9) 85_446 78_455
O2 Er1 O1 64.73(8) 78_455 78_455
O2 Er1 O1 72.52(9) . 78_455
O1 Er1 O1 120.0 . 78_455
O1 Er1 O1 120.0 60_554 78_455
O3 Co1 O3 93.36(14) . 106_665
O3 Co1 O3 86.64(14) . 34_545
O3 Co1 O3 180.00(19) 106_665 34_545
O3 Co1 O3 86.64(14) . 55_554
O3 Co1 O3 93.36(14) 106_665 55_554
O3 Co1 O3 86.64(14) 34_545 55_554
O3 Co1 O3 93.36(14) . 175_556
O3 Co1 O3 86.64(14) 106_665 175_556
O3 Co1 O3 93.36(14) 34_545 175_556
O3 Co1 O3 180.00(19) 55_554 175_556
O3 Co1 O3 180.0 . 121_655
O3 Co1 O3 86.64(14) 106_665 121_655
O3 Co1 O3 93.36(14) 34_545 121_655
O3 Co1 O3 93.36(14) 55_554 121_655
O3 Co1 O3 86.64(14) 175_556 121_655
O4 Co2 O4 180.0 34_545 57_554
O4 Co2 O4 90.0 34_545 26_644
O4 Co2 O4 90.0 57_554 26_644
O4 Co2 O4 90.0 34_545 77_545
O4 Co2 O4 90.0 57_554 77_545
O4 Co2 O4 90.0 26_644 77_545
O4 Co2 O4 90.0 34_545 30_554
O4 Co2 O4 90.0 57_554 30_554
O4 Co2 O4 90.0 26_644 30_554
O4 Co2 O4 180.0 77_545 30_554
O4 Co2 O4 90.0 34_545 .
O4 Co2 O4 90.0 57_554 .
O4 Co2 O4 180.0 26_644 .
O4 Co2 O4 90.0 77_545 .
O4 Co2 O4 90.0 30_554 .
O3 C1 O2 123.1(4) . .
O3 C1 C2 119.8(4) . .
O2 C1 C2 117.0(4) . .
O1 C2 C1 109.2(4) . .
O1 C2 H4A 109.8 . .
C1 C2 H4A 109.8 . .
O1 C2 H4B 109.8 . .
C1 C2 H4B 109.8 . .
H4A C2 H4B 108.3 . .
C2 O1 C2 115.0(5) 72 .
C2 O1 Er1 122.5(3) 72 .
C2 O1 Er1 122.5(3) . .
C1 O2 Er1 126.5(3) . .
C1 O3 Co1 138.4(3) . .
Co2 O4 H4 109.5 . .
loop_
_geom_bond_atom_site_label_1
_geom_bond_atom_site_label_2
_geom_bond_distance
_geom_bond_site_symmetry_2
Er1 O2 2.348(3) 72
Er1 O2 2.348(3) 18_645
Er1 O2 2.348(3) 60_554
Er1 O2 2.348(3) 85_446
Er1 O2 2.348(3) 78_455
Er1 O2 2.348(3) .
Er1 O1 2.413(5) .
Er1 O1 2.413(5) 60_554
Er1 O1 2.413(5) 78_455
Co1 O3 2.100(4) .
Co1 O3 2.100(4) 106_665
Co1 O3 2.100(4) 34_545
Co1 O3 2.100(4) 55_554
Co1 O3 2.100(4) 175_556
Co1 O3 2.100(4) 121_655
Co2 O4 2.079(6) 34_545
Co2 O4 2.079(6) 57_554
Co2 O4 2.079(6) 26_644
Co2 O4 2.079(6) 77_545
Co2 O4 2.079(6) 30_554
Co2 O4 2.079(6) .
C1 O3 1.243(6) .
C1 O2 1.262(6) .
C1 C2 1.503(7) .
C2 O1 1.410(6) .
C2 H4A 0.9700 .
C2 H4B 0.9700 .
O1 C2 1.410(6) 72
O4 H4 0.8200 .
loop_
_geom_torsion_atom_site_label_1
_geom_torsion_atom_site_label_2
_geom_torsion_atom_site_label_3
_geom_torsion_atom_site_label_4
_geom_torsion
_geom_torsion_site_symmetry_4
O3 C1 C2 O1 -177.1(4) .
O2 C1 C2 O1 1.8(6) .
C1 C2 O1 C2 176.8(5) 72
C1 C2 O1 Er1 -3.2(5) .
O3 C1 O2 Er1 179.3(3) .
C2 C1 O2 Er1 0.4(6) .
O2 C1 O3 Co1 162.7(4) .
C2 C1 O3 Co1 -18.4(8) .
