#------------------------------------------------------------------------------
#$Date: 2019-11-25 02:38:54 +0200 (Mon, 25 Nov 2019) $
#$Revision: 239977 $
#$URL: file:///home/coder/svn-repositories/cod/cif/4/35/06/4350656.cif $
#------------------------------------------------------------------------------
#
# This file is available in the Crystallography Open Database (COD),
# http://www.crystallography.net/
#
# All data on this site have been placed in the public domain by the
# contributors.
#
data_4350656
loop_
_publ_author_name
'Huang, Xiao-feng'
'Ma, Jing-xin'
'Liu, Wei-sheng'
_publ_section_title
;
 Lanthanide metalloligand strategy toward d-f heterometallic metal-organic
 frameworks: magnetism and symmetric-dependent luminescent properties.
;
_journal_issue                   12
_journal_name_full               'Inorganic chemistry'
_journal_page_first              5922
_journal_page_last               5930
_journal_paper_doi               10.1021/ic403080n
_journal_volume                  53
_journal_year                    2014
_chemical_formula_sum            'C24 H36 Cd3 Lu2 O48'
_chemical_formula_weight         1779.70
_space_group_crystal_system      cubic
_space_group_IT_number           228
_space_group_name_Hall           '-F 4ud 2vw 3'
_space_group_name_H-M_alt        'F d -3 c :2'
_atom_sites_solution_hydrogens   mixed
_audit_creation_method           SHELXL-2013
_cell_angle_alpha                90
_cell_angle_beta                 90
_cell_angle_gamma                90
_cell_formula_units_Z            16
_cell_length_a                   26.026(2)
_cell_length_b                   26.026(2)
_cell_length_c                   26.026(2)
_cell_measurement_temperature    293(2)
_cell_volume                     17629(2)
_computing_structure_refinement  'SHELXL-2013 (Sheldrick, 2013)'
_diffrn_ambient_temperature      293(2)
_diffrn_measured_fraction_theta_full 1.000
_diffrn_measured_fraction_theta_max 0.998
_diffrn_radiation_type           MoK\a
_diffrn_radiation_wavelength     0.71073
_diffrn_reflns_av_R_equivalents  0.0691
_diffrn_reflns_av_unetI/netI     0.0228
_diffrn_reflns_Laue_measured_fraction_full 1.000
_diffrn_reflns_Laue_measured_fraction_max 0.998
_diffrn_reflns_limit_h_max       34
_diffrn_reflns_limit_h_min       -34
_diffrn_reflns_limit_k_max       34
_diffrn_reflns_limit_k_min       -25
_diffrn_reflns_limit_l_max       20
_diffrn_reflns_limit_l_min       -34
_diffrn_reflns_number            22112
_diffrn_reflns_point_group_measured_fraction_full 1.000
_diffrn_reflns_point_group_measured_fraction_max 0.998
_diffrn_reflns_theta_full        25.242
_diffrn_reflns_theta_max         28.370
_diffrn_reflns_theta_min         2.213
_exptl_absorpt_coefficient_mu    5.980
_exptl_absorpt_correction_T_max  0.304
_exptl_absorpt_correction_T_min  0.277
_exptl_absorpt_correction_type   multi-scan
_exptl_absorpt_process_details   SADABS
_exptl_crystal_density_diffrn    2.682
_exptl_crystal_F_000             13600.0
_exptl_crystal_size_max          0.230
_exptl_crystal_size_mid          0.210
_exptl_crystal_size_min          0.200
_refine_diff_density_max         2.840
_refine_diff_density_min         -1.939
_refine_diff_density_rms         0.232
_refine_ls_extinction_method     none
_refine_ls_goodness_of_fit_ref   1.043
_refine_ls_hydrogen_treatment    mixed
_refine_ls_matrix_type           full
_refine_ls_number_parameters     67
_refine_ls_number_reflns         935
_refine_ls_number_restraints     1
_refine_ls_restrained_S_all      1.043
_refine_ls_R_factor_all          0.1075
_refine_ls_R_factor_gt           0.0640
_refine_ls_shift/su_max          0.000
_refine_ls_shift/su_mean         0.061
_refine_ls_structure_factor_coef Fsqd
_refine_ls_weighting_details
'w=1/[\s^2^(Fo^2^)+(0.1114P)^2^+2066.4014P] where P=(Fo^2^+2Fc^2^)/3'
_refine_ls_weighting_scheme      calc
_refine_ls_wR_factor_gt          0.1853
_refine_ls_wR_factor_ref         0.2778
_reflns_Friedel_coverage         0.000
_reflns_number_gt                444
_reflns_number_total             935
_reflns_threshold_expression     'I > 2\s(I)'
_cod_data_source_file            ic403080n_si_002.cif
_cod_data_source_block           3e
_cod_original_cell_volume        17629(4)
_cod_original_sg_symbol_Hall     '-F 4cvw 2vw 3'
_cod_original_sg_symbol_H-M      'F d -3 c'
_cod_original_formula_sum        'C24 H36 Cd3 Lu2 O48 '
_cod_database_code               4350656
_shelx_space_group_comment
;
The symmetry employed for this shelxl refinement is uniquely defined
by the following loop, which should always be used as a source of
symmetry information in preference to the above space-group names.
They are only intended as comments.
;
_shelxl_version_number           2013-4
_shelx_res_file
;
TITL LuCd in Fd-3c
CELL 0.71073  26.0261  26.0261  26.0261  90.000  90.000  90.000
ZERR  164.00   0.0021   0.0021   0.0021   0.000   0.000   0.000
LATT 4
SYMM             - Y ,    0.25000 + X ,    0.75000 + Z
SYMM     0.75000 - X ,    0.25000 - Y ,    0.50000 + Z
SYMM     0.75000 + Y ,            - X ,    0.25000 + Z
SYMM               X ,    0.25000 - Y ,    0.25000 - Z
SYMM     0.75000 + Y ,    0.25000 + X ,            - Z
SYMM     0.75000 - X ,              Y ,    0.75000 - Z
SYMM             - Y ,            - X ,    0.50000 - Z
SYMM               Z ,              X ,              Y
SYMM             - X ,    0.25000 + Z ,    0.75000 + Y
SYMM     0.75000 - Z ,    0.25000 - X ,    0.50000 + Y
SYMM     0.75000 + X ,            - Z ,    0.25000 + Y
SYMM               Z ,    0.25000 - X ,    0.25000 - Y
SYMM     0.75000 + X ,    0.25000 + Z ,            - Y
SYMM     0.75000 - Z ,              X ,    0.75000 - Y
SYMM             - X ,            - Z ,    0.50000 - Y
SYMM               Y ,              Z ,              X
SYMM     0.50000 - Z ,            - Y ,            - X
SYMM             - Z ,    0.75000 + Y ,    0.25000 + X
SYMM     0.25000 + Z ,    0.75000 + Y ,            - X
SYMM     0.75000 + Z ,            - Y ,    0.25000 + X
SYMM               Y ,    0.75000 - Z ,    0.75000 - X
SYMM     0.25000 - Y ,    0.25000 - Z ,              X
SYMM     0.25000 - Y ,    0.50000 + Z ,    0.75000 - X
SFAC C  H  Cd Lu O
UNIT 384  2  48  32  624
L.S. 20
ACTA
BOND $H
FMAP 2
PLAN 20
ACTA
CONF
BIND O4   H2
DFIX 0.85 0.02 O4 H2
DFIX 0.85 0.02 O5 H3
WGHT    0.111400 2066.401367
FVAR       0.00617   0.91358
LU1   4    0.000000    0.250000    0.000000    10.16667    0.03172    0.03172 =
         0.03172   -0.00676    0.00676   -0.00676
CD1   3    0.000000    0.500000    0.000000    10.16667    0.02638    0.02638 =
         0.02638   -0.00481   -0.00481   -0.00481
O2    5    0.014066    0.416558   -0.024387    11.00000    0.07108    0.08271 =
         0.06802   -0.01074    0.00663   -0.00509
O3    5    0.009283    0.333550   -0.030163    11.00000    0.07106    0.07461 =
         0.06385    0.00128    0.00733   -0.00835
O1    5    0.000000    0.315479    0.065479    10.50000    0.07764    0.05952 =
         0.05952   -0.01269    0.00090   -0.00090
C2    1    0.008167    0.373147   -0.001358    11.00000    0.05930    0.02741 =
         0.08336   -0.00708   -0.01106   -0.01179
C1    1    0.003023    0.367177    0.054124    11.00000    0.10034    0.06788 =
         0.06593   -0.01684    0.00081   -0.00637
AFIX  23
H1A   2    0.032447    0.382268    0.071315    11.00000   -1.20000
H1B   2   -0.027704    0.384616    0.065991    11.00000   -1.20000
AFIX   0
CD2   3    0.125000    0.125000    0.125000    10.08333    0.08626    0.08626 =
         0.08626    0.00000    0.00000    0.00000
O4    5    0.038920    0.125000    0.125000    10.50000    0.07310    0.08277 =
         0.15996   -0.00101    0.00000    0.00000
O5    5    0.920329    0.125000    0.125000    10.50000    0.26283    0.18233 =
         0.34540    0.02376    0.00000    0.00000
O6    5    0.081508    0.331508    0.000000    10.50000    2.00000    2.00000 =
         2.00000   -0.40000    0.40000   -0.40000
H2    2    0.026445    0.148590    0.143950    11.00000    0.15690
HKLF 4 1  1.0000  0.0000  0.0000  0.0000 -1.0000  0.0000  0.0000  0.0000 -1.0000

REM  LuCd in Fd-3c
REM R1 =  0.0640 for     444 Fo > 4sig(Fo)  and  0.1075 for all     935 data
REM     67 parameters refined using      1 restraints

END

WGHT      0.1000   1418.7902

REM Highest difference peak  2.840,  deepest hole -1.939,  1-sigma level  0.232
Q1    1   0.8750  0.1250  0.1250  10.25000  0.05    1.82
Q2    1  -0.0247  0.4190  0.0112  11.00000  0.05    1.27
Q3    1   0.0662  0.3162  0.0000  10.50000  0.05    1.26
Q4    1  -0.0292  0.3345  0.0059  11.00000  0.05    1.08
Q5    1   0.0195  0.4195 -0.0121  11.00000  0.05    0.85
Q6    1  -0.0088  0.2528 -0.0341  11.00000  0.05    0.79
Q7    1   0.0071  0.4925  0.0358  11.00000  0.05    0.74
Q8    1  -0.0037  0.3204 -0.0658  11.00000  0.05    0.68
Q9    1   0.1659  0.1659  0.1659  10.33333  0.05    0.67
Q10   1   0.0547  0.3681  0.0090  11.00000  0.05    0.66
Q11   1   0.0092  0.3167 -0.0033  11.00000  0.05    0.63
Q12   1  -0.0196  0.1230  0.1726  11.00000  0.05    0.59
Q13   1   0.8978  0.0841  0.1221  11.00000  0.05    0.56
Q14   1   0.0849  0.1651  0.1651  10.33333  0.05    0.53
Q15   1  -0.0490  0.2990 -0.0490  10.33333  0.05    0.50
Q16   1  -0.0419  0.2919 -0.0419  10.33333  0.05    0.48
Q17   1   0.0303  0.1609  0.1832  11.00000  0.05    0.48
Q18   1  -0.0002  0.3163  0.0086  11.00000  0.05    0.47
Q19   1   0.0518  0.1250  0.1250  10.50000  0.05    0.47
Q20   1   0.0000  0.2925  0.0425  10.50000  0.05    0.45
;
_shelx_res_checksum              7446
_shelx_hkl_file
;
  -2   0   2   21.45    1.18
   0  -2   2   19.02    1.13
   2   2   0   22.09    1.09
   2   2  -2   42.41    2.20
  -2   2   2   46.45    2.36
   2  -2   2   40.05    2.19
  -2  -2   2   44.79    2.34
   2   2   2   40.56    2.36
   3  -1   1    0.01    0.02
  -3   1   1   -0.02    0.03
   3  -1   1    0.01    0.03
   1  -1   3    0.01    0.02
   3   1  -1    0.01    0.02
  -1   1   3    0.04    0.05
   1  -3   1    0.00    0.02
  -1  -1   3    0.05    0.05
   1   1   3    0.16    0.06
   3  -1  -1    0.01    0.01
  -1  -3   1    0.00    0.02
  -3  -1   1   -0.02    0.04
  -1  -1   3    0.11    0.04
   3   1   1    0.04    0.04
   3   1   1    0.00    0.01
   3  -1   3    0.04    0.04
   3   3  -1    0.01    0.02
  -3   1   3   -0.01    0.06
  -3   3   1   -0.05    0.04
   3  -1   3    0.01    0.02
  -1   3   3    0.07    0.06
   1  -3   3    0.00    0.03
   3   1  -3    0.02    0.02
   3  -3   1    0.00    0.02
   3  -3  -1    0.00    0.01
   3  -1  -3   -0.01    0.02
  -3  -3   1    0.02    0.05
  -1  -3   3    0.13    0.05
   1   3   3    0.12    0.07
   3   1   3    0.00    0.05
   3   1   3    0.01    0.02
  -3  -1   3   -0.06    0.06
   3   3   1    0.06    0.05
   3   3   1    0.03    0.02
   3   3  -3    0.04    0.04
  -3   3   3    0.07    0.08
   3  -3   3    0.06    0.05
   3  -3   3    0.04    0.03
  -3  -3   3    0.04    0.07
   3   3   3    0.02    0.06
   3   3   3    0.02    0.02
  -4   0   0  545.29   27.02
   0  -4   0  458.03   25.41
   0   0   4  506.78   27.05
   4   0   0  523.87   25.36
   2   0   4    0.52    0.11
   2   0   4    0.59    0.08
   0  -4   2    0.55    0.10
   0   4   2    0.51    0.09
   2   0  -4    0.77    0.09
  -2   0   4    0.59    0.12
  -4   2   0    0.55    0.09
   4   0   2    0.28    0.05
   4   0   2    0.55    0.10
   4   0  -2    0.27    0.04
   2  -4   0    0.37    0.05
   2   4   0    0.42    0.08
   2   4   0    0.38    0.06
  -4   0   2    0.39    0.09
   0  -2   4    0.55    0.11
   0  -2   4    0.29    0.07
   0   2   4    0.70    0.13
   4   2  -2   19.39    1.04
  -4   2   2   18.67    1.12
   4  -2   2   20.08    1.11
   4  -2   2   18.65    1.04
  -2   2   4   19.22    1.15
  -2   4   2   21.07    1.12
   2  -4   2   18.83    1.06
   2  -2   4   17.08    1.12
   2  -2   4   19.80    1.05
   2   2   4   18.97    1.16
   2   4   2   17.17    1.12
   2   4   2   20.45    1.02
   4  -2  -2   19.65    1.02
  -2  -4   2   19.27    1.09
  -2  -2   4   20.68    1.14
  -4  -2   2   18.31    1.12
   4   2   2   19.54    1.15
   4   2   2   19.68    1.03
  -4   0   4  414.33   22.34
  -4   4   0  431.61   22.33
   0  -4   4  425.72   22.37
   0  -4   4  374.74   21.05
   0   4   4  410.04   22.36
   4  -4   0  432.00   20.97
   4   0  -4  434.92   20.97
   4   0   4  418.30   22.36
   4   0   4  446.30   20.97
   4   4   0  412.57   22.34
   4   4   0  418.97   20.96
   4  -2   4    1.54    0.16
   4   2  -4    1.46    0.16
  -4   2   4    1.03    0.19
  -4   4   2    0.95    0.16
   4   4  -2    1.26    0.15
   2  -4   4    1.63    0.19
  -2   4   4    1.21    0.19
   2  -4   4    1.26    0.16
   4  -2   4    1.87    0.19
   4  -4   2    1.63    0.16
  -2  -4   4    0.89    0.14
   4  -4  -2    1.24    0.13
   2   4   4    1.40    0.21
   4  -2  -4    1.28    0.12
   2   4   4    1.29    0.11
  -4  -4   2    1.59    0.21
  -4  -2   4    2.13    0.28
   4   2   4    1.07    0.18
   4   2   4    1.24    0.13
  -2  -4   4    1.48    0.22
   4   4   2    1.54    0.20
   4   4   2    1.28    0.14
   4  -4   4   46.34    2.37
  -4   4   4   44.94    2.53
   4   4  -4   40.38    2.35
   4  -4   4   45.39    2.48
  -4  -4   4   46.38    2.53
   4  -4  -4   46.66    2.30
   4   4   4   42.38    2.55
   4   4   4   46.99    2.31
   5   1  -1    0.00    0.02
  -5   1   1   -0.04    0.06
  -1  -5  -1    0.01    0.03
   5  -1   1    0.01    0.02
   1  -1   5    0.02    0.03
   1  -1   5    0.00    0.05
  -1   1   5    0.05    0.08
   1  -5   1    0.02    0.04
   1  -5  -1    0.08    0.04
  -1  -1   5    0.02    0.05
  -1  -1   5   -0.08    0.06
   1   1   5    0.02    0.07
   1   5   1    0.01    0.04
   5  -1  -1    0.04    0.03
  -1  -5   1    0.01    0.04
  -5  -1   1    0.00    0.06
   5   1   1    0.04    0.05
   5   1   1    0.02    0.03
  -1   5   3    0.89    0.15
   1  -5   3    0.70    0.12
   5  -3   1    1.00    0.12
   5   3  -1    0.98    0.13
  -3   1   5    0.88    0.18
   3  -1   5    0.94    0.16
   3  -1   5    1.18    0.13
  -5   3   1    1.41    0.19
   1   5   3    0.90    0.15
   1   5   3    1.04    0.11
   3  -1  -5    1.18    0.11
   3   1   5    0.89    0.16
   5  -3  -1    1.00    0.12
   5   3   1    0.94    0.15
  -1  -5   3    0.71    0.13
   3   1   5    1.16    0.12
   5   3   1    1.15    0.13
  -3  -1   5    0.89    0.19
  -5   3  -1    0.96    0.13
  -5  -3   1    0.83    0.15
   3  -5   1    1.16    0.15
  -5   1   3    1.00    0.17
   5  -1   3    1.09    0.13
   5   1  -3    1.09    0.13
   1  -3   5    0.70    0.11
  -1   3   5    0.95    0.17
   5  -1   3    1.09    0.16
   1  -3   5    0.68    0.14
   3   5  -1    1.03    0.14
  -3   5   1    0.88    0.13
   5   1   3    1.00    0.12
   1   3   5    1.16    0.18
   3   5   1    1.17    0.16
   3   5   1    1.12    0.13
  -5  -1   3    1.17    0.18
   3  -5  -1    1.15    0.12
  -3  -5   1    0.81    0.14
   5   1   3    1.01    0.16
  -1  -3   5    0.59    0.15
  -1  -3   5    0.76    0.13
   5  -1  -3    1.03    0.12
   3  -3   5    0.01    0.06
  -5   3   3    0.10    0.11
   5  -3   3    0.05    0.04
   5   3  -3    0.00    0.03
  -3   3   5   -0.11    0.10
  -3   5   3   -0.02    0.09
   3   5  -3    0.00    0.05
   3  -5   3    0.01    0.03
   5  -3   3    0.07    0.06
   3  -3   5    0.01    0.04
   3   3   5    0.08    0.09
   3   3   5    0.07    0.03
   3  -5  -3    0.05    0.03
   3   5   3    0.05    0.08
   3   5   3    0.03    0.03
   5  -3  -3    0.04    0.03
  -5  -3   3    0.15    0.11
  -3  -5   3    0.02    0.09
  -3  -3   5   -0.01    0.13
   5   3   3    0.05    0.07
   5   3   3    0.01    0.03
   5  -1   5    0.00    0.03
   5   1  -5    0.04    0.04
  -5   1   5    0.03    0.13
   5  -1   5    0.02    0.07
  -5   5   1    0.10    0.10
   5   5  -1    0.01    0.04
   5  -5   1    0.02    0.03
  -1   5   5   -0.03    0.09
   1  -5   5   -0.10    0.06
   1  -5   5    0.05    0.06
   1   5   5    0.05    0.09
  -1  -5   5   -0.24    0.10
  -1  -5   5    0.13    0.09
   5  -1  -5    0.03    0.03
  -5   5  -1    0.00    0.07
  -5  -5   1   -0.16    0.09
  -5  -1   5    0.04    0.14
   5   1   5    0.00    0.07
   5   1   5    0.02    0.03
   5  -5  -1    0.00    0.03
   5   5   1   -0.04    0.06
   5   5   1    0.02    0.04
   5   5  -3    0.05    0.05
   5  -3   5    0.05    0.05
  -5   3   5    0.02    0.14
  -5   5   3    0.13    0.12
   5  -3   5    0.09    0.08
   5  -5   3    0.11    0.05
  -3   5   5    0.06    0.11
   3  -5   5    0.15    0.07
   3  -5   5    0.08    0.05
   5   3  -5    0.07    0.05
   5  -5   3    0.10    0.05
   5  -5  -3    0.07    0.03
   3   5   5    0.04    0.03
  -3  -5   5    0.07    0.06
   5  -3  -5    0.05    0.03
  -3  -5   5    0.04    0.12
  -5  -3   5    0.21    0.16
   3   5   5    0.10    0.10
   5   3   5    0.04    0.08
   5   3   5    0.04    0.03
  -5  -5   3   -0.05    0.11
   5   5   3    0.00    0.08
   5   5   3    0.05    0.04
   5  -5   5    0.01    0.04
  -5   5   5    0.03    0.11
   5   5  -5    0.00    0.04
   5  -5   5    0.04    0.07
  -5  -5   5   -0.04    0.13
   5  -5  -5   -0.01    0.02
   5   5   5    0.05    0.09
   5   5   5    0.01    0.03
  -6   0   0    0.39    0.11
   0  -6   0    0.27    0.08
   0   0   6    0.53    0.15
   0   0   6    0.30    0.06
   6   0   0    0.27    0.05
   0   6   2   24.02    1.43
   2   0   6   20.73    1.48
   2   0   6   25.44    1.32
   6  -2   0   27.43    1.35
   6   2   0   25.92    1.35
   0  -6   2   23.31    1.44
  -6   2   0   24.64    1.44
  -2   0   6   25.02    1.50
  -2   0   6   27.92    1.37
   0  -6  -2   24.92    1.37
  -6  -2   0   25.16    1.48
   4   0  -6    0.26    0.06
   6  -4   0    0.21    0.05
   4   0   6    0.15    0.05
   6   4   0    0.10    0.04
  -6   4   0    0.32    0.11
  -4   0   6    0.19    0.14
   0  -6   4    0.11    0.09
   0   6   4    0.32    0.11
   4   0   6    0.27    0.12
   0  -2   6   24.45    1.51
  -6   0   2   24.90    1.47
   2   6   0   25.88    1.43
   6   0   2   24.62    1.47
   6   0   2   24.58    1.35
   0  -2   6   23.79    1.41
   6   0  -2   27.21    1.35
   2  -6   0   24.71    1.38
   0   2   6   25.90    1.53
   6  -2   2    8.42    0.56
  -2   6   2    7.80    0.54
   2  -2   6    8.66    0.53
  -6   2   2    7.71    0.57
  -2   2   6    9.92    0.66
   6  -2   2    8.55    0.52
   6   2  -2    9.41    0.53
   2  -6   2    7.22    0.55
   2  -2   6    7.26    0.58
   6  -2  -2    8.37    0.50
   2  -6  -2    8.53    0.50
   2   6   2    8.48    0.56
   2   6   2    8.40    0.50
  -6  -2   2    8.26    0.59
   2   2   6    7.12    0.60
   6   2   2    7.93    0.50
  -2  -6   2    9.23    0.59
  -2  -2   6    8.23    0.62
  -2  -2   6    8.90    0.59
  -2  -6   2    7.69    0.52
   6   2   2    7.96    0.59
   2   2   6    8.35    0.47
   2  -6   4    5.28    0.44
   4  -2   6    5.49    0.44
   4   2  -6    5.63    0.39
  -4   2   6    5.60    0.49
   4  -2   6    4.58    0.36
  -6   4   2    4.84    0.42
   6  -4   2    5.26    0.37
   6   4  -2    5.31    0.38
  -2   6   4    5.59    0.44
   6  -4  -2    5.25    0.35
  -2  -6   4    6.08    0.43
   6   4   2    4.84    0.43
   4   2   6    5.30    0.34
  -6  -4   2    5.18    0.45
  -6   4  -2    4.47    0.37
   6   4   2    5.13    0.36
   4  -2  -6    5.32    0.32
  -2  -6   4    5.03    0.45
   4   2   6    4.26    0.44
   2   6   4    4.77    0.42
  -4  -2   6    5.55    0.48
   2  -6  -4    5.25    0.31
   2   6   4    5.16    0.32
   0  -4   6    0.14    0.11
  -6   0   4    0.19    0.13
   0   4   6    0.19    0.12
  -4   6   0    0.25    0.09
   4   6   0    0.32    0.10
   4  -6   0    0.21    0.05
   6   0  -4    0.20    0.05
   6   0   4    0.27    0.11
   6   0   4    0.13    0.05
   4   6   0    0.08    0.05
   0  -4   6    0.12    0.08
   6  -2   4    5.53    0.42
   6  -2   4    4.88    0.36
   6   2  -4    4.75    0.36
  -4   6   2    5.13    0.39
  -6   2   4    5.01    0.45
  -2   4   6    5.06    0.46
   4  -6   2    4.88    0.38
   4   6  -2    4.94    0.38
   2  -4   6    4.72    0.40
   2  -4   6    4.42    0.40
   4   6   2    5.41    0.35
   6   2   4    5.15    0.44
   2   4   6    5.49    0.47
   2   4   6    5.11    0.30
  -6  -2   4    6.07    0.50
   6   2   4    5.33    0.35
  -4  -6   2    5.53    0.42
   4   6   2    4.62    0.41
  -2  -4   6    4.98    0.45
  -2  -4   6    5.58    0.47
   4  -6  -2    5.36    0.34
   6  -2  -4    4.92    0.34
  -6   4   4    0.93    0.20
   6  -4   4    0.90    0.14
  -4   4   6    0.88    0.19
  -4   6   4    1.05    0.18
   4  -4   6    0.61    0.11
   4   6  -4    0.59    0.11
   4  -4   6    0.88    0.16
  -6  -4   4    1.35    0.23
   4   4   6    0.78    0.18
   4   4   6    0.84    0.12
   4  -6  -4    0.93    0.11
   4   6   4    1.04    0.18
   4   6   4    1.17    0.14
   6  -4  -4    1.13    0.13
  -4  -6   4    0.75    0.17
  -4  -4   6    0.88    0.21
   4  -4  -6    1.20    0.11
   6   4   4    0.89    0.19
   6   4   4    1.16    0.14
  -6   0   6   11.77    0.80
  -6   6   0   10.70    0.68
   0  -6   6    9.77    0.72
   0  -6   6    8.78    0.76
   0   6   6   10.91    0.78
   6  -6   0   10.54    0.65
   6   0  -6   11.35    0.65
   6   0   6   10.11    0.76
   6   0   6   11.24    0.66
   6   6   0   10.97    0.75
   6   6   0   11.44    0.67
   6   6  -2   10.89    0.68
   6  -2   6   11.70    0.68
  -6   2   6   10.71    0.79
   2  -6   6    9.68    0.74
  -6   6   2    9.85    0.69
   6  -6   2   11.51    0.68
   6   2  -6   11.18    0.67
  -2   6   6   10.40    0.77
   2  -6   6    9.72    0.68
   6  -2   6   11.17    0.76
   2   6   6    9.91    0.76
   2   6   6   11.19    0.59
   6  -6  -2   10.34    0.63
  -2  -6   6   11.62    0.75
   6  -2  -6   10.70    0.62
  -6   6  -2   10.18    0.66
  -6  -2   6   10.49    0.78
  -2  -6   6   11.08    0.80
   6   2   6   10.39    0.78
   6   2   6   10.35    0.64
  -6  -6   2   10.52    0.75
   6   6   2   10.49    0.76
   6   6   2   11.27    0.66
   4  -6   6    1.14    0.17
   6   6  -4    0.75    0.13
  -6   4   6    1.02    0.23
  -6   6   4    1.08    0.21
   6  -6   4    0.75    0.12
   6  -4   6    0.94    0.17
  -4   6   6    1.07    0.21
   6   4  -6    0.82    0.13
   6  -4   6    0.64    0.11
   4  -6   6    0.92    0.14
   6  -6   4    1.35    0.16
  -4  -6   6    1.41    0.23
   6  -6  -4    1.02    0.14
   4   6   6    1.23    0.22
  -6  -6   4    1.13    0.22
   6  -4  -6    1.25    0.13
  -4  -6   6    0.79    0.15
   4   6   6    1.06    0.13
   4  -6  -6    1.05    0.10
   6   4   6    1.08    0.22
   6   4   6    1.28    0.16
  -6  -4   6    1.21    0.25
   6   6   4    0.95    0.20
   6   6   4    1.07    0.15
   6  -6   6   38.05    2.13
  -6   6   6   39.57    2.27
   6   6  -6   38.58    2.14
   6  -6   6   39.57    2.19
  -6  -6   6   40.18    2.29
   6  -6  -6   37.85    2.01
   6   6   6   37.09    2.30
   6   6   6   39.96    2.04
   1  -7   1   -0.03    0.05
   1  -1   7   -0.05    0.09
  -7   1   1    0.10    0.11
  -1  -7  -1    0.05    0.06
   7   1  -1    0.04    0.04
   1  -1   7   -0.01    0.03
   7  -1   1   -0.01    0.03
  -1   1   7   -0.01    0.10
  -1   1   7    0.02    0.04
  -1   7   1    0.00    0.05
  -1  -1   7    0.01    0.06
  -7  -1   1   -0.02    0.10
  -7   1  -1   -0.19    0.09
  -1  -1   7   -0.13    0.09
   1   1   7   -0.05    0.08
   1   1   7    0.01    0.03
   1   7   1    0.01    0.06
   7  -1  -1   -0.01    0.03
   1  -7  -1    0.10    0.06
  -1  -7   1    0.05    0.06
   7   1   1    0.05    0.04
   7  -3   1   16.66    0.96
   7   3  -1   17.89    0.97
  -1  -7  -3   18.04    0.96
  -7   3   1   18.20    1.06
  -1   7   3   17.26    1.03
   3  -1   7   14.94    1.09
   1  -7   3   16.14    1.07
   3  -1   7   16.91    0.95
  -3   1   7   15.94    1.10
   1  -7  -3   15.42    0.95
   1   7   3   16.17    1.03
   3   1   7   15.97    1.11
   3  -1  -7   17.00    0.93
   7  -3  -1   17.42    0.95
  -1  -7   3   15.90    1.07
   3   1   7   18.00    0.93
  -7  -3   1   16.67    1.08
  -7   3  -1   16.24    1.02
   7   3   1   18.80    0.97
  -3  -1   7   17.79    1.12
  -3  -1   7   18.20    1.00
   7   3   1   16.81    1.08
   1  -7   5    2.72    0.36
  -1   7   5    2.72    0.32
   7  -5   1    2.87    0.27
   7   5  -1    3.07    0.29
   5   1  -7    3.16    0.27
   5  -1   7    3.05    0.35
  -5   1   7    2.53    0.38
  -7   5   1    3.28    0.32
   5  -1   7    3.33    0.27
   5   1   7    2.94    0.25
  -1  -7   5    3.15    0.33
   7   5   1    3.45    0.28
   7  -5  -1    3.18    0.26
   7   5   1    3.36    0.34
   5   1   7    2.46    0.33
  -7   5  -1    2.54    0.28
  -7  -5   1    2.58    0.35
  -5  -1   7    2.93    0.41
  -1  -7   5    2.98    0.37
   5  -1  -7    3.15    0.25
   1   7   5    2.86    0.32
   7   1  -3   17.99    0.96
   7  -1   3   18.22    0.97
   7  -1   3   15.96    1.04
   3   7  -1   15.53    0.97
  -3   7   1   17.05    0.98
   1  -3   7   17.23    1.02
   3  -7   1   17.68    1.00
  -7   1   3   16.60    1.07
  -1   3   7   17.97    1.13
   1  -3   7   13.87    1.06
   7  -1  -3   17.69    0.95
  -1  -3   7   16.92    1.10
   7   1   3   17.64    0.95
   3   7   1   16.59    1.02
   3   7   1   17.02    0.96
   1   3   7   15.02    1.09
   3  -7  -1   17.13    0.96
  -7  -1   3   16.65    1.07
  -1  -3   7   14.99    1.04
   7   1   3   17.74    1.08
  -7   3   3    0.00    0.14
   3  -3   7    0.03    0.04
   3  -7   3    0.01    0.05
   7  -3   3    0.06    0.07
   7  -3   3    0.02    0.04
   7   3  -3   -0.06    0.04
  -3   7   3    0.05    0.08
  -3   3   7   -0.07    0.12
   3  -3   7   -0.04    0.09
  -3  -3   7    0.07    0.07
   3   3   7    0.00    0.08
   3  -7  -3    0.02    0.03
  -7  -3   3    0.01    0.13
   7   3   3    0.05    0.09
   3   3   7   -0.05    0.02
   3   7   3   -0.01    0.08
   3   7   3    0.02    0.04
   7  -3  -3    0.00    0.03
  -3  -7   3   -0.04    0.09
  -3  -7   3   -0.03    0.05
  -3  -3   7   -0.18    0.12
   7   3   3   -0.02    0.04
  -3   7   5    0.56    0.15
  -7   5   3    0.81    0.19
   5  -3   7    0.36    0.09
   3  -7   5    0.59    0.10
   7  -5   3    0.42    0.09
   7   5  -3    0.30    0.08
   5   3  -7    0.44    0.10
   3  -7   5    0.40    0.11
   5  -3   7    0.61    0.16
  -5   3   7    0.80    0.21
  -5  -3   7    0.80    0.23
   3   7   5    0.79    0.18
   3   7   5    0.49    0.07
   5   3   7    0.43    0.07
   7   5   3    0.54    0.16
   5   3   7    0.45    0.16
   7   5   3    0.33    0.07
   3  -7  -5    0.69    0.09
  -3  -7   5    0.69    0.17
  -3  -7   5    0.49    0.12
   7  -5  -3    0.54    0.08
  -7  -5   3    0.63    0.17
   5  -7   1    3.18    0.28
  -1   5   7    3.21    0.38
   7  -1   5    3.10    0.27
   7   1  -5    2.97    0.27
  -7   1   5    2.97    0.38
  -5   7   1    2.54    0.27
   5   7  -1    2.95    0.29
   1  -5   7    2.96    0.36
   7  -1   5    3.01    0.33
   5  -7  -1    3.07    0.26
   5   7   1    3.13    0.27
   7   1   5    3.07    0.34
   5   7   1    3.02    0.32
  -7  -1   5    3.44    0.42
   7   1   5    3.33    0.27
  -5  -7   1    2.88    0.33
  -5   7  -1    2.92    0.26
   1   5   7    2.98    0.36
  -1  -5   7    2.23    0.35
  -1  -5   7    3.08    0.39
   7  -1  -5    3.46    0.26
   7  -3   5    0.61    0.15
   7  -3   5    0.48    0.09
   7   3  -5    0.34    0.08
   3  -5   7    0.38    0.10
   5  -7   3    0.38    0.09
   5   7  -3    0.45    0.10
  -7   3   5    0.86    0.21
   3  -5   7    0.73    0.16
  -5   7   3    0.75    0.16
  -3   5   7    0.49    0.18
   5   7   3    0.41    0.08
   7   3   5    0.61    0.17
   7  -3  -5    0.43    0.07
   3   5   7    0.42    0.06
   5  -7  -3    0.44    0.07
   7   3   5    0.48    0.08
  -7  -3   5    0.78    0.22
   5   7   3    0.58    0.16
  -5  -7   3    0.58    0.17
  -5   7  -3    0.51    0.09
   3   5   7    0.58    0.19
  -3  -5   7    0.94    0.23
  -3  -5   7    0.56    0.14
   7   5  -5   -0.07    0.06
  -7   5   5   -0.08    0.14
   5  -5   7   -0.06    0.08
   7  -5   5   -0.05    0.07
  -5   5   7   -0.20    0.11
  -5   7   5   -0.11    0.08
   5   7  -5    0.02    0.06
   5  -7   5   -0.04    0.05
   5  -7   5   -0.01    0.04
   7  -5   5   -0.01    0.04
   5  -5   7   -0.05    0.04
  -5  -7   5   -0.03    0.14
   5   5   7   -0.02    0.09
   5  -5  -7    0.06    0.03
   5  -7  -5   -0.05    0.03
   5   7   5   -0.01    0.10
   5   7   5   -0.04    0.04
   7  -5  -5    0.00    0.03
  -5  -5   7   -0.01    0.16
   5   5   7   -0.05    0.03
  -7  -5   5   -0.04    0.13
   7   5   5   -0.09    0.09
   7   5   5    0.01    0.04
   7  -1   7   -0.02    0.04
   7   1  -7    0.00    0.05
  -7   1   7    0.03    0.16
   7  -1   7    0.03    0.09
  -7   7   1    0.10    0.12
   7   7  -1   -0.01    0.06
   7  -7   1    0.01    0.04
  -1   7   7   -0.09    0.11
   1  -7   7   -0.12    0.07
   1  -7   7    0.28    0.11
   1   7   7    0.07    0.12
  -1  -7   7   -0.16    0.11
  -1  -7   7    0.13    0.10
   7  -1  -7   -0.03    0.04
  -7   7  -1   -0.06    0.08
  -7  -7   1   -0.06    0.12
  -7  -1   7    0.05    0.17
   7   1   7   -0.02    0.10
   7   1   7    0.00    0.04
   7  -7  -1   -0.02    0.04
   7   7   1    0.03    0.10
   7   7   1   -0.02    0.05
   7   7  -3   -0.02    0.05
   7  -3   7   -0.06    0.04
  -7   3   7   -0.05    0.14
   3  -7   7   -0.01    0.06
  -7   7   3   -0.14    0.10
   7  -7   3    0.00    0.06
   7   3  -7    0.03    0.06
  -3   7   7   -0.06    0.12
   3  -7   7    0.01    0.08
   7  -3   7   -0.01    0.09
   3   7   7    0.02    0.12
   3   7   7    0.01    0.03
   7  -7  -3   -0.01    0.04
  -3  -7   7   -0.12    0.15
   7  -3  -7    0.03    0.04
  -7   7  -3   -0.04    0.08
  -7  -3   7   -0.04    0.16
  -3  -7   7   -0.01    0.08
   7   3   7   -0.09    0.08
   7   3   7   -0.01    0.04
  -7  -7   3   -0.01    0.13
   7   7   3    0.04    0.11
   7   7   3   -0.02    0.05
   5  -7   7   -0.05    0.08
   7   7  -5    0.01    0.06
  -7   5   7   -0.16    0.11
  -7   7   5   -0.13    0.11
   7  -7   5   -0.01    0.05
   7  -5   7   -0.02    0.10
  -5   7   7    0.13    0.12
   7   5  -7   -0.03    0.06
   7  -5   7   -0.02    0.06
   5  -7   7    0.03    0.07
   7  -7   5    0.00    0.06
  -5  -7   7    0.21    0.17
   7  -7  -5   -0.03    0.03
   5   7   7   -0.06    0.11
  -7  -7   5   -0.06    0.14
   7  -5  -7   -0.01    0.04
  -5  -7   7   -0.07    0.08
   5   7   7   -0.04    0.04
   5  -7  -7   -0.01    0.02
   7   5   7    0.08    0.13
   7   5   7   -0.02    0.04
  -7  -5   7   -0.11    0.16
   7   7   5   -0.07    0.11
   7   7   5   -0.08    0.04
   7  -7   7   -0.04    0.06
  -7   7   7   -0.03    0.13
   7   7  -7   -0.06    0.07
   7  -7   7   -0.06    0.08
  -7  -7   7   -0.22    0.16
   7  -7  -7    0.02    0.04
   7   7   7   -0.02    0.13
   7   7   7   -0.01    0.05
  -8   0   0 1000.00   48.84
   0  -8   0  951.95   45.95
   0   0   8  830.14   48.87
   0   0   8  960.12   45.89
   0   8   0  869.39   48.87
   8   0   0  909.78   45.86
  -2   0   8    0.38    0.17
  -2   0   8    0.13    0.09
   0  -8  -2    0.58    0.11
   0  -8   2    0.38    0.12
   0   8   2    0.51    0.12
   2   0   8    0.13    0.15
   2   0   8    0.31    0.07
   8  -2   0    0.34    0.07
   8   2   0    0.23    0.07
  -8  -2   0    0.56    0.19
  -8   2   0    0.48    0.15
  -4   0   8  214.05   10.96
   0  -8  -4  200.89   10.22
  -8  -4   0  220.23   10.96
  -8   4   0  201.08   10.86
   4   0  -8  192.61   10.19
   4   0   8  180.66   10.94
   4   0   8  201.81   10.18
   8  -4   0  212.75   10.21
   8   4   0  216.73   10.22
   0   8   4  202.20   10.88
   0  -8   4  185.24   10.35
   0   8   6    0.29    0.14
   0  -8   6    0.10    0.10
   6   0   8    0.14    0.06
   8  -6   0    0.12    0.06
   8   6   0    0.08    0.06
   0  -8   6    0.07    0.12
  -6   0   8    0.39    0.18
   0  -8  -6    0.30    0.06
   6   0   8    0.24    0.14
   6   0  -8    0.14    0.06
  -8   6   0    0.23    0.12
   8   0   2    0.64    0.14
   2  -8   0    0.30    0.11
   2   8   0    0.46    0.11
  -2  -8   0    0.58    0.12
   0  -2   8    0.55    0.19
   0  -2   8    0.33    0.09
   8   0  -2    0.23    0.07
  -8   0   2    0.36    0.17
   8   0   2    0.24    0.06
   0   2   8    0.28    0.05
   0   2   8    0.50    0.18
   8   2  -2    4.07    0.33
   8  -2   2    4.10    0.33
   2  -8   2    3.93    0.39
  -2   8   2    4.07    0.33
   2  -2   8    3.45    0.41
  -8   2   2    4.47    0.43
  -2  -8  -2    4.60    0.35
  -2   2   8    3.95    0.31
  -2   2   8    3.89    0.43
   2  -2   8    4.00    0.34
   2  -8  -2    4.26    0.34
   8   2   2    4.54    0.42
  -2  -8   2    3.98    0.40
  -2  -8   2    3.65    0.32
   2   2   8    4.09    0.27
  -8  -2   2    3.90    0.41
  -2  -2   8    4.41    0.46
  -2  -2   8    3.80    0.40
   2   2   8    4.34    0.46
   2   8   2    4.30    0.36
   8  -2  -2    4.02    0.31
   8   2   2    4.02    0.32
  -2   8   4    0.44    0.15
   2  -8   4    0.29    0.12
  -4   2   8    0.49    0.19
   8   4  -2    0.23    0.07
  -8   4   2    0.44    0.15
   4  -2   8    0.93    0.19
   4  -2  -8    0.46    0.07
  -4  -2   8    0.98    0.23
   8  -4  -2    0.37    0.07
   2  -8  -4    0.29    0.07
  -2  -8   4    0.46    0.15
   2   8   4    0.64    0.16
   8   4   2    0.48    0.16
   8   4   2    0.32    0.08
  -8  -4   2    0.68    0.21
   4   2   8    0.31    0.06
   4   2   8    0.60    0.18
  -8   4  -2    0.48    0.15
   6   2  -8    0.59    0.11
  -8   6   2    0.95    0.19
   6  -2   8    0.66    0.18
   6  -2   8    0.45    0.09
   2  -8   6    0.62    0.15
  -6   2   8    0.82    0.22
   2  -8   6    0.74    0.12
  -2   8   6    1.09    0.21
   8   6  -2    0.64    0.11
   8  -6   2    0.42    0.09
  -8  -6   2    0.90    0.21
  -2  -8   6    0.58    0.16
   8   6   2    0.48    0.09
  -8   6  -2    0.80    0.15
  -6  -2   8    0.63    0.23
   8   6   2    0.93    0.20
  -2  -8   6    0.72    0.19
   8  -6  -2    0.57    0.09
   6   2   8    0.37    0.16
   6   2   8    0.44    0.08
   2   8   6    0.75    0.19
   8   0   4  218.72   10.85
   4   8   0  189.88   10.13
  -8   0   4  212.80   10.84
  -4   8   0  201.74   10.72
   0  -4   8  179.84   10.84
   0  -4   8  189.67   10.23
   0   4   8  192.11   10.88
   8   0   4  217.23   10.13
   8   0  -4  203.62   10.11
   4  -8   0  214.32   10.15
   4   8   0  190.07   10.77
  -8   2   4    0.55    0.20
  -4   8   2    0.52    0.12
   4   8  -2    0.41    0.09
  -2   4   8    0.36    0.17
   2  -4   8    0.46    0.12
   8   2  -4    0.34    0.08
   4  -8   2    0.56    0.10
   2  -4   8    0.37    0.17
   8  -2   4    0.62    0.10
  -4  -8   2    0.67    0.17
   2   4   8    0.29    0.05
   8   2   4    0.22    0.07
   8  -2  -4    0.38    0.08
   2   4   8    0.60    0.20
   8   2   4    0.60    0.17
   4   8   2    0.60    0.15
   4   8   2    0.42    0.08
  -8  -2   4    0.92    0.21
  -2  -4   8    0.34    0.14
  -2  -4   8    0.63    0.20
   4  -8  -2    0.37    0.07
   8  -4   4  260.96   13.59
   4  -4   8  275.35   13.63
   4  -4   8  268.43   14.51
   8   4  -4  267.68   13.60
   8  -4   4  274.15   14.45
  -4   4   8  252.79   14.53
  -4   8   4  278.95   14.47
  -8   4   4  266.85   14.49
   4  -8   4  261.28   13.66
  -4  -4   8  283.00   14.54
   4  -8  -4  278.22   13.54
   8  -4  -4  277.73   13.56
  -4  -4   8  267.92   13.67
   4   4   8  253.58   14.57
   4   4   8  275.28   13.52
   4  -4  -8  275.08   13.53
   4   8   4  282.09   13.55
   8   4   4  270.49   13.57
   4   8   4  255.45   14.49
  -8  -4   4  258.23   14.51
   8   4   4  266.95   14.55
  -4  -8   4  271.75   14.45
  -4  -8   4  297.33   13.70
   6  -4   8    0.15    0.07
  -6   4   8    0.13    0.16
   6  -4   8    0.43    0.16
   6   4  -8    0.13    0.08
   4  -8   6    0.17    0.07
   8   6  -4    0.19    0.08
  -8   6   4    0.25    0.16
   4  -8   6    0.21    0.09
   8  -6   4    0.19    0.07
  -4   8   6    0.30    0.14
   6   4   8    0.16    0.05
  -6  -4   8    0.38    0.21
   8   6   4    0.25    0.14
  -4  -8   6    0.19    0.16
   4   8   6    0.08    0.12
   4   8   6    0.18    0.05
   6   4   8    0.14    0.14
   4  -8  -6    0.23    0.04
  -8  -6   4    0.25    0.18
   8   6   4    0.13    0.06
   8  -6  -4    0.08    0.05
  -4  -8   6    0.20    0.11
   6  -4  -8    0.14    0.05
   8   0  -6    0.08    0.05
   6   8   0    0.16    0.07
   8   0   6    0.25    0.12
   8   0   6    0.10    0.06
   6   8   0    0.09    0.11
  -8   0   6    0.39    0.18
  -6   8   0    0.22    0.11
   0  -6   8    0.13    0.13
   0  -6   8    0.18    0.12
   0   6   8    0.27    0.17
   6  -8   0    0.17    0.06
   8  -2   6    0.59    0.10
   8  -2   6    0.86    0.19
   6   8  -2    0.47    0.11
   6  -8   2    0.59    0.11
  -6   8   2    0.86    0.17
   2  -6   8    0.71    0.17
  -2   6   8    1.01    0.22
   2  -6   8    0.45    0.13
  -8   2   6    1.02    0.25
  -8  -2   6    0.68    0.22
   8   2   6    0.49    0.09
   8  -2  -6    0.42    0.09
  -6  -8   2    0.82    0.20
   6   8   2    0.86    0.20
   6   8   2    0.43    0.09
   2   6   8    0.98    0.23
  -2  -6   8    0.69    0.17
   8   2   6    0.71    0.20
   6  -8  -2    0.51    0.09
  -2  -6   8    0.87    0.22
  -6   8  -2    0.78    0.13
   4  -6   8    0.21    0.13
   8   4  -6    0.16    0.08
  -4   6   8    0.33    0.17
   8  -4   6    0.17    0.12
   8  -4   6    0.16    0.07
   6   8  -4    0.19    0.09
  -6   8   4    0.16    0.12
   6  -8   4    0.19    0.08
   4  -6   8    0.12    0.08
  -8   4   6    0.25    0.17
   8   4   6    0.26    0.15
  -4  -6   8    0.23    0.11
   4   6   8    0.37    0.17
   4   6   8    0.12    0.05
   6  -8  -4    0.15    0.05
  -4  -6   8    0.22    0.18
  -6   8  -4    0.32    0.09
   6   8   4    0.22    0.13
   6   8   4    0.20    0.07
   8  -4  -6    0.18    0.06
  -8  -4   6    0.30    0.19
   8   4   6    0.18    0.07
  -6  -8   4    0.46    0.17
   6  -6   8    4.21    0.43
  -8   6   6    4.68    0.49
   8  -6   6    4.78    0.41
   8  -6   6    5.06    0.43
  -6   6   8    4.99    0.50
  -6   8   6    4.80    0.46
   6  -6   8    5.37    0.45
   6  -8   6    4.60    0.37
   6  -8   6    5.38    0.47
   8   6  -6    5.45    0.45
   6  -8  -6    4.78    0.33
   6  -6  -8    4.96    0.32
   6   6   8    5.02    0.53
   6   6   8    5.16    0.36
   6   8   6    4.01    0.49
   6   8   6    5.33    0.37
   8  -6  -6    4.94    0.36
  -6  -8   6    5.57    0.54
  -6  -6   8    5.61    0.56
  -8  -6   6    5.11    0.56
   8   6   6    4.91    0.52
   8   6   6    4.77    0.38
  -8   0   8  378.72   18.96
  -8   8   0  351.05   18.81
   0  -8   8  340.78   18.87
   0  -8   8  299.33   17.87
   0   8   8  352.68   18.95
   8  -8   0  363.18   17.72
   8   0  -8  363.27   17.70
   8   0   8  360.12   18.96
   8   0   8  348.65   17.70
   8   8   0  373.49   17.74
   8   8  -2    0.18    0.08
   8  -2   8    0.24    0.08
  -8   2   8    0.87    0.25
   2  -8   8    0.15    0.14
  -8   8   2    0.45    0.16
   8  -8   2    0.34    0.09
   8   2  -8    0.20    0.09
  -2   8   8    0.20    0.19
   2  -8   8    0.25    0.16
   8  -2   8    0.67    0.19
   2   8   8    0.10    0.17
   8  -8  -2    0.55    0.10
  -2  -8   8    0.82    0.22
   8  -2  -8    0.29    0.07
  -8   8  -2    0.07    0.14
  -8  -2   8    0.57    0.23
  -2  -8   8    0.13    0.15
   8   2   8    0.39    0.09
  -8  -8   2    0.05    0.20
   8   8   2    0.18    0.16
   8   8   2    0.29    0.08
   8   8  -4  206.27   11.19
   8  -4   8  234.69   11.20
  -8   4   8  226.07   11.96
   4  -8   8  208.69   11.27
  -8   8   4  211.31   11.87
   8  -8   4  210.54   11.19
   8   4  -8  212.59   11.18
  -4   8   8  224.18   11.96
   4  -8   8  228.10   11.84
   8  -4   8  228.48   11.92
   4   8   8  221.23   11.99
   4   8   8  228.84   11.07
   8  -8  -4  230.57   11.12
  -4  -8   8  228.56   11.92
   8  -4  -8  220.78   11.10
  -8   8  -4  209.23   11.80
  -8  -4   8  234.40   11.98
  -4  -8   8  212.19   11.31
   8   4   8  208.00   11.99
   8   4   8  220.17   11.12
  -8  -8   4  223.35   11.94
   8   8   4  225.32   11.97
   8   8   4  229.13   11.14
   6  -8   8    0.47    0.14
   8   8  -6    0.31    0.12
  -8   6   8    0.63    0.21
  -8   8   6    0.60    0.20
   8  -8   6    0.30    0.11
   8  -6   8    0.40    0.14
  -6   8   8    0.55    0.21
   8   6  -8    0.28    0.11
   8  -6   8    0.26    0.10
   6  -8   8    0.22    0.11
   8  -8   6    0.26    0.11
  -6  -8   8    0.45    0.23
   8  -8  -6    0.23    0.07
   6   8   8    0.36    0.21
  -8  -8   6    0.27    0.23
   8  -6  -8    0.29    0.07
  -6  -8   8    0.27    0.13
   6   8   8    0.33    0.08
   6  -8  -8    0.27    0.05
   8   6   8    0.54    0.21
   8   6   8    0.18    0.07
  -8  -6   8    0.53    0.25
   8   8   6    0.45    0.19
   8   8   6    0.33    0.09
   8  -8   8  291.48   15.29
  -8   8   8  305.42   16.24
   8   8  -8  302.14   15.29
   8  -8   8  295.89   16.14
  -8  -8   8  311.38   16.28
   8  -8  -8  303.81   15.12
   8   8   8  297.23   16.31
   8   8   8  310.02   15.16
  -9  -1  -1   -0.20    0.11
   9   1  -1    0.08    0.05
   1   9  -1   -0.02    0.05
  -9   1   1    0.01    0.11
  -1  -9  -1    0.08    0.07
   9  -1   1    0.01    0.04
   1  -1   9    0.08    0.06
   1  -1   9    0.00    0.13
  -1   1   9   -0.13    0.11
  -1   1   9    0.06    0.05
  -1   9   1   -0.02    0.06
   1  -9   1   -0.02    0.08
   1  -9  -1    0.00    0.07
  -1  -1   9   -0.02    0.07
  -1  -1   9   -0.10    0.09
   1   1   9   -0.09    0.11
   1   1   9    0.03    0.03
  -9   1  -1   -0.07    0.12
   1   9   1    0.02    0.07
   9  -1  -1    0.04    0.05
  -1  -9   1   -0.03    0.07
  -9  -1   1    0.05    0.13
   9   1   1    0.01    0.05
   3  -1   9    0.31    0.17
   3  -1   9    0.18    0.06
   9  -3   1    0.27    0.07
   9   3  -1    0.18    0.07
  -9   3   1    0.33    0.15
   1  -9   3    0.28    0.12
  -1  -9  -3    0.22    0.09
  -3   1   9    0.26    0.17
  -3   1   9    0.27    0.09
  -1   9   3    0.38    0.12
  -1  -9   3    0.44    0.14
  -3  -1   9    0.29    0.10
   1  -9  -3    0.26    0.08
  -3  -1   9    0.23    0.16
   1   9   3    0.25    0.11
   3   1   9    0.33    0.06
   9  -3  -1    0.20    0.07
   3   1   9    0.49    0.18
   9   3   1    0.22    0.07
  -9  -3   1    0.28    0.15
  -9   3  -1    0.36    0.15
  -5   1   9    0.59    0.20
  -1  -9  -5    0.54    0.10
   1  -9   5    0.32    0.13
   5   1  -9    0.42    0.10
  -1   9   5    0.71    0.18
   9   5  -1    0.41    0.09
  -9   5   1    0.85    0.19
   5  -1   9    0.50    0.09
   9  -5   1    0.51    0.10
   5  -1   9    0.46    0.18
  -1  -9   5    0.81    0.17
   5  -1  -9    0.47    0.09
   5   1   9    0.76    0.22
   5   1   9    0.43    0.08
   9  -5  -1    0.54    0.10
  -1  -9   5    0.38    0.14
   1  -9  -5    0.61    0.09
   9   5   1    0.98    0.21
   9   5   1    0.44    0.09
  -9   5  -1    0.64    0.16
  -9  -5   1    0.62    0.22
  -5  -1   9    0.69    0.23
   1   9   5    0.79    0.18
   7  -1   9    6.76    0.48
   9  -7   1    6.63    0.49
   9   7  -1    6.20    0.49
   7   1  -9    6.42    0.48
  -1  -9  -7    6.59    0.43
  -9   7   1    6.99    0.54
   7  -1   9    6.17    0.60
  -7   1   9    5.86    0.60
  -1   9   7    6.35    0.58
   1  -9   7    5.52    0.47
   1  -9   7    5.88    0.61
  -9   7  -1    6.56    0.51
   1  -9  -7    6.61    0.39
  -1  -9   7    7.12    0.54
  -1  -9   7    5.92    0.62
   1   9   7    6.36    0.59
   7  -1  -9    6.73    0.46
  -7  -1   9    6.58    0.62
   9   7   1    6.32    0.59
   7   1   9    6.42    0.46
   9  -7  -1    6.05    0.46
  -9  -7   1    5.62    0.57
   7   1   9    6.31    0.63
   9   7   1    6.98    0.50
   1  -3   9    0.33    0.17
  -1   3   9    0.17    0.15
  -3   9   1    0.29    0.09
  -9   1   3    0.48    0.19
   3  -9   1    0.21    0.09
   9  -1   3    0.21    0.07
   9   1  -3    0.18    0.06
   9  -1   3    0.44    0.14
   1  -3   9    0.32    0.10
  -1  -3   9    0.18    0.11
  -9  -1   3    0.36    0.17
   3  -9  -1    0.43    0.10
  -3  -9   1    0.31    0.10
   1   3   9    0.21    0.04
  -1  -3   9    0.21    0.19
   1   3   9    0.35    0.17
   9   1   3    0.26    0.12
   9   1   3    0.27    0.07
   9  -1  -3    0.20    0.07
   3   9   1    0.22    0.10
   9  -3   3   -0.02    0.04
  -3   9   3   -0.08    0.08
   3  -9   3    0.03    0.07
  -9   3   3    0.04    0.15
  -3   3   9   -0.17    0.10
   9   3  -3   -0.04    0.04
   3  -3   9   -0.09    0.11
   3  -3   9    0.03    0.05
  -3   3   9    0.01    0.05
   9   3   3   -0.04    0.09
   3   9   3   -0.02    0.08
  -3  -9   3   -0.11    0.09
  -3  -3   9    0.10    0.09
  -9  -3   3   -0.01    0.12
   3   3   9   -0.03    0.14
   3   3   9   -0.03    0.03
  -3  -9   3    0.00    0.08
  -3  -3   9   -0.14    0.14
   3   9   3   -0.12    0.05
   9  -3  -3    0.00    0.04
   9   3   3    0.00    0.05
   3  -9  -3    0.05    0.05
   9  -5   3    0.04    0.05
  -9   5   3   -0.04    0.15
  -5   3   9   -0.09    0.14
   9   5  -3    0.00    0.05
  -3   9   5    0.11    0.11
   5  -3   9    0.01    0.05
   3  -9   5    0.06    0.08
   5  -3   9    0.00    0.11
  -3  -9   5    0.11    0.10
   5  -3  -9    0.04    0.04
   9   5   3    0.00    0.05
  -9   5  -3    0.00    0.10
  -3  -9   5    0.16    0.14
  -5  -3   9   -0.07    0.15
   9  -5  -3    0.02    0.04
  -9  -5   3    0.04    0.15
   3   9   5    0.00    0.11
   3   9   5   -0.01    0.05
   9   5   3   -0.07    0.11
   5   3   9    0.02    0.04
   3  -9  -5    0.06    0.04
   5   3   9    0.14    0.13
   7   3  -9    0.07    0.08
   3  -9   7    0.11    0.09
   3  -9   7    0.16    0.11
  -3   9   7    0.08    0.13
   7  -3   9    0.11    0.08
  -7   3   9    0.13    0.17
   7  -3   9    0.10    0.14
   9   7  -3    0.01    0.09
  -9   7   3   -0.03    0.15
   9  -7   3    0.06    0.07
   9   7   3    0.03    0.06
  -9   7  -3    0.15    0.11
  -3  -9   7    0.11    0.15
  -3  -9   7    0.12    0.11
   3   9   7   -0.03    0.15
   9  -7  -3    0.08    0.06
   7   3   9    0.00    0.05
   7  -3  -9   -0.03    0.05
  -7  -3   9   -0.11    0.17
   7   3   9    0.04    0.16
   3   9   7   -0.05    0.05
  -9  -7   3    0.01    0.15
   9   7   3    0.06    0.15
   3  -9  -7    0.08    0.03
   1  -5   9    0.34    0.12
  -9   1   5    0.58    0.21
   9  -1   5    0.85    0.20
   9  -1   5    0.45    0.10
   5   9  -1    0.36    0.10
   1  -5   9    0.44    0.18
   5  -9   1    0.55    0.11
   9   1  -5    0.52    0.10
  -1   5   9    0.79    0.23
  -5   9   1    0.69    0.13
   9  -1  -5    0.53    0.09
   5  -9  -1    0.57    0.10
  -9  -1   5    0.79    0.22
  -1  -5   9    0.26    0.12
   5   9   1    0.73    0.16
   5   9   1    0.44    0.10
   1   5   9    0.60    0.21
  -1  -5   9    0.34    0.18
   9   1   5    0.71    0.19
   9   1   5    0.58    0.10
   5   9  -3    0.02    0.07
  -5   9   3    0.02    0.09
  -9   3   5    0.05    0.17
  -3   5   9   -0.01    0.13
   9  -3   5    0.04    0.10
   9  -3   5    0.04    0.06
   9   3  -5   -0.03    0.05
   5  -9   3    0.02    0.06
   3  -5   9    0.01    0.07
   3  -5   9    0.05    0.13
  -9  -3   5    0.03    0.17
  -3  -5   9   -0.07    0.08
   5  -9  -3    0.04    0.04
  -5  -9   3    0.09    0.12
  -3  -5   9   -0.11    0.14
   3   5   9    0.17    0.16
   5   9   3    0.07    0.12
   5   9   3    0.03    0.05
   9  -3  -5    0.00    0.04
   3   5   9    0.03    0.03
   9   3   5   -0.04    0.05
   9   3   5    0.02    0.12
   9  -5   5    0.06    0.06
   9  -5   5   -0.02    0.08
   5  -5   9    0.01    0.11
  -5   5   9   -0.04    0.15
  -5   9   5   -0.08    0.10
   9   5  -5    0.00    0.07
   5  -9   5    0.07    0.08
   5  -5   9    0.03    0.06
  -9   5   5   -0.17    0.15
   5  -5  -9   -0.01    0.03
   5   5   9   -0.01    0.12
   5  -9  -5    0.00    0.03
  -5  -5   9    0.00    0.09
  -5  -9   5    0.02    0.14
  -5  -9   5   -0.05    0.08
  -5  -5   9   -0.08    0.18
  -9  -5   5   -0.14    0.12
   5   9   5    0.00    0.12
   5   5   9   -0.02    0.04
   9   5   5    0.01    0.05
   5   9   5   -0.02    0.05
   9  -5  -5   -0.01    0.04
   9   5   5    0.00    0.11
   9   7  -5    0.71    0.15
   7   5  -9    0.60    0.15
  -9   7   5    0.84    0.24
   9  -7   5    0.71    0.14
   5  -9   7    0.86    0.18
  -5   9   7    1.32    0.24
   7  -5   9    1.30    0.23
   7  -5   9    0.65    0.14
  -7   5   9    0.83    0.24
   5  -9   7    1.27    0.16
  -7  -5   9    1.27    0.31
   5   9   7    1.23    0.17
   7   5   9    1.18    0.16
   9  -7  -5    0.70    0.12
   9   7   5    1.39    0.28
   9   7   5    0.70    0.12
   7   5   9    1.16    0.28
  -5  -9   7    0.90    0.19
  -9  -7   5    1.19    0.29
   5   9   7    1.26    0.26
  -5  -9   7    1.42    0.29
   1  -7   9    7.04    0.64
  -1   7   9    6.40    0.61
   7  -9   1    6.45    0.50
   7   9  -1    5.71    0.49
   9   1  -7    6.41    0.47
  -7   9   1    5.10    0.47
   9  -1   7    6.87    0.49
   9  -1   7    6.50    0.58
  -9   1   7    6.68    0.61
   1  -7   9    5.82    0.56
   7   9   1    6.64    0.56
   1   7   9    6.78    0.63
   7  -9  -1    6.97    0.48
  -7   9  -1    5.97    0.46
   9  -1  -7    6.15    0.45
  -9  -1   7    5.96    0.61
   9   1   7    6.21    0.59
   9   1   7    6.96    0.49
  -1  -7   9    5.68    0.61
   7   9   1    6.96    0.50
  -1  -7   9    5.96    0.58
  -7  -9   1    6.23    0.58
  -7   9   3   -0.08    0.13
   7   9  -3   -0.05    0.08
   9  -3   7    0.12    0.08
  -9   3   7   -0.07    0.17
   7  -9   3    0.13    0.07
   3  -7   9    0.07    0.10
   9   3  -7   -0.03    0.07
   3  -7   9    0.04    0.13
  -3   7   9    0.06    0.13
   9  -3   7    0.15    0.13
  -7  -9   3    0.07    0.15
   9  -3  -7    0.04    0.06
   7   9   3    0.06    0.07
  -9  -3   7    0.25    0.20
   7  -9  -3    0.05    0.05
   9   3   7    0.08    0.14
   3   7   9    0.06    0.04
   9   3   7    0.05    0.06
   3   7   9    0.02    0.16
  -7   9  -3    0.19    0.10
   7   9   3    0.04    0.12
  -3  -7   9   -0.27    0.16
  -3  -7   9    0.11    0.12
  -7   9   5    1.12    0.22
  -9   5   7    1.13    0.29
   9  -5   7    0.91    0.15
   9   5  -7    0.60    0.15
   9  -5   7    1.16    0.22
   7  -9   5    0.78    0.16
   7   9  -5    0.61    0.15
   5  -7   9    1.31    0.22
   5  -7   9    0.80    0.16
  -5   7   9    1.15    0.25
   9   5   7    1.18    0.27
  -5  -7   9    1.03    0.27
  -5  -7   9    1.02    0.20
  -7  -9   5    0.95    0.25
   5  -7  -9    0.91    0.12
  -9  -5   7    1.24    0.32
   9   5   7    0.65    0.11
   5   7   9    0.98    0.27
   5   7   9    1.24    0.15
   7  -9  -5    1.32    0.17
   7   9   5    0.72    0.12
   9  -5  -7    1.35    0.17
   7   9   5    1.06    0.24
   7  -7   9   -0.03    0.07
  -9   7   7   -0.19    0.17
   9  -7   7   -0.12    0.09
   9  -7   7   -0.14    0.07
  -7   7   9   -0.09    0.14
  -7   9   7   -0.03    0.13
   7  -7   9   -0.05    0.10
   7  -9   7   -0.04    0.07
   7  -9   7   -0.03    0.07
   9   7  -7   -0.13    0.08
   7  -9  -7   -0.05    0.04
   7  -7  -9   -0.04    0.04
   7   7   9   -0.17    0.17
   7   7   9    0.06    0.06
   7   9   7   -0.04    0.14
   7   9   7   -0.07    0.06
   9  -7  -7    0.00    0.05
  -7  -9   7   -0.05    0.18
  -7  -7   9   -0.45    0.21
  -9  -7   7   -0.06    0.20
   9   7   7   -0.26    0.12
   9   7   7    0.04    0.06
   9  -1   9   -0.02    0.06
   9   1  -9   -0.01    0.07
  -9   1   9   -0.19    0.20
   9  -1   9   -0.16    0.12
  -9   9   1    0.04    0.15
   9   9  -1   -0.03    0.08
   9  -9   1    0.01    0.06
  -1   9   9   -0.16    0.14
   1  -9   9   -0.11    0.11
   1  -9   9   -0.08    0.09
   1   9   9   -0.05    0.15
  -1  -9   9   -0.09    0.14
  -1  -9   9   -0.04    0.12
   9  -1  -9   -0.01    0.06
  -9   9  -1   -0.11    0.12
  -9  -9   1   -0.23    0.16
  -9  -1   9   -0.25    0.19
   9   1   9   -0.14    0.12
   9   1   9   -0.04    0.06
   9  -9  -1   -0.08    0.05
   9   9   1    0.02    0.13
   9   9   1   -0.05    0.07
   9   9  -3   -0.18    0.07
   9  -3   9   -0.02    0.05
  -9   3   9   -0.01    0.19
   3  -9   9    0.02    0.11
  -9   9   3   -0.18    0.13
   9  -9   3   -0.06    0.06
   9   3  -9   -0.09    0.07
  -3   9   9   -0.11    0.15
   3  -9   9   -0.03    0.10
   9  -3   9   -0.17    0.11
   3   9   9   -0.03    0.16
   3   9   9   -0.01    0.05
   9  -9  -3   -0.03    0.05
  -3  -9   9    0.14    0.18
   9  -3  -9   -0.02    0.05
  -9   9  -3   -0.12    0.10
  -9  -3   9    0.07    0.23
  -3  -9   9   -0.04    0.10
   9   3   9   -0.13    0.11
   9   3   9   -0.05    0.05
  -9  -9   3    0.01    0.18
   9   9   3    0.06    0.14
   9   9   3   -0.03    0.06
   9  -5   9    0.04    0.08
   9   9  -5    0.00    0.08
  -9   5   9   -0.13    0.20
   9   5  -9   -0.07    0.08
  -9   9   5   -0.19    0.14
   9  -5   9   -0.02    0.12
   5  -9   9    0.06    0.09
  -5   9   9   -0.27    0.13
   9  -9   5    0.01    0.07
   5  -9   9   -0.04    0.09
  -9  -9   5   -0.04    0.18
   5   9   9   -0.06    0.13
   5   9   9    0.01    0.05
   9  -9  -5   -0.04    0.04
   5  -9  -9   -0.04    0.03
   9  -5  -9   -0.08    0.04
  -5  -9   9    0.04    0.19
  -5  -9   9   -0.07    0.11
  -9   9  -5    0.04    0.10
   9   5   9   -0.13    0.14
   9   5   9   -0.01    0.05
  -9  -5   9    0.10    0.25
   9   9   5   -0.10    0.12
   9   9   5   -0.02    0.06
   9   9  -7   -0.07    0.10
   9  -7   9   -0.03    0.08
  -9   7   9   -0.16    0.16
  -9   9   7   -0.30    0.16
   9  -7   9   -0.02    0.11
   9  -9   7   -0.21    0.08
  -7   9   9   -0.24    0.16
   9   7  -9    0.04    0.10
   7  -9   9    0.02    0.09
   7  -9   9   -0.13    0.08
   9  -9   7   -0.13    0.09
   7  -9  -9   -0.09    0.04
   9  -9  -7   -0.03    0.05
  -7  -9   9   -0.04    0.11
   7   9   9   -0.34    0.16
  -7  -9   9    0.11    0.24
  -9  -7   9    0.08    0.26
   7   9   9   -0.04    0.06
   9   7   9   -0.07    0.16
   9   7   9   -0.12    0.06
  -9  -9   7   -0.09    0.23
   9   9   7   -0.12    0.16
   9   9   7   -0.05    0.07
   9  -9   9    0.01    0.11
  -9   9   9   -0.08    0.18
   9   9  -9   -0.20    0.10
   9  -9   9   -0.16    0.09
  -9  -9   9   -0.38    0.23
   9  -9  -9   -0.10    0.05
   9   9   9   -0.14    0.18
   9   9   9   -0.08    0.07
 -10   0   0    0.43    0.17
   0 -10   0    0.45    0.13
   0   0  10    0.48    0.22
   0   0  10    0.43    0.09
   0  10   0    0.31    0.09
  10   0   0    0.33    0.08
   0 -10   2   26.78    1.51
   0  10   2   21.28    1.37
   2   0  10   22.48    1.55
   2   0  10   24.18    1.30
  10  -2   0   24.91    1.34
  10   2   0   22.47    1.33
 -10  -2   0   23.56    1.50
 -10   2   0   23.96    1.46
  -2   0  10   25.38    1.58
  -2   0  10   21.98    1.37
   0 -10  -2   23.99    1.40
 -10   4   0    0.42    0.16
  -4   0  10    0.28    0.18
  -4   0  10    0.35    0.10
   0 -10  -4    0.33    0.10
   0 -10   4    0.32    0.14
   0  10   4    0.26    0.13
   4   0  10    0.31    0.18
   4   0  10    0.40    0.08
  10  -4   0    0.31    0.08
  10   4   0    0.14    0.07
 -10  -4   0    0.31    0.17
   0 -10  -6   40.54    2.12
   0 -10   6   41.16    2.23
   0 -10   6   41.85    2.38
  -6   0  10   37.09    2.38
   6   0 -10   40.80    2.14
   6   0  10   36.26    2.40
   6   0  10   39.18    2.12
  10  -6   0   39.08    2.15
  10   6   0   40.43    2.16
 -10  -6   0   41.34    2.42
 -10   6   0   38.82    2.28
   0  10   6   39.96    2.34
   0 -10   8    0.44    0.18
  10  -8   0    0.36    0.09
  -8   0  10    0.25    0.22
   8   0  10    0.38    0.19
   0  10   8    0.17    0.17
   0 -10  -8    0.19    0.06
   0 -10   8    0.59    0.18
   8   0 -10    0.18    0.08
   8   0  10    0.29    0.09
 -10  -8   0    0.41    0.24
 -10   8   0    0.20    0.16
  10   8   0    0.09    0.08
   0   2  10   22.43    1.56
   2  10   0   21.86    1.37
   0  -2  10   25.84    1.40
 -10   0   2   22.36    1.47
  -2 -10   0   24.87    1.42
   2 -10   0   23.66    1.41
   0  -2  10   23.90    1.57
   0   2  10   23.30    1.26
  10   0  -2   23.33    1.33
  10   0   2   25.14    1.35
  -2  10   2   12.00    0.76
 -10   2   2   13.73    0.89
   2  -2  10   11.46    0.76
  -2   2  10   11.86    0.94
  -2   2  10   12.69    0.74
   2  -2  10    9.47    0.88
  10  -2   2   11.26    0.76
  10   2  -2   12.18    0.76
   2 -10   2    9.92    0.82
  -2 -10  -2   14.11    0.82
   2   2  10   12.08    0.94
  10   2   2   13.47    0.89
   2  10   2   11.26    0.78
 -10   2  -2   10.70    0.83
   2 -10  -2   14.58    0.82
   2   2  10   13.93    0.70
  10   2   2   12.46    0.76
  -2  -2  10   10.27    0.83
  -2  -2  10   13.33    0.96
  -2 -10   2   11.38    0.85
  10  -2  -2   12.56    0.75
 -10  -2   2   12.35    0.90
  -2 -10   2   11.65    0.75
  10  -4   2    7.38    0.52
   4  -2  10    5.46    0.60
  -4   2  10    7.63    0.50
 -10   4   2    6.89    0.59
   2 -10   4    6.00    0.60
  -2 -10  -4    7.46    0.51
  10   4  -2    7.54    0.52
   4  -2  10    6.85    0.50
  -2  10   4    7.04    0.54
  -4   2  10    7.42    0.67
   2 -10  -4    7.19    0.49
 -10   4  -2    6.55    0.55
  -4  -2  10    7.17    0.58
   2  10   4    6.61    0.54
   4   2  10    7.70    0.46
   4   2  10    6.19    0.63
  -2 -10   4    6.86    0.50
  10  -4  -2    7.10    0.50
  10   4   2    6.79    0.61
  10   4   2    6.45    0.49
  -2 -10   4    6.92    0.64
 -10  -4   2    6.82    0.62
  -4  -2  10    7.09    0.66
  -2 -10  -6   11.01    0.66
  10   6  -2   10.76    0.71
   6  -2  10   11.16    0.70
  -6   2  10   10.26    0.84
   6  -2  10   10.64    0.84
  10  -6   2   11.44    0.72
   2 -10   6   10.82    0.86
  -2  10   6   10.36    0.78
   6   2 -10    9.60    0.71
 -10   6   2    9.57    0.76
  -2 -10   6   10.65    0.87
   2 -10  -6   10.31    0.62
  -2 -10   6   12.79    0.76
  10   6   2   10.23    0.82
   6  -2 -10   10.76    0.65
 -10  -6   2   11.30    0.87
   6   2  10    9.58    0.64
  10  -6  -2    9.87    0.67
  10   6   2    9.82    0.68
   6   2  10    9.08    0.84
 -10   6  -2   10.68    0.73
   2  10   6   10.07    0.78
  -6  -2  10   11.89    0.89
  -2  10   8   13.97    1.02
  -8   2  10   13.07    1.04
   8  -2  10   13.07    1.02
 -10   8   2   14.55    0.96
   8  -2  10   13.42    0.88
   8   2 -10   15.85    0.92
   2 -10   8   14.29    0.89
  10   8  -2   12.74    0.90
   2 -10   8   14.58    1.09
  10  -8   2   13.87    0.90
 -10  -8   2   14.83    1.07
   2  10   8   12.91    1.01
   8  -2 -10   14.79    0.85
  10   8   2   15.27    0.90
 -10   8  -2   13.50    0.91
   8   2  10   13.96    0.86
  10  -8  -2   14.14    0.87
  -2 -10   8   14.16    1.09
  10   8   2   15.13    1.06
   8   2  10   13.45    1.07
  -2 -10   8   14.53    0.97
  -8  -2  10   14.18    1.07
   0  -4  10    0.29    0.18
   4 -10   0    0.33    0.10
   4  10   0    0.13    0.11
  10   0  -4    0.15    0.06
  10   0   4    0.28    0.13
   0  -4  10    0.38    0.13
  -4  10   0    0.36    0.09
 -10   0   4    0.56    0.22
   0   4  10    0.42    0.20
  10   0   4    0.25    0.08
   2  -4  10    7.19    0.57
  10   2  -4    7.46    0.52
  10  -2   4    6.80    0.51
   4 -10   2    7.56    0.58
  -2   4  10    7.59    0.69
  -4  10   2    6.99    0.50
  10  -2   4    6.93    0.57
 -10   2   4    7.87    0.65
  -2  -4  10    5.28    0.58
  10  -2  -4    7.21    0.50
  -4 -10   2    6.33    0.53
  -4 -10   2    7.73    0.59
   2   4  10    7.16    0.67
 -10  -2   4    6.69    0.62
   4 -10  -2    8.01    0.52
   4  10   2    6.83    0.54
  -2  -4  10    6.32    0.64
  10   2   4    6.81    0.60
  10   2   4    6.54    0.50
   2   4  10    7.13    0.41
   4  10   2    6.89    0.50
   4  -4  10    0.22    0.09
   4 -10   4    0.38    0.12
  -4  10   4    0.27    0.13
  10  -4   4    0.39    0.09
  -4   4  10    0.12    0.16
   4  -4  10    0.23    0.16
  10  -4   4    0.40    0.14
 -10   4   4    0.13    0.19
  10   4  -4    0.25    0.09
   4  10   4    0.19    0.13
   4   4  10    0.18    0.17
  -4  -4  10    0.34    0.13
  -4 -10   4    0.43    0.15
  10   4   4    0.11    0.07
  -4  -4  10    0.46    0.21
  10  -4  -4    0.08    0.06
   4   4  10    0.09    0.05
  10   4   4    0.19    0.14
 -10  -4   4    0.17    0.16
  -4 -10   4    0.27    0.11
   4 -10  -4    0.21    0.06
   4  10   4    0.16    0.07
   4 -10   6    6.33    0.60
 -10   6   4    6.81    0.61
   6  -4  10    6.28    0.60
  10  -6   4    6.65    0.53
  10   6  -4    6.94    0.54
   6  -4  10    6.94    0.54
  -4  10   6    6.85    0.58
  -6   4  10    6.32    0.62
   4  10   6    6.66    0.59
   6   4  10    6.66    0.66
   6  -4 -10    7.08    0.44
   4 -10  -6    7.12    0.43
  -4 -10   6    7.69    0.60
  10   6   4    6.51    0.49
  -6  -4  10    5.23    0.61
  -4 -10   6    6.96    0.64
   6   4  10    6.97    0.46
  10  -6  -4    7.47    0.50
 -10  -6   4    6.83    0.65
 -10   6  -4    6.40    0.53
   4  10   6    6.94    0.46
  10   6   4    7.10    0.65
  -8   4  10    0.46    0.23
   8  -4  10    0.73    0.23
  10   8  -4    0.28    0.11
  10  -8   4    0.62    0.13
   4 -10   8    0.45    0.16
 -10   8   4    0.30    0.20
   8  -4  10    0.58    0.12
  -4  10   8    0.17    0.16
   8   4 -10    0.32    0.12
   4 -10  -8    0.31    0.05
   8  -4 -10    0.32    0.08
   4  10   8    0.47    0.09
  -4 -10   8    1.19    0.27
  -4 -10   8    0.52    0.18
  -8  -4  10    0.68    0.29
 -10   8  -4    0.34    0.15
  10   8   4    0.33    0.09
   8   4  10    0.44    0.22
   8   4  10    0.21    0.08
 -10  -8   4    1.00    0.29
  10   8   4    0.42    0.19
  10  -8  -4    0.30    0.08
   4  10   8    0.50    0.20
   0  -6  10   32.32    2.25
  10   0   6   41.19    2.30
   0  -6  10   33.20    2.18
   0   6  10   41.10    2.36
   6 -10   0   40.49    2.08
   6  10   0   36.76    2.20
   6  10   0   39.33    2.08
  10   0  -6   37.82    2.04
 -10   0   6   37.61    2.27
  10   0   6   36.12    2.04
  -6  10   0   38.47    2.10
  -6  10   2   10.41    0.69
   6  10  -2    8.97    0.70
  10  -2   6   11.59    0.80
   2  -6  10    8.67    0.77
   2  -6  10   10.85    0.82
  -2   6  10   10.79    0.87
   6 -10   2   12.30    0.77
  10   2  -6   11.20    0.71
  10  -2   6   10.66    0.70
 -10   2   6   10.36    0.85
  10  -2  -6   10.83    0.67
   2   6  10   10.47    0.57
  -6  10  -2    9.64    0.63
  -6 -10   2    8.69    0.74
 -10  -2   6   11.78    0.88
  -2  -6  10   11.49    0.89
   6 -10  -2   10.25    0.67
   6  10   2   10.94    0.78
  -2  -6  10   11.71    0.87
   6  10   2   10.47    0.69
  10   2   6   10.14    0.83
  10   2   6    9.66    0.67
   2   6  10   10.17    0.86
 -10   4   6    6.64    0.62
  -4   6  10    6.27    0.63
  10  -4   6    6.29    0.55
  10  -4   6    6.57    0.52
  10   4  -6    6.87    0.53
   6 -10   4    7.13    0.59
   4  -6  10    6.26    0.58
  -6  10   4    6.97    0.54
   4  -6  10    6.35    0.56
   4   6  10    6.72    0.42
  10  -4  -6    6.79    0.48
  -4  -6  10    6.47    0.64
   6 -10  -4    6.64    0.46
   4   6  10    6.82    0.68
  -6  10  -4    6.28    0.43
  10   4   6    7.04    0.50
  10   4   6    6.86    0.65
   6  10   4    7.07    0.59
   6  10   4    7.38    0.50
 -10  -4   6    6.88    0.66
  -4  -6  10    6.65    0.63
  -6 -10   4    7.09    0.59
  10  -6   6   27.91    1.63
 -10   6   6   29.28    1.77
  10  -6   6   27.52    1.67
  -6   6  10   26.64    1.77
   6  -6  10   29.89    1.74
  10   6  -6   28.35    1.63
   6 -10   6   26.70    1.68
  -6  10   6   28.33    1.72
   6  -6  10   25.89    1.64
   6 -10  -6   29.98    1.51
  10  -6  -6   28.92    1.55
   6  10   6   27.51    1.54
   6   6  10   28.76    1.85
   6   6  10   27.99    1.51
   6  10   6   28.11    1.77
  10   6   6   29.00    1.58
   6  -6 -10   27.56    1.48
  10   6   6   27.69    1.81
  -6  -6  10   30.67    1.73
  -6 -10   6   28.06    1.73
  -6 -10   6   28.62    1.71
  -6  -6  10   25.68    1.78
 -10  -6   6   29.16    1.83
   8  -6  10    3.39    0.40
   6 -10   8    3.00    0.29
  10   8  -6    3.75    0.41
   8  -6  10    2.34    0.34
  10  -8   6    2.94    0.36
   6 -10   8    3.37    0.46
   8   6 -10    3.23    0.40
  -8   6  10    3.45    0.44
  -6  10   8    3.58    0.43
 -10   8   6    2.98    0.44
  10  -8  -6    3.08    0.30
 -10  -8   6    2.42    0.41
   8   6  10    3.01    0.30
  10   8   6    3.08    0.32
   8  -6 -10    2.55    0.26
  -8  -6  10    3.67    0.56
   8   6  10    3.60    0.48
   6  10   8    3.27    0.42
   6  10   8    3.42    0.30
   6 -10  -8    3.07    0.25
  -6 -10   8    3.83    0.48
  10   8   6    2.65    0.42
  -6 -10   8    3.65    0.51
   0  -8  10    0.12    0.15
  -8  10   0    0.24    0.15
   0  -8  10    0.25    0.20
  10   0  -8    0.16    0.08
  10   0   8    0.44    0.19
  10   0   8    0.34    0.10
   8 -10   0    0.30    0.09
   8  10   0    0.22    0.09
   0   8  10    0.24    0.20
 -10   0   8    0.30    0.22
   8 -10   2   15.02    0.94
   8  10  -2   13.70    0.93
  10  -2   8   13.44    0.90
  -8  10   2   14.54    0.93
  -2   8  10   15.39    1.10
  10  -2   8   15.11    1.04
   2  -8  10   12.08    0.96
  10   2  -8   14.62    0.91
 -10   2   8   14.21    1.06
   2  -8  10   14.64    1.07
  -2  -8  10   15.60    1.14
   8  10   2   13.68    0.89
  -2  -8  10   14.40    1.04
   8  10   2   14.71    1.02
   2   8  10   14.65    0.76
 -10  -2   8   13.98    1.08
  10   2   8   14.69    1.07
  -8 -10   2   14.09    1.03
  -8  10  -2   13.62    0.88
  10  -2  -8   14.14    0.87
  10   2   8   13.59    0.88
   2   8  10   15.12    1.12
   8 -10  -2   14.65    0.88
  10  -4   8    0.68    0.13
  10  -4   8    0.65    0.19
   8 -10   4    0.35    0.11
  -8  10   4    0.26    0.16
   4  -8  10    0.42    0.15
  -4   8  10    0.45    0.21
   4  -8  10    0.57    0.17
   8  10  -4    0.32    0.12
 -10   4   8    0.21    0.21
  10   4  -8    0.31    0.12
   8  10   4    0.65    0.21
   8  10   4    0.29    0.09
  10  -4  -8    0.24    0.08
 -10  -4   8    1.27    0.32
  10   4   8    0.42    0.21
  -8 -10   4    0.59    0.25
  -8  10  -4    0.32    0.12
  10   4   8    0.29    0.09
   8 -10  -4    0.24    0.08
  -4  -8  10    0.37    0.16
   4   8  10    0.46    0.24
   4   8  10    0.32    0.07
  -4  -8  10    0.56    0.24
   8 -10   6    3.59    0.41
 -10   6   8    3.17    0.45
  10  -6   8    2.77    0.36
  10   6  -8    3.70    0.41
  -6   8  10    2.73    0.42
  10  -6   8    3.31    0.38
   6  -8  10    3.12    0.37
   6  -8  10    3.46    0.44
   8  10  -6    3.53    0.41
  -8  10   6    3.60    0.41
   6   8  10    3.45    0.28
  -8 -10   6    3.52    0.50
   6   8  10    2.64    0.44
   8  10   6    3.28    0.44
   8  10   6    3.33    0.34
  10  -6  -8    3.39    0.30
   6  -8 -10    3.06    0.23
  -6  -8  10    2.74    0.44
  -6  -8  10    3.61    0.48
  10   6   8    3.67    0.49
  10   6   8    3.64    0.33
   8 -10  -6    3.66    0.30
 -10  -6   8    2.92    0.47
   8  -8  10    0.34    0.13
 -10   8   8    0.32    0.22
  10  -8   8    0.21    0.13
  10  -8   8    0.25    0.11
  -8   8  10    0.09    0.19
  -8  10   8    0.09    0.17
   8  -8  10    0.22    0.16
   8 -10   8    0.10    0.09
   8 -10   8    0.16    0.12
  10   8  -8    0.19    0.12
   8 -10  -8    0.20    0.07
   8  -8 -10    0.09    0.05
   8   8  10   -0.04    0.21
   8   8  10    0.14    0.08
   8  10   8    0.12    0.17
   8  10   8    0.13    0.08
  10  -8  -8    0.22    0.07
  -8 -10   8    0.38    0.26
  -8  -8  10    0.07    0.26
 -10  -8   8    0.37    0.24
  10   8   8    0.13    0.22
  10   8   8    0.05    0.08
 -10 -10   0    0.40    0.22
 -10   0  10    0.69    0.28
 -10  10   0    0.73    0.20
   0 -10  10    0.69    0.21
   0 -10  10    0.18    0.18
   0  10  10    0.53    0.24
  10 -10   0    0.45    0.12
  10   0 -10    0.46    0.11
  10   0  10    0.60    0.25
  10   0  10    0.44    0.12
  10  10   0    0.47    0.13
  10  -2  10    6.50    0.56
  10   2 -10    7.36    0.57
 -10   2  10    7.98    0.74
  10  -2  10    6.21    0.65
 -10  10   2    7.87    0.61
  10  10  -2    6.77    0.58
  10 -10   2    6.65    0.57
  -2  10  10    6.64    0.68
   2 -10  10    6.48    0.56
   2 -10  10    8.09    0.77
   2  10  10    7.96    0.73
  -2 -10  10    6.54    0.64
  -2 -10  10    7.29    0.78
  10  -2 -10    7.33    0.53
 -10  10  -2    6.74    0.55
 -10 -10   2    6.05    0.68
 -10  -2  10    6.83    0.77
  10   2  10    7.77    0.72
  10   2  10    7.64    0.55
  10 -10  -2    8.43    0.56
  10  10   2    6.74    0.66
  10  10   2    7.05    0.57
  10  10  -4    9.74    0.77
  10  -4  10   11.27    0.78
 -10   4  10   10.55    0.89
   4 -10  10   11.35    0.92
 -10  10   4    9.66    0.78
  10 -10   4   10.85    0.79
  10   4 -10   11.26    0.78
  -4  10  10   11.00    0.88
   4 -10  10    9.56    0.73
  10  -4  10   10.90    0.85
   4  10  10   11.69    0.93
   4  10  10   10.39    0.63
  10 -10  -4   10.52    0.70
  -4 -10  10   10.60    0.86
  10  -4 -10   10.99    0.68
 -10  10  -4    9.51    0.71
 -10  -4  10   10.62    0.93
  -4 -10  10   10.45    0.93
  10   4  10    9.52    0.90
  10   4  10    9.83    0.69
 -10 -10   4   10.20    0.89
  10  10   4   11.13    0.88
  10  10   4   11.67    0.74
  10  -6  10   16.39    1.00
  10  10  -6   13.32    0.97
 -10   6  10   11.92    1.04
  10   6 -10   13.98    0.98
 -10  10   6   12.30    0.98
  10  -6  10   15.16    1.01
   6 -10  10   13.90    1.04
  -6  10  10   13.92    1.05
  10 -10   6   16.33    1.01
   6 -10  10   14.68    0.91
 -10 -10   6   14.43    1.11
   6  10  10   12.98    1.06
   6  10  10   14.62    0.83
  10 -10  -6   13.11    0.85
   6 -10 -10   13.19    0.76
  10  -6 -10   14.22    0.84
  -6 -10  10   13.85    1.07
  -6 -10  10   15.11    1.10
 -10  10  -6   13.48    0.89
  10   6  10   13.02    1.10
  10   6  10   12.40    0.85
 -10  -6  10   15.59    1.18
  10  10   6   14.14    1.08
  10  10   6   14.23    0.89
   8 -10  10    2.59    0.31
 -10   8  10    2.28    0.40
 -10  10   8    2.71    0.40
  10 -10   8    1.51    0.25
  10  -8  10    1.97    0.31
  -8  10  10    2.12    0.37
  10   8 -10    1.54    0.26
  10  -8  10    1.55    0.24
   8 -10  10    1.59    0.26
  10 -10   8    2.55    0.29
  -8 -10  10    2.33    0.43
  10 -10  -8    2.60    0.26
   8  10  10    2.50    0.40
 -10 -10   8    2.52    0.44
  10  -8 -10    2.61    0.26
  -8 -10  10    1.83    0.29
   8  10  10    2.34    0.28
   8 -10 -10    2.45    0.23
  10   8  10    2.23    0.42
  10   8  10    2.52    0.28
 -10  -8  10    2.41    0.45
  10  10   8    2.34    0.40
  10  10   8    2.89    0.30
  10 -10  10    5.21    0.57
 -10  10  10    6.31    0.64
  10 -10  10    5.54    0.49
  10 -10 -10    5.38    0.43
 -10 -10  10    5.90    0.75
  10  10  10    6.15    0.66
  10  10  10    5.81    0.47
 -11  -1  -1   -0.16    0.13
  11   1  -1    0.01    0.05
   1  11  -1   -0.03    0.06
 -11   1   1   -0.02    0.12
  -1 -11  -1    0.00    0.07
  11  -1   1    0.00    0.05
   1  -1  11   -0.03    0.05
   1  -1  11   -0.08    0.12
  -1   1  11   -0.12    0.15
  -1   1  11   -0.04    0.05
  -1  11   1    0.01    0.08
   1 -11   1   -0.01    0.08
   1 -11  -1    0.03    0.08
  -1  -1  11   -0.04    0.07
  -1  -1  11   -0.03    0.15
   1   1  11   -0.14    0.14
   1   1  11    0.03    0.04
 -11   1  -1   -0.07    0.13
   1  11   1   -0.09    0.07
  11  -1  -1   -0.01    0.05
  -1 -11   1   -0.07    0.08
 -11  -1   1   -0.16    0.14
  11   1   1    0.00    0.05
   3  -1  11   25.45    1.49
   1 -11   3   28.68    1.70
 -11  -3  -1   27.61    1.73
   3  -1  11   24.43    1.74
  11  -3   1   29.34    1.54
  11   3  -1   26.36    1.52
  -3   1  11   28.89    1.79
  -3   1  11   25.45    1.54
 -11   3   1   28.99    1.68
  -1  11   3   25.37    1.58
  -1 -11  -3   27.79    1.58
   3   1  11   27.02    1.46
  -3  -1  11   25.58    1.74
 -11  -3   1   30.67    1.75
  11   3   1   28.89    1.54
   1  11   3   24.22    1.58
 -11   3  -1   26.80    1.65
  -1 -11   3   26.98    1.52
  -1 -11   3   29.55    1.71
  -3  -1  11   25.07    1.59
   1 -11  -3   27.74    1.57
   3   1  11   24.18    1.75
  11  -3  -1   28.83    1.53
  11  -5   1    3.07    0.33
  11   5  -1    2.51    0.32
  -1 -11  -5    2.98    0.32
  -1  11   5    3.05    0.36
 -11   5   1    3.20    0.41
   5  -1  11    3.43    0.31
   5  -1  11    2.75    0.43
  -5   1  11    3.25    0.47
 -11  -5   1    3.58    0.48
  -5  -1  11    3.27    0.38
  -1 -11   5    3.63    0.49
 -11   5  -1    3.37    0.38
   1 -11  -5    3.09    0.32
   5   1  11    3.31    0.30
   1  11   5    3.17    0.37
  -1 -11   5    3.52    0.33
  -5  -1  11    3.10    0.48
   5   1  11    2.28    0.42
  11   5   1    3.17    0.34
  11  -5  -1    3.35    0.32
   1 -11   7    1.24    0.25
  -1  11   7    2.11    0.32
   7  -1  11    1.75    0.35
 -11   7   1    1.97    0.30
  -7   1  11    2.03    0.37
  -1 -11  -7    2.16    0.26
   7  -1  11    2.18    0.27
  11  -7   1    1.85    0.26
   1 -11   7    1.57    0.22
   7   1 -11    2.56    0.29
   1  11   7    1.95    0.31
 -11  -7   1    1.91    0.35
  -1 -11   7    2.27    0.31
  -1 -11   7    1.45    0.27
  -7  -1  11    2.01    0.38
  11  -7  -1    2.25    0.27
   7   1  11    1.82    0.37
   7   1  11    2.08    0.25
 -11   7  -1    2.07    0.31
   1 -11  -7    2.05    0.21
   7  -1 -11    2.03    0.26
  -1  11   9    2.88    0.42
   9  -1  11    2.41    0.40
  11  -9   1    2.30    0.30
   9  -1  11    3.07    0.33
   9   1 -11    2.72    0.34
   1 -11   9    1.99    0.29
   1 -11   9    1.71    0.32
 -11   9   1    2.24    0.33
  -9   1  11    2.60    0.44
  -1 -11  -9    2.93    0.26
  11   9  -1    2.52    0.33
   9   1  11    2.67    0.43
   1  11   9    3.18    0.45
  -9  -1  11    2.46    0.43
   9  -1 -11    2.52    0.30
 -11   9  -1    2.28    0.35
  -1 -11   9    2.59    0.38
  -1 -11   9    1.94    0.33
  11   9   1    2.65    0.32
  11  -9  -1    2.89    0.32
   9   1  11    2.97    0.31
 -11  -9   1    2.41    0.41
   1  -3  11   23.46    1.75
  11  -1   3   26.33    1.54
  11   1  -3   29.94    1.56
   1  -3  11   27.72    1.60
  -1   3  11   27.88    1.81
   3 -11   1   27.50    1.63
  -3  11   1   25.86    1.55
 -11   1   3   28.55    1.73
  -3 -11  -1   27.99    1.59
  -1   3  11   28.04    1.44
 -11  -1   3   27.49    1.73
  11  -1  -3   28.97    1.55
  -3 -11   1   29.57    1.65
  11   1   3   26.46    1.54
   3  11   1   25.93    1.61
   1   3  11   28.01    1.82
   1   3  11   28.48    1.44
  -1  -3  11   27.29    1.80
  11   1   3   27.56    1.72
  -1  -3  11   26.41    1.64
   3 -11  -1   27.94    1.59
   3 -11   3    0.01    0.09
   3  -3  11    0.14    0.17
  11   3  -3   -0.07    0.06
   3  -3  11   -0.02    0.06
  11  -3   3    0.10    0.07
 -11   3   3    0.11    0.16
  -3  11   3    0.03    0.10
  -3 -11  -3    0.08    0.07
  -3   3  11    0.10    0.06
  -3   3  11   -0.11    0.15
  -3  -3  11    0.03    0.17
 -11   3  -3   -0.15    0.14
   3   3  11    0.10    0.05
  -3 -11   3    0.14    0.10
  11   3   3    0.07    0.13
  -3  -3  11    0.04    0.10
   3   3  11    0.01    0.18
  11  -3  -3    0.00    0.06
   3 -11  -3    0.15    0.08
 -11  -3   3    0.02    0.17
   3  11   3    0.13    0.12
  11   3   3    0.03    0.06
  -3 -11   3    0.12    0.12
  11  -5   3    3.58    0.34
  -3  11   5    2.86    0.34
   5  -3  11    2.76    0.32
  11   5  -3    3.05    0.35
 -11   5   3    2.41    0.36
   5  -3  11    2.34    0.38
  -5   3  11    3.58    0.48
  11  -5  -3    2.90    0.30
 -11  -5   3    3.00    0.44
  11   5   3    2.75    0.31
   3  11   5    3.04    0.36
  -5  -3  11    2.31    0.39
  -5  -3  11    3.06    0.40
 -11   5  -3    3.01    0.35
  -3 -11   5    2.90    0.36
  11   5   3    3.34    0.43
   3 -11  -5    3.32    0.28
   5   3  11    3.42    0.28
   5   3  11    2.41    0.42
   3 -11   7   -0.02    0.09
  -3  11   7   -0.07    0.12
   7  -3  11    0.02    0.16
   7  -3  11   -0.06    0.06
  11  -7   3    0.03    0.07
  11   7  -3   -0.08    0.07
  -7   3  11   -0.18    0.17
 -11   7   3   -0.24    0.16
  -3 -11   7   -0.03    0.11
  11   7   3   -0.09    0.15
 -11  -7   3   -0.07    0.19
   7   3  11    0.10    0.17
   3  11   7    0.01    0.13
 -11   7  -3   -0.04    0.12
  11  -7  -3   -0.05    0.05
   7  -3 -11   -0.03    0.06
  11   7   3   -0.06    0.06
   7   3  11   -0.05    0.05
  -3 -11   7   -0.07    0.18
   3 -11  -7    0.02    0.03
  -7  -3  11   -0.04    0.19
  -9   3  11   -0.10    0.22
   9  -3  11   -0.02    0.09
  11   9  -3    0.02    0.10
   9  -3  11   -0.11    0.18
  -3  11   9    0.03    0.18
   3 -11   9    0.04    0.10
   3 -11   9    0.05    0.15
 -11   9   3   -0.19    0.20
   9   3 -11   -0.05    0.09
  11  -9   3   -0.01    0.09
  -9  -3  11    0.01    0.26
  11   9   3    0.12    0.18
   3  11   9    0.28    0.22
   9   3  11    0.05    0.07
 -11   9  -3    0.06    0.14
  -3 -11   9   -0.30    0.18
  -3 -11   9    0.02    0.12
   9  -3 -11    0.03    0.07
  11   9   3   -0.18    0.08
  11  -9  -3    0.06    0.08
   9   3  11   -0.04    0.19
 -11  -9   3   -0.09    0.19
  -1   5  11    3.31    0.49
  11  -1   5    3.62    0.35
   1  -5  11    3.06    0.44
   5 -11   1    3.62    0.38
  11   1  -5    3.05    0.33
  -5  11   1    3.33    0.29
   1  -5  11    2.73    0.38
  11  -1   5    3.08    0.40
 -11   1   5    2.24    0.39
   5  11   1    3.27    0.35
   1   5  11    2.82    0.20
  11   1   5    3.38    0.33
   5 -11  -1    3.57    0.35
  11   1   5    2.95    0.42
  -1  -5  11    2.41    0.40
  -5  11  -1    3.47    0.25
   5  11   1    3.40    0.35
 -11  -1   5    2.63    0.42
  11  -1  -5    3.10    0.31
   1   5  11    2.52    0.40
   3  -5  11    2.95    0.37
  11  -3   5    3.10    0.35
  11  -3   5    2.91    0.32
  -5  11   3    3.00    0.31
   3  -5  11    2.85    0.41
   5 -11   3    2.84    0.38
 -11   3   5    3.26    0.49
  -3   5  11    2.50    0.41
  11   3  -5    2.70    0.32
  11   3   5    3.19    0.42
   3   5  11    2.58    0.43
   3   5  11    2.77    0.22
   5 -11  -3    3.33    0.30
  -5 -11   3    2.65    0.38
   5  11   3    2.59    0.34
  11   3   5    3.06    0.31
 -11  -3   5    2.48    0.41
   5  11   3    3.48    0.33
  -5 -11   3    2.75    0.35
  11  -3  -5    3.37    0.31
  -3  -5  11    3.37    0.46
  -3  -5  11    2.52    0.40
   5  -5  11    0.01    0.07
  -5   5  11   -0.15    0.15
 -11   5   5   -0.31    0.19
   5  -5  11   -0.04    0.13
  11  -5   5   -0.01    0.06
  11   5  -5   -0.14    0.06
  -5  11   5    0.10    0.14
   5 -11   5   -0.09    0.08
  11  -5   5    0.05    0.11
   5 -11  -5   -0.01    0.04
 -11  -5   5   -0.12    0.17
  -5 -11   5    0.05    0.16
   5  11   5   -0.04    0.11
   5   5  11   -0.13    0.16
   5   5  11   -0.10    0.04
  -5  -5  11   -0.12    0.09
   5  11   5   -0.11    0.07
  11  -5  -5   -0.03    0.05
  11   5   5    0.05    0.06
  -5 -11   5    0.11    0.10
  -5  -5  11   -0.19    0.17
  11   5   5   -0.09    0.12
   5 -11   7    0.32    0.09
   5 -11   7    0.15    0.12
   7  -5  11    0.56    0.20
   7  -5  11    0.24    0.11
 -11   7   5    0.20    0.22
  11  -7   5    0.38    0.12
  11   7  -5    0.28    0.11
  -7   5  11    0.57    0.23
  -5  11   7    0.41    0.18
  11   7   5    0.23    0.10
   5 -11  -7    0.27    0.07
  -5 -11   7    0.55    0.24
   7  -5 -11    0.29    0.08
   5  11   7    0.49    0.20
   5  11   7    0.24    0.09
 -11  -7   5    0.71    0.29
   7   5  11    0.35    0.22
  11   7   5   -0.06    0.18
  11  -7  -5    0.32    0.09
  -5 -11   7    0.16    0.14
   7   5  11    0.35    0.09
  -7  -5  11    0.37    0.27
 -11   7  -5    0.26    0.17
   5 -11   9   -0.14    0.10
   9  -5  11   -0.02    0.09
  11   9  -5   -0.18    0.09
  11  -9   5   -0.01    0.09
   9   5 -11   -0.08    0.09
  -9   5  11   -0.32    0.17
   5 -11   9    0.03    0.08
  -5  11   9   -0.06    0.17
   9  -5  11   -0.14    0.17
  11   9   5   -0.28    0.18
  -5 -11   9    0.03    0.13
  11  -9  -5   -0.01    0.06
   9   5  11   -0.17    0.06
   9   5  11   -0.17    0.17
   5  11   9   -0.10    0.06
  11   9   5   -0.09    0.07
   9  -5 -11   -0.05    0.06
  -5 -11   9    0.00    0.21
   5  11   9    0.00    0.17
  -9  -5  11   -0.24    0.23
 -11   9  -5   -0.04    0.13
 -11  -9   5    0.12    0.24
  -7  11   1    1.98    0.26
  11   1  -7    2.15    0.27
   7  11  -1    2.15    0.31
   7 -11   1    2.73    0.32
 -11   1   7    1.80    0.37
  11  -1   7    2.15    0.29
   1  -7  11    1.65    0.32
  11  -1   7    2.17    0.33
  -1   7  11    2.02    0.38
   7 -11  -1    1.86    0.27
   7  11   1    2.11    0.29
  -1  -7  11    1.88    0.35
  11  -1  -7    2.20    0.27
 -11  -1   7    2.40    0.39
  -1  -7  11    1.20    0.26
  11   1   7    2.49    0.29
  -7 -11   1    1.88    0.31
  11   1   7    1.80    0.33
   1   7  11    2.04    0.38
  -7  11  -1    2.14    0.25
   7  11   1    2.35    0.33
   7 -11   3   -0.03    0.08
   3  -7  11   -0.01    0.14
  -7  11   3   -0.01    0.11
  11   3  -7   -0.09    0.07
 -11   3   7   -0.09    0.22
  11  -3   7   -0.02    0.12
  -3   7  11   -0.10    0.15
  11  -3   7   -0.05    0.05
   7  11  -3    0.01    0.09
   3  -7  11   -0.02    0.10
   7 -11  -3    0.01    0.05
   3   7  11   -0.03    0.04
  -7 -11   3   -0.01    0.16
   7  11   3   -0.01    0.13
 -11  -3   7   -0.20    0.22
  11   3   7   -0.06    0.11
  -7  11  -3   -0.12    0.09
   3   7  11   -0.06    0.18
  -3  -7  11   -0.10    0.16
  -3  -7  11   -0.03    0.11
   7  11   3    0.05    0.07
  11  -3  -7    0.00    0.06
  11   3   7    0.02    0.06
  11   5  -7    0.34    0.11
   5  -7  11    0.20    0.12
   7 -11   5    0.26    0.13
 -11   5   7    0.37    0.26
  -5   7  11    0.30    0.21
   5  -7  11    0.27    0.17
  11  -5   7    0.39    0.16
  11  -5   7    0.17    0.10
  -7  11   5    0.47    0.17
  11   5   7    0.45    0.22
  11  -5  -7    0.22    0.08
  -5  -7  11    0.15    0.23
  -5  -7  11    0.32    0.16
  -7 -11   5    0.29    0.21
   5   7  11    0.21    0.06
   7  11   5    0.28    0.10
   7 -11  -5    0.27    0.08
 -11  -5   7    0.83    0.29
   7  11   5    0.28    0.19
  11   5   7    0.29    0.10
   5   7  11    0.21    0.21
  -7  11  -5    0.38    0.11
  11   7  -7    0.04    0.10
  11  -7   7   -0.07    0.11
  11  -7   7    0.02    0.08
   7  -7  11   -0.05    0.09
   7  -7  11   -0.25    0.11
  -7   7  11   -0.21    0.16
 -11   7   7   -0.09    0.17
  -7  11   7    0.08    0.15
   7 -11   7   -0.17    0.09
   7  11   7   -0.04    0.14
  -7  -7  11   -0.16    0.11
  -7  -7  11   -0.40    0.21
  -7 -11   7   -0.22    0.23
  -7 -11   7   -0.17    0.10
   7  -7 -11   -0.03    0.04
   7  11   7   -0.12    0.07
  11   7   7   -0.06    0.16
   7   7  11    0.02    0.06
   7 -11  -7   -0.04    0.05
 -11  -7   7   -0.38    0.24
   7   7  11    0.02    0.18
  11   7   7   -0.01    0.07
  11  -7  -7    0.00    0.06
 -11   9   7    0.04    0.21
   9  -7  11   -0.02    0.11
   7 -11   9    0.18    0.11
  11  -9   7    0.00    0.10
  11   9  -7    0.09    0.12
   9  -7  11    0.04    0.17
  -9   7  11   -0.24    0.21
   7 -11   9    0.12    0.14
  -7  11   9    0.17    0.19
  11  -9  -7    0.14    0.08
  -9  -7  11    0.07    0.28
   9   7  11    0.10    0.20
   9   7  11   -0.03    0.07
   9  -7 -11    0.19    0.08
 -11  -9   7    0.13    0.27
   7 -11  -9    0.05    0.05
  11   9   7    0.20    0.23
  -7 -11   9    0.04    0.13
  -7 -11   9   -0.19    0.24
   7  11   9   -0.07    0.19
   7  11   9    0.10    0.08
  11   9   7    0.05    0.09
   9 -11   1    3.09    0.35
 -11   1   9    2.84    0.44
   9  11  -1    2.63    0.36
  11  -1   9    2.55    0.40
  11  -1   9    2.84    0.34
  11   1  -9    2.82    0.34
  -1   9  11    2.47    0.42
  -9  11   1    2.45    0.34
   1  -9  11    2.08    0.34
  11   1   9    2.50    0.42
 -11  -1   9    2.65    0.42
  -9  11  -1    2.72    0.33
   1   9  11    2.78    0.43
  11   1   9    2.84    0.31
  11  -1  -9    2.68    0.31
   9 -11  -1    2.85    0.33
   9  11   1    2.46    0.37
  -9 -11   1    2.72    0.41
  -1  -9  11    2.33    0.37
  11  -3   9   -0.19    0.15
   3  -9  11   -0.01    0.13
   9  11  -3    0.06    0.11
   3  -9  11    0.17    0.15
  11  -3   9    0.08    0.09
 -11   3   9   -0.06    0.21
  -3   9  11    0.15    0.21
  11   3  -9    0.09    0.10
  -9  11   3   -0.03    0.16
   9 -11   3    0.08    0.11
  11   3   9    0.01    0.08
   9  11   3    0.01    0.16
   9  11   3   -0.04    0.09
  11  -3  -9    0.02    0.07
  -3  -9  11   -0.07    0.19
 -11  -3   9   -0.19    0.23
  -9 -11   3    0.05    0.21
   9 -11  -3    0.04    0.07
  -9  11  -3    0.10    0.13
   3   9  11   -0.25    0.19
  -3  -9  11   -0.06    0.14
  11   3   9   -0.19    0.20
   9  11  -5   -0.12    0.09
 -11   5   9   -0.11    0.21
  -5   9  11   -0.10    0.16
   9 -11   5   -0.09    0.07
   5  -9  11    0.02    0.12
  11  -5   9   -0.07    0.08
  11   5  -9   -0.06    0.10
  -9  11   5   -0.18    0.16
  11  -5   9   -0.15    0.15
   5  -9  11   -0.02    0.14
   9  11   5   -0.06    0.16
 -11  -5   9   -0.26    0.26
  -5  -9  11   -0.29    0.24
   5   9  11   -0.08    0.20
   9 -11  -5   -0.08    0.05
  11   5   9   -0.01    0.07
  -5  -9  11    0.01    0.12
  -9 -11   5    0.05    0.22
   9  11   5   -0.10    0.08
  11  -5  -9    0.05    0.07
  -9  11  -5    0.00    0.11
  -7   9  11    0.24    0.22
  11  -7   9    0.06    0.14
   9 -11   7    0.02    0.11
   9  11  -7    0.07    0.14
 -11   7   9    0.02    0.23
   7  -9  11    0.15    0.13
  -9  11   7    0.10    0.21
  11   7  -9    0.14    0.12
  11  -7   9    0.11    0.11
   7  -9  11    0.14    0.15
   7   9  11    0.28    0.23
  11   7   9    0.10    0.08
  11   7   9   -0.03    0.20
   9  11   7    0.12    0.09
 -11  -7   9   -0.14    0.30
   9  11   7    0.05    0.20
  -9 -11   7    0.05    0.24
  11  -7  -9    0.08    0.07
  -7  -9  11    0.19    0.28
  -7  -9  11    0.13    0.16
   7   9  11    0.04    0.07
   9 -11  -7    0.13    0.07
   9  -9  11   -0.17    0.11
 -11   9   9   -0.20    0.18
  11  -9   9   -0.13    0.10
  11  -9   9   -0.02    0.09
  11   9  -9   -0.11    0.11
  -9   9  11   -0.22    0.19
  -9  11   9   -0.12    0.15
   9  -9  11   -0.20    0.14
   9 -11   9   -0.09    0.09
   9 -11   9   -0.04    0.12
   9 -11  -9   -0.12    0.05
 -11  -9   9   -0.21    0.30
   9   9  11    0.03    0.22
   9   9  11   -0.10    0.07
   9  11   9    0.06    0.20
   9  11   9   -0.14    0.07
  11  -9  -9   -0.02    0.06
  -9 -11   9    0.34    0.29
  -9  -9  11   -0.19    0.27
  -9  -9  11    0.13    0.14
  11   9   9   -0.28    0.20
  11   9   9   -0.04    0.07
  11   1 -11   -0.03    0.08
  11 -11   1    0.02    0.09
 -11   1  11   -0.04    0.23
  11  11  -1   -0.02    0.09
 -11  11   1   -0.22    0.18
  11  -1  11   -0.18    0.16
  11  -1  11   -0.09    0.08
  -1  11  11    0.01    0.20
   1 -11  11   -0.10    0.15
   1 -11  11   -0.04    0.12
   1  11  11   -0.04    0.17
  11 -11  -1   -0.05    0.07
 -11  -1  11   -0.15    0.21
  -1 -11  11   -0.22    0.15
  -1 -11  11    0.01    0.14
 -11 -11   1   -0.04    0.22
  11   1  11    0.00    0.20
  11   1  11   -0.03    0.07
 -11  11  -1   -0.02    0.18
  11  11   1   -0.10    0.09
  11  -3  11   -0.09    0.08
  11   3 -11   -0.07    0.08
 -11   3  11   -0.23    0.21
  11  -3  11   -0.05    0.16
 -11  11   3   -0.13    0.17
  11  11  -3   -0.02    0.10
  11 -11   3   -0.12    0.08
  -3  11  11   -0.29    0.16
   3 -11  11   -0.06    0.13
   3 -11  11   -0.06    0.14
   3  11  11    0.00    0.21
  -3 -11  11   -0.06    0.21
  -3 -11  11   -0.08    0.13
  11  -3 -11   -0.10    0.07
 -11  11  -3   -0.14    0.14
 -11 -11   3   -0.12    0.23
 -11  -3  11   -0.26    0.28
  11   3  11   -0.19    0.14
  11   3  11   -0.05    0.07
  11 -11  -3   -0.03    0.07
  11  11   3   -0.13    0.18
  11  11   3   -0.15    0.09
  11  11  -5   -0.14    0.10
  11  -5  11   -0.13    0.09
 -11   5  11   -0.25    0.22
   5 -11  11   -0.05    0.12
 -11  11   5   -0.16    0.19
  11 -11   5   -0.05    0.08
  11   5 -11   -0.03    0.08
  -5  11  11   -0.07    0.18
   5 -11  11   -0.06    0.11
  11  -5  11    0.09    0.16
   5  11  11   -0.23    0.16
   5  11  11   -0.07    0.05
  11 -11  -5   -0.01    0.06
  -5 -11  11   -0.13    0.23
  11  -5 -11   -0.05    0.06
 -11  11  -5   -0.01    0.13
 -11  -5  11   -0.28    0.25
  -5 -11  11   -0.06    0.13
  11   5  11   -0.12    0.18
  11   5  11    0.00    0.07
 -11 -11   5   -0.04    0.25
  11  11   5   -0.26    0.15
  11  -7  11   -0.13    0.09
  11   7 -11   -0.12    0.11
 -11   7  11   -0.35    0.20
 -11  11   7   -0.10    0.17
  11  11  -7   -0.05    0.11
   7 -11  11   -0.08    0.11
  -7  11  11   -0.27    0.17
   7 -11  11   -0.19    0.11
  11  -7  11    0.02    0.16
  11 -11   7   -0.06    0.09
  -7 -11  11   -0.15    0.12
  11 -11  -7    0.02    0.07
   7  11  11   -0.16    0.19
  11  -7 -11   -0.01    0.06
   7  11  11   -0.08    0.07
 -11 -11   7   -0.37    0.25
 -11  -7  11   -0.04    0.33
  11   7  11   -0.10    0.19
  11   7  11   -0.04    0.07
  -7 -11  11   -0.47    0.27
  11  11   7   -0.03    0.18
  11  11   7   -0.06    0.08
  11 -11   9   -0.01    0.12
  11  -9  11   -0.11    0.14
 -11   9  11   -0.07    0.24
 -11  11   9   -0.34    0.20
  11 -11   9   -0.12    0.10
  11  -9  11   -0.08    0.12
   9 -11  11   -0.06    0.13
  11  11  -9   -0.02    0.13
  11   9 -11   -0.10    0.12
   9  11  11   -0.17    0.21
  -9 -11  11   -0.17    0.29
 -11 -11   9   -0.22    0.32
 -11  -9  11   -0.10    0.34
  -9 -11  11   -0.17    0.15
   9  11  11   -0.17    0.07
  11   9  11   -0.48    0.20
  11   9  11   -0.11    0.08
  11 -11  -9    0.06    0.08
  11  11   9   -0.38    0.22
  11  11   9   -0.21    0.09
  11 -11  11   -0.14    0.13
 -11  11  11   -0.06    0.24
 -11 -11  11   -0.13    0.34
  11  11  11   -0.02    0.26
  11  11  11   -0.14    0.08
 -12   0   0  257.47   14.38
   0 -12   0  272.01   13.59
   0   0  12  281.20   14.54
   0   0  12  266.73   13.44
   0  12   0  243.65   14.22
  12   0   0  283.08   13.48
   0 -12  -2    0.63    0.15
   0 -12   2    0.67    0.19
   0  12   2    0.60    0.15
   2   0  12    0.24    0.27
   2   0  12    0.30    0.10
  12  -2   0    0.32    0.10
  12   2   0    0.11    0.08
  -2   0  12    0.10    0.12
  -2   0  12    0.37    0.25
 -12   2   0    0.71    0.24
 -12  -2   0    0.59    0.24
   0 -12   4  442.26   19.62
   0 -12  -4  425.12   19.42
  -4   0  12  357.92   19.40
  12   4   0  387.47   19.36
   4   0  12  377.97   19.31
  12  -4   0  413.44   19.37
   0  12   4  359.11   20.56
 -12  -4   0  386.40   20.71
 -12   4   0  389.25   20.62
  -4   0  12  378.77   20.75
   4   0  12  326.45   20.73
   6   0  12    0.16    0.07
   0  12   6    0.48    0.18
   6   0  12    0.25    0.22
 -12  -6   0    0.23    0.24
 -12   6   0    0.15    0.19
  12  -6   0    0.34    0.10
  12   6   0    0.05    0.08
   0 -12   6    0.33    0.17
   0 -12  -6    0.26    0.10
  -6   0  12    0.23    0.22
   8   0  12  155.55    7.47
  12   8   0  145.29    7.50
   0  12   8  142.84    8.04
  12  -8   0  151.18    7.49
 -12  -8   0  142.65    8.11
 -12   8   0  149.42    7.96
  -8   0  12  141.15    8.09
   0 -12  -8  155.84    7.42
   0 -12   8  156.62    7.91
   0 -12   8  139.04    7.73
   8   0  12  127.66    8.08
   8   0 -12  146.65    7.48
  10   0  12    1.02    0.30
 -12  10   0    0.03    0.21
   0 -12  10    0.73    0.21
  12 -10   0    0.30    0.10
  12  10   0    0.45    0.13
 -12 -10   0   -0.04    0.28
   0  12  10    0.23    0.22
  10   0 -12    0.06    0.09
 -10   0  12    0.48    0.26
   0 -12  10    0.22    0.17
  10   0  12    0.48    0.12
 -12   0  -2    0.37    0.25
   0   2  12    0.53    0.08
   2 -12   0    0.14    0.15
 -12   0   2    0.22    0.23
  -2 -12   0    0.00    0.14
  12   0   2    0.43    0.10
  12   0  -2    0.37    0.11
   0  -2  12    0.31    0.12
   0   2  12    0.66    0.25
  -2  12   0    0.21    0.10
   2  12   0    0.40    0.13
   0  -2  12    0.64    0.26
  -2 -12  -2   11.52    0.78
  -2   2  12   10.01    0.89
   2  -2  12    8.09    0.85
   2  -2  12   10.10    0.70
  12  -2   2   11.30    0.71
  12   2  -2   10.24    0.70
  -2   2  12   11.07    0.66
 -12   2   2   10.46    0.83
  -2  12   2   10.21    0.68
   2 -12   2   10.04    0.80
 -12   2  -2   10.21    0.79
 -12  -2   2    9.76    0.83
  -2 -12   2   10.17    0.67
   2   2  12   10.10    0.91
   2   2  12   10.50    0.61
   2  12   2    9.02    0.69
  -2  -2  12   10.23    0.88
  -2  -2  12    9.81    0.77
  12  -2  -2    9.92    0.68
   2 -12  -2   10.24    0.74
  -2 -12   2    8.69    0.78
  12   2   2   10.09    0.70
   4  -2  12    0.79    0.14
   4  -2  12    1.17    0.29
  -4   2  12    1.51    0.32
  -2  12   4    1.07    0.22
  12  -4   2    0.97    0.15
   2 -12   4    0.34    0.19
 -12   4   2    1.39    0.29
  12   4  -2    0.83    0.14
  -2 -12  -4    0.60    0.15
  12   4   2    0.77    0.15
 -12   4  -2    0.07    0.24
   2  12   4    0.88    0.22
  -4  -2  12    1.24    0.30
  -4  -2  12    0.77    0.18
  -2 -12   4    0.51    0.22
   4   2  12    1.35    0.33
 -12  -4   2    0.43    0.32
   2 -12  -4    0.66    0.16
  -6   2  12    4.55    0.56
 -12   6   2    4.67    0.51
   6  -2  12    3.86    0.52
  -2  12   6    4.11    0.45
  12   6  -2    3.67    0.39
  -2 -12  -6    3.85    0.38
   2 -12   6    4.47    0.55
  12  -6   2    4.49    0.41
   6  -2  12    4.14    0.39
   6   2  12    4.17    0.56
  -6  -2  12    4.87    0.58
   2  12   6    3.98    0.44
  -2 -12   6    4.69    0.43
  12   6   2    3.84    0.49
  -6  -2  12    4.38    0.45
 -12   6  -2    3.98    0.44
   2 -12  -6    4.60    0.37
   6   2  12    4.34    0.35
  -2 -12   6    4.12    0.54
 -12  -6   2    4.04    0.53
  12   6   2    4.15    0.41
  12  -6  -2    3.70    0.37
   8  -2  12    0.39    0.11
   8  -2  12    0.80    0.25
  12  -8   2    0.35    0.11
  -2  12   8   -0.06    0.20
 -12   8   2    0.38    0.23
   8   2 -12    0.23    0.11
  -8   2  12    0.52    0.25
  -2 -12  -8    0.27    0.10
  12   8  -2    0.26    0.11
   2 -12   8    0.49    0.11
   2 -12   8   -0.25    0.18
  12   8   2    0.03    0.21
  -8  -2  12    0.76    0.31
   2  12   8    0.33    0.23
  -2 -12   8    1.03    0.22
  12   8   2    0.24    0.10
   8  -2 -12    0.33    0.10
 -12  -8   2   -0.22    0.30
   8   2  12    0.73    0.27
   8   2  12    0.30    0.09
  12  -8  -2    0.31    0.10
  -2 -12   8   -0.06    0.22
 -10   2  12    5.38    0.67
   2 -12  10    5.27    0.47
   2 -12  10    4.90    0.66
  12 -10   2    5.23    0.50
  -2 -12 -10    5.59    0.42
  10  -2  12    5.56    0.63
  10  -2  12    6.13    0.52
  10   2 -12    5.75    0.52
 -12  10   2    5.93    0.58
  12  10  -2    6.29    0.55
  -2  12  10    5.70    0.62
  10   2  12    5.06    0.63
  10   2  12    6.16    0.48
  12 -10  -2    5.93    0.49
  12  10   2    5.46    0.61
  12  10   2    5.96    0.51
 -10  -2  12    6.27    0.74
  -2 -12  10    6.79    0.60
  10  -2 -12    5.69    0.47
   2  12  10    5.62    0.63
  -2 -12  10    6.45    0.75
 -12 -10   2    5.00    0.64
 -12  10  -2    5.19    0.53
  12   0   4  380.43   19.80
  12   0   4  390.02   21.15
   0  -4  12  375.94   21.23
 -12   0   4  390.36   21.16
   0   4  12  404.84   19.71
  12   0  -4  394.96   19.80
   4  12   0  393.69   21.04
   0   4  12  428.13   21.31
   4 -12   0  404.68   19.88
  -4 -12   0  415.87   19.88
  -4  12   0  371.72   20.98
   0  -4  12  387.23   19.91
  12   2  -4    0.70    0.13
  -2   4  12    1.09    0.37
   2  -4  12    0.73    0.18
   4 -12   2    0.84    0.18
  12  -2   4    0.78    0.14
  12  -2   4    1.11    0.22
   2  -4  12    0.80    0.31
  12  -2  -4    0.84    0.14
  -2  -4  12    0.57    0.21
   4  12   2    0.80    0.21
   2   4  12    1.12    0.34
  -4 -12   2    0.92    0.18
 -12  -2   4    0.95    0.29
  -4 -12   2    1.61    0.26
  -2  -4  12    1.09    0.33
  -4   4  12  157.02    8.23
 -12   4   4  165.69    8.89
   4  -4  12  141.91    8.92
  -4   4  12  171.87    9.00
  12   4  -4  162.94    8.31
  -4  12   4  155.75    8.78
   4  -4  12  161.74    8.33
  12  -4   4  170.54    8.32
   4 -12   4  154.01    8.42
   4   4  12  155.50    9.01
   4 -12  -4  173.71    8.27
  12   4   4  174.94    8.97
   4  12   4  157.19    8.82
  12   4   4  155.19    8.28
  -4  -4  12  160.96    8.96
  12  -4  -4  165.53    8.27
   4   4  12  170.65    8.19
 -12  -4   4  172.28    8.96
  -4  -4  12  150.55    8.43
  -4 -12   4  166.67    8.78
  -4 -12   4  173.19    8.46
  -6   4  12    0.59    0.26
   6  -4  12    1.04    0.27
   6  -4  12    0.60    0.14
  12   6  -4    0.44    0.12
   4 -12   6    0.52    0.17
  12  -6   4    0.71    0.13
  -4  12   6    0.73    0.21
 -12   6   4    0.69    0.25
  12  -6  -4    0.54    0.12
   4 -12  -6    0.60    0.10
  -6  -4  12    0.85    0.19
  -4 -12   6    0.80    0.23
  -6  -4  12    1.14    0.31
   6   4  12    0.49    0.24
   6   4  12    0.48    0.09
 -12   6  -4    0.40    0.19
  -4 -12   6    0.84    0.20
   4  12   6    0.78    0.22
 -12  -6   4    0.98    0.33
  12   6   4    0.45    0.12
  12   6   4    0.86    0.26
  -8   4  12  267.36   14.75
   8  -4  12  277.05   13.78
   8  -4  12  268.68   14.73
 -12   8   4  276.35   14.66
   4 -12   8  266.79   14.49
   4 -12   8  249.47   13.94
  12  -8   4  271.82   13.79
  -4  12   8  280.01   14.69
  -4 -12   8  258.38   13.97
 -12   8  -4  258.28   14.58
 -12  -8   4  278.95   14.79
  -4 -12   8  274.86   14.63
  12   8   4  257.57   13.73
  12  -8  -4  268.42   13.71
   4 -12  -8  296.08   13.64
   8  -4 -12  279.82   13.68
  12   8   4  273.01   14.77
   4  12   8  263.44   14.69
  -8  -4  12  287.72   14.79
   4  12   8  275.64   13.67
   8   4  12  288.48   13.69
 -12  10   4    1.16    0.28
   4 -12  10    0.74    0.24
  12  10  -4    0.49    0.15
 -10   4  12    1.34    0.36
  10   4 -12    0.73    0.17
  10  -4  12    0.93    0.27
  10  -4  12    0.62    0.15
  12 -10   4    0.66    0.15
  -4  12  10    0.87    0.27
 -12 -10   4    0.74    0.36
   4  12  10    0.77    0.11
  10   4  12    1.24    0.34
  12 -10  -4    0.97    0.15
   4  12  10    0.55    0.26
  12  10   4    1.11    0.29
  -4 -12  10    1.33    0.31
 -12  10  -4    1.09    0.23
  10  -4 -12    0.80    0.13
 -10  -4  12    0.90    0.34
  12  10   4    0.77    0.16
  10   4  12    0.81    0.14
  -4 -12  10    0.64    0.22
  12   0  -6    0.20    0.08
   6  12   0    0.17    0.10
 -12   0   6    0.33    0.24
   6 -12   0    0.26    0.10
   6  12   0    0.17    0.15
  12   0   6    0.36    0.10
  -6  12   0    0.36    0.11
   0  -6  12    0.21    0.22
   0  -6  12    0.40    0.16
   0   6  12    0.30    0.23
  12   0   6    0.39    0.20
  12   2  -6    4.42    0.41
  12  -2   6    3.73    0.44
 -12   2   6    5.04    0.59
   6 -12   2    3.98    0.42
  12  -2   6    3.82    0.39
   2  -6  12    4.20    0.50
   2  -6  12    3.28    0.48
  -2   6  12    4.09    0.57
  -6  12   2    4.11    0.37
  12   2   6    4.12    0.38
  12  -2  -6    3.90    0.38
   2   6  12    3.74    0.26
   6 -12  -2    4.09    0.38
  -6  12  -2    4.17    0.29
  -6 -12   2    4.57    0.46
   6  12   2    3.87    0.39
   6  12   2    3.99    0.44
 -12  -2   6    4.79    0.57
   2   6  12    4.31    0.57
  12   2   6    3.79    0.50
  -2  -6  12    3.55    0.53
 -12   4   6    0.65    0.26
   6 -12   4    0.60    0.16
  12  -4   6    0.70    0.14
  12  -4   6    0.82    0.21
   4  -6  12    0.45    0.14
   4  -6  12    0.67    0.24
  -4   6  12    0.42    0.24
  -6  12   4    0.54    0.18
  12   4  -6    0.41    0.12
   6 -12  -4    0.46    0.10
  -4  -6  12    1.01    0.22
  -6 -12   4    0.82    0.23
  12  -4  -6    0.47    0.10
   4   6  12    0.91    0.30
   4   6  12    0.44    0.07
  -6 -12   4    0.68    0.17
   6  12   4    0.53    0.21
  12   4   6    0.74    0.25
  -4  -6  12    0.84    0.29
 -12  -4   6    0.95    0.31
   6  12   4    0.58    0.13
  12   4   6    0.35    0.10
 -12   6   6    4.52    0.55
  -6  12   6    4.13    0.44
  12  -6   6    3.55    0.40
   6  -6  12    3.21    0.45
  12   6  -6    4.17    0.42
  -6   6  12    4.57    0.58
  12  -6   6    3.11    0.39
   6 -12   6    3.68    0.47
   6  -6  12    2.81    0.41
  12  -6  -6    3.51    0.36
   6  -6 -12    4.23    0.30
  -6  -6  12    3.40    0.52
   6 -12  -6    4.68    0.34
   6   6  12    4.08    0.55
   6   6  12    4.39    0.32
  -6  -6  12    3.80    0.51
  -6 -12   6    4.36    0.53
   6  12   6    3.28    0.46
 -12  -6   6    4.05    0.58
  12   6   6    3.83    0.51
  12   6   6    3.53    0.37
   6  12   6    4.15    0.38
  -6 -12   6    3.62    0.49
   8  -6  12    0.58    0.20
 -12   8   6    0.34    0.24
  -8   6  12    0.39    0.25
  12  -8   6    0.27    0.10
   6 -12   8    0.02    0.14
   8  -6  12    0.32    0.13
  12   8  -6    0.31    0.13
  -6  12   8   -0.03    0.18
  12   8   6    0.07    0.10
  -8  -6  12    0.26    0.25
   8   6  12    0.20    0.08
   8  -6 -12    0.19    0.07
 -12   8  -6    0.08    0.18
  12  -8  -6    0.17    0.08
   6 -12  -8    0.22    0.07
  -6 -12   8    0.37    0.24
  -6 -12   8   -0.08    0.15
   8   6  12    0.42    0.23
   6  12   8    0.24    0.09
 -12  -8   6    0.25    0.33
  12   8   6    0.21    0.24
   6  12   8    0.12    0.18
  -8  -6  12    0.48    0.16
  10  -6  12    0.40    0.21
   6 -12  10    0.34    0.19
  -6  12  10    0.48    0.24
 -12  10   6    0.55    0.25
  10  -6  12    0.22    0.13
  12 -10   6    0.38    0.14
  12  10  -6    0.29    0.14
  10   6 -12    0.16    0.13
 -10   6  12    0.35    0.27
  10   6  12    0.28    0.24
 -12  10  -6    0.50    0.19
  10  -6 -12    0.27    0.09
  -6 -12  10    0.20    0.17
   6  12  10    0.30    0.10
  12 -10  -6    0.21    0.09
  12  10   6    0.58    0.25
  12  10   6    0.19    0.11
  10   6  12    0.19    0.09
 -12 -10   6    0.24    0.35
 -10  -6  12    0.19    0.35
  -6 -12  10    0.39    0.27
   6  12  10    0.20    0.24
  12   0  -8  149.58    7.57
   0   8  12  152.25    8.27
 -12   0   8  154.16    8.21
  12   0   8  146.02    8.18
   8  12   0  147.20    7.61
  12   0   8  147.18    7.59
  -8  12   0  142.96    7.96
   8 -12   0  159.25    7.62
   0  -8  12  149.30    7.82
   0  -8  12  134.62    8.15
   8  12  -2    0.37    0.13
  -8  12   2    0.63    0.17
   2  -8  12   -0.08    0.15
   2  -8  12    0.01    0.23
 -12   2   8    0.90    0.32
  12  -2   8    0.59    0.20
  12   2  -8    0.33    0.10
   8 -12   2    0.55    0.14
  12  -2   8    0.42    0.12
  -2   8  12   -0.14    0.24
  -2  -8  12    0.70    0.28
  12  -2  -8    0.33    0.11
  -8 -12   2   -0.10    0.25
   8  12   2    0.32    0.12
   8 -12  -2    0.49    0.11
  12   2   8    0.64    0.24
  12   2   8    0.33    0.11
   8  12   2    0.06    0.18
  -8  12  -2   -0.09    0.15
   2   8  12   -0.02    0.28
  -2  -8  12   -0.21    0.19
 -12  -2   8    0.56    0.28
  12   4  -8  290.73   13.94
  12  -4   8  290.22   13.94
 -12   4   8  266.05   14.87
   8  12  -4  244.78   13.93
   8 -12   4  275.20   13.99
   4  -8  12  253.43   14.02
   4  -8  12  257.92   14.82
  12  -4   8  278.77   14.83
  -4   8  12  276.75   14.94
  -8  12   4  275.31   14.74
  -8  12  -4  262.39   14.65
  -8 -12   4  259.09   14.81
  -4  -8  12  282.85   14.91
  -4  -8  12  284.59   14.17
   4   8  12  277.42   14.99
   8  12   4  274.37   14.85
   8  12   4  289.23   13.89
  12  -4  -8  266.99   13.85
   4   8  12  288.22   13.77
  12   4   8  276.02   14.95
  12   4   8  278.79   13.88
   8 -12  -4  290.80   13.86
 -12  -4   8  290.95   14.95
  12   6  -8    0.23    0.11
  -6   8  12    0.00    0.25
   6  -8  12    0.18    0.18
   6  -8  12    0.22    0.16
   8 -12   6    0.32    0.14
  12  -6   8    0.69    0.20
  -8  12   6    0.37    0.18
 -12   6   8    0.74    0.29
  12  -6   8    0.37    0.13
   6   8  12    0.27    0.07
   6   8  12    0.11    0.25
   8  12   6    0.20    0.10
  12   6   8    0.41    0.22
  12   6   8    0.20    0.10
   8 -12  -6    0.26    0.08
  -6  -8  12   -0.05    0.16
  12  -6  -8    0.13    0.09
  -6  -8  12    0.53    0.30
 -12  -6   8    0.76    0.31
  -8 -12   6    0.10    0.26
   8  12   6    0.08    0.18
   8  -8  12  148.65    8.30
  12  -8   8  146.75    7.86
 -12   8   8  144.39    8.35
   8  -8  12  156.29    7.92
  12  -8   8  151.41    8.26
  12   8  -8  143.01    7.85
   8 -12   8  159.65    7.98
  -8   8  12  148.15    8.39
  -8  12   8  141.77    8.31
  -8 -12   8  157.25    8.37
  12   8   8  149.01    8.46
  12   8   8  143.50    7.75
   8   8  12  156.57    7.70
   8  12   8  157.26    7.74
  -8  -8  12  152.81    8.44
  -8  -8  12  166.76    8.00
  -8 -12   8  157.34    7.97
 -12  -8   8  157.19    8.47
   8 -12  -8  152.10    7.68
   8   8  12  153.39    8.50
  12  -8  -8  155.01    7.73
   8  12   8  148.84    8.39
 -10   8  12    0.52    0.26
  -8  12  10    0.42    0.24
  12 -10   8    0.26    0.12
  10  -8  12    0.68    0.22
  12  10  -8    0.28    0.15
 -12  10   8    0.56    0.28
   8 -12  10    0.34    0.17
  10  -8  12    0.41    0.15
   8  12  10    0.25    0.25
  -8 -12  10    0.15    0.31
  10   8  12    0.25    0.09
  12  10   8    0.18    0.11
 -12 -10   8    0.54    0.35
  12  10   8    0.68    0.28
  12 -10  -8    0.19    0.09
  -8 -12  10    0.47    0.20
  10   8  12    0.15    0.26
   8  12  10    0.35    0.11
 -10  -8  12    0.64    0.38
   0 -10  12    0.42    0.24
 -10  12   0    0.16    0.17
  12   0  10    0.24    0.11
 -12   0  10    0.95    0.32
   0  10  12    0.09    0.23
  12   0  10    0.53    0.24
   0 -10  12    0.23    0.20
 -10 -12   0    0.31    0.23
  10 -12   0    0.39    0.12
  10  12   0    0.15    0.12
  12   0 -10    0.21    0.10
  -2  10  12    5.94    0.68
 -12   2  10    5.89    0.67
 -10  12   2    5.41    0.51
  10 -12   2    5.35    0.51
  12  -2  10    5.95    0.62
  12  -2  10    5.69    0.51
  12   2 -10    6.15    0.52
  10  12  -2    5.91    0.55
   2 -10  12    5.12    0.56
   2 -10  12    4.45    0.63
  12   2  10    6.02    0.67
 -10 -12   2    5.62    0.65
  10  12   2    5.83    0.62
  -2 -10  12    5.48    0.70
  12   2  10    5.91    0.50
  10 -12  -2    5.89    0.50
 -10  12  -2    5.77    0.49
  10  12   2    5.41    0.50
  12  -2 -10    6.05    0.49
 -12  -2  10    6.21    0.71
  -2 -10  12    5.76    0.63
   2  10  12    6.33    0.70
  10 -12   4    0.82    0.18
 -12   4  10    1.20    0.34
 -10  12   4    0.97    0.23
  12   4 -10    0.74    0.16
  12  -4  10    1.20    0.28
  -4  10  12    1.29    0.34
   4 -10  12    0.89    0.24
   4 -10  12    0.56    0.22
  12  -4  10    0.49    0.15
  10  12  -4    0.87    0.18
  -4 -10  12    0.39    0.21
  10 -12  -4    0.89    0.14
  10  12   4    0.65    0.24
 -12  -4  10    1.33    0.40
   4  10  12    1.08    0.31
 -10 -12   4    0.92    0.31
 -10  12  -4    0.93    0.19
  -4 -10  12    0.68    0.28
  12   4  10    1.32    0.32
  12   4  10    0.87    0.15
  12  -4 -10    0.45    0.12
  10  12   4    0.48    0.13
  12  -6  10    0.38    0.19
  10 -12   6    0.31    0.14
  10  12  -6    0.49    0.17
   6 -10  12    0.14    0.17
  12  -6  10    0.16    0.12
  12   6 -10    0.22    0.14
 -10  12   6    0.27    0.19
 -12   6  10    0.50    0.32
   6 -10  12    0.37    0.18
  -6  10  12    0.30    0.24
  -6 -10  12    0.42    0.21
 -12  -6  10    0.57    0.33
   6  10  12    0.47    0.25
  -6 -10  12    0.26    0.28
  10 -12  -6    0.24    0.09
  12   6  10    0.51    0.26
  12   6  10    0.21    0.11
  10  12   6    0.25    0.25
  10  12   6    0.38    0.12
 -10 -12   6    0.72    0.31
  12  -6 -10    0.08    0.09
   6  10  12    0.27    0.08
  -8  10  12    0.38    0.23
   8 -10  12    0.44    0.16
  12   8 -10    0.24    0.15
  12  -8  10    0.34    0.16
  12  -8  10    0.27    0.13
   8 -10  12    0.31    0.17
 -12   8  10    0.25    0.27
  10 -12   8    0.15    0.12
 -10  12   8    0.17    0.22
 -10 -12   8    0.71    0.34
  -8 -10  12    0.22    0.16
  12   8  10    0.27    0.24
  12   8  10    0.19    0.11
 -12  -8  10    0.37    0.32
   8  10  12    0.43    0.26
   8  10  12    0.25    0.09
  10 -12  -8    0.29    0.09
  -8 -10  12    0.60    0.31
  10  12   8    0.43    0.27
  10  12   8    0.32    0.11
  12  -8 -10    0.20    0.09
  10 -12  10   19.92    1.42
 -12  10  10   21.48    1.44
  12 -10  10   19.33    1.36
  12  10 -10   19.99    1.37
  10 -10  12   17.90    1.36
  12 -10  10   19.22    1.28
 -10  10  12   20.15    1.44
 -10  12  10   20.95    1.42
  10 -10  12   19.51    1.30
 -12 -10  10   20.46    1.56
 -10 -10  12   19.74    1.54
  10  10  12   21.20    1.55
  10  10  12   21.02    1.20
  10  12  10   19.97    1.48
  10  12  10   20.76    1.22
  12 -10 -10   20.35    1.19
 -10 -10  12   20.72    1.43
 -10 -12  10   20.34    1.51
 -10 -12  10   21.90    1.47
  12  10  10   19.96    1.51
  12  10  10   20.57    1.23
 -12 -12   0  204.63   10.88
 -12   0  12  186.96   10.86
 -12  12   0  191.52   10.65
   0 -12  12  202.68   10.74
   0 -12  12  211.99   10.44
   0  12  12  208.92   10.91
  12 -12   0  189.06   10.08
  12   0 -12  195.68   10.06
  12   0  12  192.12   10.88
  12   0  12  195.03   10.07
  12  12   0  198.19   10.11
  12  -2  12    0.29    0.12
  12   2 -12    0.28    0.13
 -12   2  12    0.67    0.35
  12  -2  12    0.93    0.29
 -12  12   2    0.29    0.24
  12  12  -2    0.30    0.15
  12 -12   2    0.43    0.14
  -2  12  12   -0.18    0.27
   2 -12  12   -0.12    0.20
   2 -12  12   -0.10    0.25
   2  12  12   -0.08    0.30
  -2 -12  12    0.87    0.28
  -2 -12  12   -0.04    0.21
  12  -2 -12    0.46    0.12
 -12  12  -2   -0.24    0.22
 -12 -12   2   -0.28    0.33
 -12  -2  12    0.31    0.30
  12   2  12    0.88    0.30
  12   2  12    0.35    0.11
  12 -12  -2    0.28    0.11
  12  12   2    0.38    0.25
  12  12   2    0.31    0.13
  12   4 -12   96.90    4.97
  -4  12  12  100.24    5.39
 -12   4  12   93.06    5.36
  12  12  -4   90.27    4.98
 -12  12   4   89.26    5.20
  12  -4  12   97.03    5.34
  12  -4  12   90.12    4.94
  12 -12   4   92.79    4.98
   4 -12  12   86.16    5.15
   4  12  12   95.02    5.40
  12 -12  -4   94.22    4.88
 -12  -4  12   90.78    5.40
  12  -4 -12   90.71    4.85
  -4 -12  12  103.03    5.33
  -4 -12  12   99.06    5.26
 -12 -12   4   91.68    5.36
  12   4  12   87.59    5.40
  12   4  12   93.13    4.88
 -12  12  -4   92.58    5.14
  12  12   4  100.26    5.37
  12  12   4   95.18    4.92
  -6  12  12    0.05    0.27
  12  -6  12    0.58    0.23
 -12   6  12    0.38    0.31
 -12  12   6    0.61    0.27
  12 -12   6    0.36    0.15
  12  -6  12    0.42    0.16
  12  12  -6    0.46    0.18
   6 -12  12    0.03    0.18
  12   6 -12    0.30    0.16
 -12 -12   6    0.20    0.34
  -6 -12  12    0.79    0.31
  12  -6 -12    0.17    0.10
 -12  -6  12    0.82    0.39
  -6 -12  12   -0.09    0.19
   6  12  12    0.51    0.30
  12   6  12    0.79    0.30
  12   6  12    0.14    0.11
  12 -12  -6    0.21    0.10
  12  12   6    0.22    0.26
  12  12   6    0.22    0.12
  12  -8  12  141.04    8.01
  12  12  -8  137.78    7.63
 -12   8  12  150.07    8.13
 -12  12   8  142.91    8.03
  12  -8  12  134.42    7.61
  12   8 -12  151.01    7.66
  -8  12  12  143.95    8.11
   8 -12  12  134.13    7.72
  12 -12   8  139.66    7.65
  12 -12  -8  149.94    7.46
   8  12  12  144.01    8.18
 -12 -12   8  146.06    8.18
  -8 -12  12  155.67    8.16
  -8 -12  12  151.03    7.81
  12   8  12  147.10    8.24
  12   8  12  146.82    7.47
 -12  -8  12  150.62    8.23
  12  12   8  154.44    8.19
  12  12   8  157.57    7.52
  12 -10  12    0.32    0.16
  12 -12  10    0.33    0.17
 -12  10  12    0.43    0.29
 -12  12  10    0.55    0.28
  12 -10  12    0.52    0.19
  10 -12  12    0.20    0.17
 -10  12  12    0.33    0.28
 -10 -12  12    0.30    0.20
  10  12  12    0.09    0.27
 -12 -10  12    0.52    0.35
 -10 -12  12    0.39    0.41
 -12 -12  10    0.58    0.42
  12  10  12    0.71    0.31
  12  10  12    0.23    0.12
  12  12  10    0.35    0.30
  12  12  10    0.33    0.13
  12 -12  12   45.58    2.75
 -12  12  12   43.94    2.80
 -12 -12  12   47.66    2.80
 -12 -12  12   44.19    2.92
  12  12  12   46.69    2.93
  12  12  12   47.69    2.53
 -13  -1  -1   -0.04    0.16
  13   1  -1   -0.07    0.05
   1  13  -1   -0.05    0.07
 -13   1   1   -0.06    0.17
  -1 -13  -1    0.07    0.10
  13  -1   1   -0.02    0.06
   1  -1  13    0.03    0.07
   1  -1  13   -0.02    0.16
  -1   1  13   -0.32    0.18
  -1   1  13    0.03    0.06
  -1  13   1   -0.02    0.08
   1 -13   1   -0.07    0.08
   1 -13  -1    0.02    0.10
  -1  -1  13   -0.05    0.08
  -1  -1  13   -0.04    0.18
   1   1  13   -0.09    0.21
   1   1  13    0.03    0.05
 -13   1  -1   -0.03    0.15
   1  13   1    0.08    0.09
  13  -1  -1    0.04    0.08
  -1 -13   1   -0.12    0.11
 -13  -1   1   -0.09    0.17
  13   1   1    0.01    0.07
  -3   1  13   -0.02    0.08
 -13  -3  -1   -0.08    0.16
  13   3  -1    0.08    0.08
   1 -13   3    0.16    0.14
 -13   3   1    0.06    0.18
   3  -1  13    0.11    0.22
  13  -3   1    0.03    0.07
  -3   1  13   -0.13    0.17
  -1  13   3    0.07    0.11
  -1 -13  -3   -0.06    0.10
   3  -1  13   -0.04    0.05
  -1 -13   3    0.10    0.10
  13  -3  -1   -0.03    0.07
   1 -13  -3   -0.01    0.08
 -13   3  -1    0.20    0.19
   1  13   3   -0.09    0.09
  -3  -1  13   -0.02    0.20
  -1 -13   3    0.10    0.13
   3   1  13    0.04    0.18
   3   1  13    0.01    0.05
  13   3   1    0.02    0.08
  -3  -1  13    0.04    0.11
 -13  -3   1    0.05    0.17
 -13   5   1    3.49    0.46
   5  -1  13    3.60    0.34
 -13  -5  -1    3.29    0.49
   5  -1  13    2.44    0.44
  13  -5   1    3.40    0.36
  13   5  -1    4.01    0.39
  -5   1  13    2.98    0.46
  -5   1  13    3.64    0.39
  -1  13   5    3.38    0.39
  -1 -13  -5    3.78    0.39
 -13  -5   1    2.95    0.45
   5   1  13    3.40    0.31
  -5  -1  13    3.17    0.48
  -5  -1  13    2.99    0.39
  13   5   1    3.59    0.38
 -13   5  -1    3.79    0.44
  -1 -13   5    4.35    0.36
   5   1  13    2.83    0.48
   1  13   5    3.21    0.37
   1 -13  -5    3.57    0.38
  13  -5  -1    3.05    0.34
  13  -7   1    0.10    0.09
  -1 -13  -7    0.02    0.10
   1 -13   7    0.13    0.14
   7  -1  13    0.17    0.23
   7  -1  13    0.05    0.08
 -13  -7  -1    0.28    0.24
  13   7  -1    0.15    0.10
 -13   7   1    0.38    0.21
  -1  13   7   -0.03    0.17
  -7   1  13   -0.07    0.20
   1  13   7    0.02    0.17
   7   1  13    0.45    0.26
   7   1  13    0.16    0.08
  13   7   1    0.15    0.10
  -7  -1  13    0.13    0.12
  13  -7  -1    0.13    0.09
  -1 -13   7    0.03    0.13
  -1 -13   7    0.27    0.15
 -13   7  -1    0.12    0.19
 -13  -7   1    0.21    0.25
  -7  -1  13   -0.02    0.21
   1 -13  -7    0.13    0.08
 -13   9   1    0.59    0.24
  -1 -13  -9    0.38    0.11
  13   9  -1    0.34    0.13
 -13  -9  -1    0.95    0.32
  -9   1  13    0.88    0.30
   9   1 -13    0.39    0.13
  13  -9   1    0.33    0.11
   9  -1  13    0.78    0.30
   9  -1  13    0.53    0.13
   1 -13   9    0.43    0.21
  -1  13   9    0.38    0.25
   9   1  13    0.63    0.12
  -9  -1  13    0.47    0.27
   9  -1 -13    0.50    0.13
  -1 -13   9    0.25    0.20
   1  13   9    0.50    0.24
  -1 -13   9    0.82    0.21
  13  -9  -1    0.53    0.13
   9   1  13    0.80    0.30
 -13   9  -1    0.51    0.23
  13   9   1    0.43    0.12
 -13  -9   1    0.45    0.27
 -11   1  13   -0.31    0.24
  11   1 -13   -0.14    0.09
   1 -13  11   -0.25    0.15
  13  11  -1   -0.11    0.10
 -13 -11  -1    0.13    0.24
  11  -1  13   -0.02    0.09
  13 -11   1   -0.12    0.07
 -13  11   1   -0.03    0.22
  11  -1  13   -0.21    0.22
  -1  13  11   -0.20    0.19
 -13 -11   1   -0.07    0.26
  11   1  13   -0.35    0.21
 -13  11  -1   -0.38    0.19
  11  -1 -13   -0.02    0.09
  11   1  13   -0.08    0.08
  -1 -13  11    0.13    0.20
  -1 -13  11   -0.19    0.19
   1  13  11   -0.25    0.20
 -11  -1  13   -0.45    0.26
  13 -11  -1   -0.08    0.07
  13  11   1   -0.05    0.11
  13  -1   3    0.01    0.07
  -3 -13  -1    0.04    0.10
   1  -3  13    0.10    0.09
   1  -3  13   -0.15    0.16
  13   1  -3    0.06    0.06
  -1   3  13    0.10    0.21
  -1   3  13    0.02    0.04
   3 -13   1    0.05    0.11
 -13   1   3   -0.12    0.16
  -3  13   1    0.01    0.09
 -13   1  -3    0.01    0.17
  -1  -3  13    0.08    0.10
  -1  -3  13   -0.06    0.21
   3  13   1   -0.03    0.11
 -13  -1   3    0.06    0.18
   1   3  13   -0.07    0.16
   1   3  13    0.06    0.04
  13   1   3   -0.02    0.07
  -3 -13   1    0.04    0.12
  13  -1  -3    0.00    0.07
   3 -13  -1    0.00    0.08
   3  -3  13    0.00    0.07
   3 -13   3   -0.06    0.10
 -13   3   3    0.05    0.21
  -3 -13  -3   -0.07    0.07
  -3   3  13   -0.03    0.05
  13  -3   3   -0.04    0.06
  13   3  -3    0.03    0.07
   3  -3  13   -0.11    0.18
  -3  13   3   -0.04    0.10
  -3   3  13   -0.17    0.17
   3  13   3   -0.10    0.10
 -13  -3   3    0.01    0.18
   3 -13  -3    0.01    0.07
  -3 -13   3   -0.05    0.09
   3   3  13    0.00    0.05
  13   3   3    0.00    0.15
  13   3   3    0.01    0.07
   3   3  13   -0.17    0.18
  -3 -13   3   -0.07    0.11
  13  -3  -3    0.01    0.07
  -3  -3  13   -0.14    0.09
  -3  -3  13   -0.11    0.20
 -13   3  -3   -0.03    0.15
  -3 -13  -5    0.42    0.12
  13  -5   3    0.47    0.12
  -5   3  13    0.58    0.28
   5  -3  13    0.71    0.27
   5  -3  13    0.47    0.12
  -5   3  13    0.37    0.11
   3 -13   5    0.48    0.18
 -13   5   3    0.63    0.26
  -3  13   5    0.59    0.20
  13   5  -3    0.39    0.12
   5   3  13    0.36    0.09
   5   3  13    0.46    0.26
  13   5   3    0.37    0.11
  13  -5  -3    0.36    0.10
 -13  -5   3    0.52    0.28
 -13   5  -3    0.62    0.20
  -3 -13   5    0.40    0.18
  -3 -13   5    0.62    0.20
  -5  -3  13    0.32    0.15
  13   5   3    0.49    0.22
   3 -13  -5    0.36    0.10
  -5  -3  13    0.43    0.28
   3  13   5    0.63    0.20
  -3  13   7    0.54    0.22
   3 -13   7    0.45    0.19
   7  -3  13    0.46    0.25
  -3 -13  -7    0.50    0.11
  13   7  -3    0.31    0.13
 -13   7   3    0.55    0.27
  13  -7   3    0.34    0.12
  -7   3  13    0.34    0.24
   7  -3  13    0.37    0.12
   7   3  13    0.44    0.10
  -7  -3  13    0.05    0.27
 -13   7  -3    0.49    0.21
  13   7   3    0.46    0.13
  -3 -13   7    0.87    0.23
  13  -7  -3    0.31    0.10
 -13  -7   3    0.45    0.28
  13   7   3    0.46    0.27
   7   3  13    0.44    0.30
  -3 -13   7    0.16    0.18
   3 -13  -7    0.41    0.09
   3  13   7    0.43    0.21
  -7  -3  13    0.54    0.16
   9   3 -13   -0.09    0.08
  -3  13   9   -0.21    0.16
 -13   9   3   -0.13    0.23
  13  -9   3   -0.05    0.08
  13   9  -3   -0.01    0.10
  -9   3  13   -0.10    0.19
   9  -3  13   -0.02    0.08
  -3 -13  -9   -0.03    0.07
   3 -13   9   -0.12    0.12
   9  -3  13   -0.10    0.15
  13   9   3    0.01    0.19
  13  -9  -3   -0.08    0.07
   9   3  13   -0.15    0.18
  13   9   3   -0.07    0.08
  -3 -13   9    0.13    0.20
  -3 -13   9   -0.18    0.15
   9   3  13    0.00    0.07
  -9  -3  13   -0.07    0.23
   3  13   9   -0.02    0.19
   9  -3 -13   -0.10    0.06
 -13  -9   3   -0.23    0.21
 -13   9  -3   -0.25    0.15
  13  11  -3    0.33    0.18
 -13  11   3    0.57    0.31
  11  -3  13    0.41    0.28
  -3  13  11    0.44    0.27
   3 -13  11    0.36    0.22
 -11   3  13    0.15    0.32
  11   3 -13    0.49    0.16
  11  -3  13    0.59    0.15
  13 -11   3    0.46    0.16
  13  11   3    0.65    0.31
  11   3  13    0.32    0.13
   3  13  11    0.23    0.29
  -3 -13  11    0.85    0.29
  13 -11  -3    0.43    0.13
  13  11   3    0.53    0.15
 -11  -3  13    0.99    0.42
  11   3  13    0.58    0.32
  -3 -13  11    0.27    0.20
 -13 -11   3    0.27    0.36
  11  -3 -13    0.34    0.13
 -13  11  -3    1.03    0.26
   1  -5  13    3.30    0.44
  -1   5  13    3.84    0.54
   1  -5  13    2.75    0.47
  13   1  -5    3.66    0.37
   5 -13   1    3.82    0.43
  13  -1   5    3.67    0.46
  -5 -13  -1    3.81    0.42
  -5  13   1    3.33    0.31
  13  -1   5    3.87    0.39
 -13   1   5    3.84    0.52
   5  13   1    3.57    0.39
 -13  -1   5    3.53    0.52
  13   1   5    3.96    0.49
  13   1   5    3.19    0.35
  -5 -13   1    3.52    0.41
   1   5  13    3.60    0.53
   1   5  13    3.64    0.24
  13  -1  -5    3.69    0.37
  -1  -5  13    2.45    0.46
   5 -13  -1    4.29    0.42
  -3   5  13    0.44    0.25
  13   3  -5    0.46    0.13
 -13   3   5    0.44    0.28
   3  -5  13    0.62    0.25
   3  -5  13    0.36    0.14
  13  -3   5    0.52    0.20
  -5  13   3    0.61    0.17
   5 -13   3    0.45    0.16
  13  -3   5    0.43    0.12
  13   3   5    0.23    0.20
 -13  -3   5    0.86    0.31
  13   3   5    0.45    0.12
  -5 -13   3    0.58    0.20
  -3  -5  13    0.29    0.18
   5  13   3    0.61    0.19
   3   5  13    0.71    0.29
  -5 -13   3    0.39    0.15
  13  -3  -5    0.42    0.11
  -3  -5  13    0.37    0.26
   3   5  13    0.48    0.07
   5 -13  -3    0.42    0.11
   5  -5  13    0.07    0.09
   5  -5  13   -0.05    0.16
   5 -13   5   -0.02    0.11
  -5  13   5   -0.21    0.13
  -5   5  13   -0.30    0.17
  -5   5  13    0.02    0.06
  13  -5   5   -0.10    0.06
 -13   5   5   -0.15    0.22
  13   5  -5   -0.04    0.08
   5  13   5   -0.12    0.12
  13  -5  -5   -0.08    0.06
  -5 -13   5   -0.20    0.14
   5   5  13    0.05    0.19
  13   5   5   -0.09    0.14
  13   5   5    0.05    0.08
  -5 -13   5    0.02    0.11
   5   5  13   -0.05    0.04
 -13  -5   5    0.01    0.25
  -5  -5  13   -0.01    0.12
   5 -13  -5    0.01    0.06
  -5  -5  13   -0.20    0.16
  13   7  -5    0.60    0.15
   7  -5  13    0.81    0.27
 -13   7   5    0.91    0.30
  -5  13   7    1.13    0.26
   7  -5  13    0.30    0.14
   5 -13   7    0.64    0.21
  13  -7   5    0.81    0.16
  -7   5  13    0.62    0.29
  -7  -5  13    0.84    0.35
  -7  -5  13    0.55    0.19
  13  -7  -5    0.36    0.12
 -13  -7   5    0.98    0.33
  -5 -13   7    0.65    0.19
  13   7   5    0.62    0.26
   7   5  13    0.46    0.27
  13   7   5    0.46    0.14
 -13   7  -5    0.71    0.21
   7   5  13    0.62    0.11
   7  -5 -13    0.49    0.11
   5  13   7    0.79    0.24
   5  13   7    0.56    0.12
  -5 -13   7    0.59    0.26
 -13   9   5    0.15    0.25
   9  -5  13    0.26    0.19
   9  -5  13    0.17    0.12
  -9   5  13   -0.33    0.21
  13  -9   5    0.06    0.11
  -5  13   9   -0.13    0.18
  13   9  -5   -0.02    0.10
   5 -13   9   -0.05    0.13
   5  13   9    0.06    0.08
  -5 -13   9    0.01    0.24
  -5 -13   9   -0.03    0.16
  13   9   5    0.07    0.10
  13   9   5    0.01    0.19
 -13  -9   5   -0.15    0.27
   5  13   9   -0.21    0.16
   9  -5 -13    0.05    0.07
   9   5  13   -0.20    0.16
   9   5  13   -0.01    0.07
  13  -9  -5    0.02    0.08
 -13   9  -5    0.06    0.16
  -9  -5  13    0.14    0.31
 -11   5  13    1.40    0.36
  13 -11   5    1.22    0.21
 -13  11   5    1.34    0.35
  11  -5  13    1.31    0.33
  11  -5  13    0.70    0.18
  11   5 -13    1.07    0.23
   5 -13  11    0.84    0.25
  13  11  -5    1.02    0.21
  -5  13  11    1.45    0.35
   5  13  11    1.51    0.37
 -13 -11   5    1.15    0.42
 -13  11  -5    1.47    0.26
  -5 -13  11    1.46    0.37
  -5 -13  11    0.95    0.28
  11   5  13    1.56    0.42
  11   5  13    0.95    0.16
  13 -11  -5    1.00    0.17
  13  11   5    1.56    0.38
 -11  -5  13    1.64    0.46
  11  -5 -13    0.92    0.15
  13  11   5    0.75    0.17
 -13   1   7    0.24    0.25
  13  -1   7    0.10    0.10
  13   1  -7    0.02    0.09
   1  -7  13    0.13    0.15
   1  -7  13   -0.02    0.22
   7  13  -1   -0.07    0.11
  -7  13   1   -0.09    0.12
  13  -1   7    0.17    0.19
  -1   7  13   -0.01    0.24
   7 -13   1   -0.04    0.09
   1   7  13    0.23    0.23
  -7  13  -1   -0.18    0.10
  -7 -13   1   -0.35    0.21
   7 -13  -1    0.16    0.09
   7  13   1    0.16    0.15
  13   1   7    0.11    0.10
  13  -1  -7    0.00    0.08
   7  13   1    0.07    0.10
  13   1   7    0.11    0.18
  -1  -7  13   -0.19    0.24
 -13  -1   7    0.20    0.28
  -1  -7  13    0.08    0.14
  13  -3   7    0.36    0.12
   3  -7  13    0.21    0.21
 -13   3   7    0.50    0.32
  -7  13   3    0.65    0.17
  13   3  -7    0.35    0.13
   7 -13   3    0.34    0.13
  13  -3   7    0.55    0.21
  -3   7  13    0.48    0.27
   3  -7  13    0.35    0.17
  13   3   7    0.42    0.26
  -7 -13   3    0.62    0.25
  13   3   7    0.41    0.11
   3   7  13    0.38    0.06
   7 -13  -3    0.22    0.10
   3   7  13    0.71    0.32
   7  13   3    0.64    0.22
   7  13   3    0.24    0.13
  13  -3  -7    0.35    0.11
  -3  -7  13    0.04    0.26
  -3  -7  13    0.26    0.18
 -13  -3   7    0.78    0.31
  13  -5   7    0.68    0.23
  -5   7  13    0.51    0.28
   7 -13   5    0.63    0.19
   5  -7  13    0.53    0.17
  -7  13   5    0.43    0.21
 -13   5   7    0.71    0.29
   5  -7  13    1.07    0.27
  13  -5   7    0.69    0.16
  13   5  -7    0.37    0.14
  13   5   7    0.68    0.27
  13  -5  -7    0.48    0.13
  -7 -13   5    1.09    0.28
  -7 -13   5    0.72    0.19
  -5  -7  13    0.60    0.30
 -13  -5   7    0.81    0.35
   5   7  13    0.61    0.09
  13   5   7    0.51    0.13
   5   7  13    1.11    0.33
   7  13   5    0.46    0.22
  -5  -7  13    0.53    0.20
   7  13   5    0.69    0.14
   7 -13  -5    0.49    0.11
   7  -7  13   -0.07    0.16
   7 -13   7    0.03    0.13
  -7   7  13   -0.03    0.20
  13  -7   7   -0.13    0.07
  13   7  -7   -0.25    0.11
  -7  13   7   -0.11    0.14
   7  -7  13   -0.09    0.08
 -13   7   7   -0.39    0.24
   7 -13  -7   -0.04    0.06
   7  13   7   -0.14    0.09
   7   7  13   -0.20    0.17
  13  -7  -7   -0.08    0.06
  13   7   7   -0.09    0.07
  -7 -13   7   -0.02    0.12
  13   7   7   -0.13    0.21
  -7  -7  13   -0.06    0.13
  -7  -7  13   -0.45    0.23
   7  13   7   -0.04    0.16
 -13  -7   7    0.00    0.29
   7   7  13   -0.07    0.06
  -7 -13   7   -0.02    0.22
  -7  13   9    0.13    0.21
  13  -9   7    0.29    0.14
   7 -13   9    0.24    0.18
   9  -7  13    0.19    0.14
   9  -7  13    0.23    0.20
  -9   7  13    0.00    0.23
  13   9  -7   -0.01    0.12
 -13   9   7    0.12    0.27
   9   7  13    0.01    0.24
  -9  -7  13    0.18    0.33
  -7 -13   9   -0.05    0.25
  13  -9  -7    0.10    0.09
  -9  -7  13    0.20    0.16
  13   9   7    0.11    0.09
  -7 -13   9    0.12    0.16
 -13  -9   7    0.02    0.32
   9   7  13    0.11    0.08
  13   9   7    0.23    0.25
 -13   9  -7    0.33    0.19
   7  13   9    0.09    0.09
   7  13   9    0.08    0.21
 -11   7  13   -0.11    0.23
  13  11  -7   -0.12    0.13
  11  -7  13   -0.12    0.11
  13 -11   7   -0.13    0.10
   7 -13  11   -0.07    0.14
  -7  13  11   -0.22    0.21
  13  11   7   -0.04    0.09
  -7 -13  11    0.00    0.16
 -11  -7  13   -0.30    0.31
   7  13  11    0.02    0.23
  13 -11  -7   -0.04    0.08
 -13 -11   7    0.22    0.35
  -7 -13  11    0.28    0.31
  11   7  13   -0.29    0.23
  11   7  13   -0.14    0.07
  13  11   7   -0.15    0.24
 -13  11  -7   -0.04    0.17
   1  -9  13    0.57    0.25
   9 -13   1    0.47    0.14
 -13   1   9    1.10    0.35
  13  -1   9    0.43    0.23
  13   1  -9    0.33    0.12
  -9  13   1    0.44    0.18
  -1   9  13    0.33    0.30
   1  -9  13    0.42    0.22
   9  13  -1    0.28    0.13
  13  -1   9    0.35    0.13
  -9  13  -1    0.53    0.17
  13  -1  -9    0.45    0.12
  13   1   9    0.49    0.13
 -13  -1   9    0.66    0.31
  -9 -13   1    0.69    0.27
   9  13   1    0.41    0.20
   9  13   1    0.18    0.13
  13   1   9    0.54    0.27
  -1  -9  13    0.13    0.18
   1   9  13    0.69    0.31
  -1  -9  13    0.62    0.27
   9 -13  -1    0.59    0.14
   9 -13   3   -0.04    0.10
   3  -9  13   -0.10    0.10
  -9  13   3   -0.18    0.13
  13  -3   9   -0.10    0.12
  13  -3   9    0.00    0.10
  -3   9  13   -0.24    0.19
 -13   3   9   -0.15    0.25
  13   3  -9   -0.02    0.09
   3  -9  13   -0.15    0.15
   9  13  -3   -0.06    0.10
   9 -13  -3    0.00    0.07
  -3  -9  13   -0.17    0.16
  -3  -9  13   -0.29    0.19
   9  13   3   -0.05    0.15
  -9 -13   3   -0.18    0.20
  13   3   9   -0.05    0.08
   3   9  13   -0.29    0.20
  13  -3  -9   -0.05    0.07
   9  13   3   -0.19    0.08
 -13  -3   9    0.18    0.29
  13   3   9   -0.09    0.18
   5  -9  13    0.18    0.19
  -5   9  13   -0.12    0.23
   9 -13   5    0.07    0.11
   5  -9  13    0.07    0.13
  13  -5   9    0.09    0.10
 -13   5   9   -0.16    0.22
  13   5  -9   -0.09    0.09
  -9  13   5   -0.05    0.15
  13  -5   9    0.05    0.16
   9 -13  -5   -0.01    0.07
   9  13   5    0.01    0.09
  -5  -9  13    0.05    0.19
   9  13   5   -0.08    0.17
 -13  -5   9   -0.03    0.31
  13  -5  -9    0.01    0.08
  13   5   9   -0.05    0.08
  13   5   9   -0.02    0.17
   5   9  13   -0.02    0.21
  -5  -9  13   -0.27    0.20
  -9 -13   5    0.06    0.24
  -7   9  13    0.15    0.26
   7  -9  13    0.00    0.18
   7  -9  13    0.04    0.14
  13  -7   9    0.24    0.13
  13   7  -9    0.17    0.13
   9 -13   7    0.26    0.16
 -13   7   9    0.13    0.29
  13  -7   9    0.28    0.19
  -9  13   7   -0.04    0.19
   7   9  13    0.15    0.08
  -7  -9  13    0.44    0.31
 -13  -7   9    0.49    0.35
  -9 -13   7    0.09    0.29
  13   7   9    0.15    0.25
   9  13   7    0.01    0.20
   9  13   7    0.02    0.10
  13   7   9    0.12    0.11
   7   9  13    0.04    0.27
  13  -7  -9    0.12    0.09
   9 -13  -7    0.12    0.08
  -7  -9  13    0.06    0.17
  -9   9  13   -0.38    0.18
   9  -9  13   -0.05    0.14
   9  -9  13   -0.10    0.14
   9 -13   9    0.06    0.15
  13  -9   9   -0.03    0.13
  13  -9   9   -0.08    0.11
  13   9  -9   -0.06    0.13
 -13   9   9   -0.35    0.23
   9  13   9    0.02    0.19
   9   9  13   -0.53    0.21
  -9 -13   9   -0.11    0.26
  13  -9  -9   -0.09    0.07
   9   9  13   -0.10    0.07
  -9  -9  13   -0.33    0.30
   9  13   9   -0.18    0.09
  -9 -13   9   -0.08    0.11
  13   9   9   -0.35    0.17
 -13  -9   9   -0.36    0.33
  -9  -9  13    0.01    0.14
  13   9   9   -0.05    0.08
   9 -13  11    0.33    0.19
  11  -9  13   -0.03    0.14
  -9  13  11   -0.11    0.22
  13 -11   9    0.01    0.15
 -11   9  13   -0.29    0.24
 -13  11   9    0.14    0.26
  13  11  -9    0.06    0.15
  11  -9  13   -0.38    0.16
 -11  -9  13    0.13    0.37
  -9 -13  11   -0.04    0.32
  -9 -13  11    0.01    0.16
  13  11   9    0.03    0.11
  13  11   9   -0.06    0.24
 -13 -11   9    0.35    0.38
   9  13  11   -0.19    0.23
  11   9  13    0.13    0.10
  13 -11  -9   -0.19    0.08
  11   9  13   -0.30    0.26
   1 -11  13   -0.07    0.17
  -1  11  13   -0.11    0.22
  13  -1  11   -0.04    0.08
  11 -13   1   -0.13    0.09
  11  13  -1   -0.24    0.12
 -13   1  11   -0.16    0.25
  13  -1  11   -0.18    0.18
  13   1 -11   -0.03    0.10
   1 -11  13   -0.20    0.17
  11 -13  -1   -0.15    0.08
  13   1  11   -0.14    0.23
  11  13   1   -0.10    0.10
 -11 -13   1   -0.19    0.18
  -1 -11  13   -0.17    0.21
   1  11  13   -0.08    0.20
  13   1  11   -0.12    0.09
  -1 -11  13   -0.09    0.17
 -13   3  11    0.38    0.36
  13  -3  11    0.48    0.16
  13   3 -11    0.34    0.14
  11  13  -3    0.50    0.18
 -11  13   3    0.37    0.24
   3 -11  13    0.39    0.21
  -3  11  13    0.62    0.31
   3 -11  13    0.15    0.23
  13  -3  11    0.47    0.26
  11 -13   3    0.44    0.17
  11  13   3    0.55    0.25
   3  11  13    0.53    0.30
  11  13   3    0.37    0.15
  13  -3 -11    0.53    0.13
  13   3  11    0.36    0.13
  -3 -11  13    0.62    0.33
  -3 -11  13    0.45    0.24
  11 -13  -3    0.59    0.14
 -11 -13   3    0.58    0.33
  13   3  11    0.64    0.30
 -13  -3  11    0.68    0.39
  11 -13   5    0.87    0.21
 -13   5  11    1.36    0.43
  13   5 -11    1.09    0.21
  13  -5  11    0.82    0.18
  13  -5  11    0.94    0.29
   5 -11  13    1.12    0.26
  -5  11  13    1.12    0.33
 -11  13   5    0.96    0.29
  11  13  -5    0.64    0.20
   5 -11  13    0.78    0.26
  13   5  11    1.33    0.38
  -5 -11  13    0.91    0.35
  13  -5 -11    1.02    0.16
 -13  -5  11    1.19    0.42
  11  13   5    1.18    0.19
  13   5  11    0.88    0.17
  11 -13  -5    1.05    0.17
 -11 -13   5    1.85    0.41
  11  13   5    1.25    0.33
   5  11  13    1.96    0.44
  -5 -11  13    1.02    0.29
 -11  13   7   -0.06    0.20
  13  -7  11   -0.02    0.12
 -13   7  11   -0.20    0.24
  11 -13   7   -0.08    0.13
   7 -11  13   -0.21    0.11
  13   7 -11   -0.25    0.11
  -7  11  13   -0.22    0.19
  11  13  -7   -0.08    0.12
  13  -7  11   -0.09    0.17
  11  13   7   -0.23    0.11
   7  11  13   -0.26    0.23
  11  13   7    0.12    0.21
  11 -13  -7   -0.12    0.08
 -13  -7  11    0.24    0.38
  13   7  11   -0.09    0.08
 -11 -13   7    0.19    0.32
  -7 -11  13   -0.16    0.16
  13   7  11   -0.31    0.22
  13  -7 -11   -0.11    0.08
  13  -9  11   -0.07    0.17
  13  -9  11   -0.08    0.12
  13   9 -11    0.18    0.16
  -9  11  13    0.09    0.26
 -11  13   9   -0.36    0.21
 -13   9  11   -0.19    0.28
  11 -13   9    0.00    0.15
   9 -11  13    0.16    0.17
 -13  -9  11    0.07    0.42
 -11 -13   9   -0.20    0.35
  13   9  11   -0.23    0.21
  -9 -11  13   -0.01    0.36
   9  11  13   -0.08    0.22
  -9 -11  13    0.27    0.21
  11  13   9   -0.13    0.25
  11  13   9   -0.14    0.11
  13   9  11    0.00    0.11
  11 -13  11   -0.29    0.11
 -13  11  11   -0.45    0.24
 -11  11  13    0.01    0.23
  11 -11  13   -0.08    0.12
  13 -11  11   -0.23    0.12
 -11  13  11    0.04    0.23
 -11 -13  11   -0.66    0.30
 -11 -11  13    0.04    0.18
 -13 -11  11   -0.09    0.35
 -11 -13  11   -0.14    0.13
  11  11  13   -0.37    0.21
  11  13  11   -0.10    0.23
 -11 -11  13   -0.41    0.37
  13  11  11   -0.20    0.24
  13  11  11   -0.08    0.09
 -13 -13  -1    0.16    0.28
  -1  13  13   -0.39    0.22
  13  -1  13   -0.24    0.18
 -13   1  13   -0.34    0.29
  13   1 -13   -0.17    0.07
 -13  13   1   -0.23    0.22
  13  -1  13   -0.11    0.10
  13 -13   1   -0.07    0.09
   1 -13  13   -0.21    0.17
  13  13  -1   -0.16    0.11
   1  13  13   -0.22    0.21
 -13 -13   1   -0.19    0.26
  13  -1 -13    0.00    0.10
 -13  -1  13   -0.32    0.24
  -1 -13  13   -0.19    0.20
 -13  13  -1    0.06    0.23
  13   1  13   -0.27    0.20
  13   1  13   -0.12    0.09
  13 -13  -1   -0.08    0.08
  -3  13  13   -0.36    0.23
  13  -3  13   -0.22    0.20
 -13   3  13   -0.15    0.25
 -13  13   3   -0.22    0.21
  13 -13   3   -0.09    0.10
  13  -3  13   -0.08    0.10
  13  13  -3   -0.18    0.11
   3 -13  13   -0.14    0.17
  13   3 -13   -0.17    0.11
 -13 -13   3   -0.18    0.26
  -3 -13  13   -0.14    0.26
  13  -3 -13   -0.10    0.09
 -13  -3  13   -0.34    0.32
  -3 -13  13   -0.29    0.20
   3  13  13   -0.08    0.26
  13   3  13   -0.28    0.19
  13   3  13   -0.05    0.09
  13 -13  -3   -0.06    0.07
  13  13   3   -0.20    0.18
  13  13   3   -0.18    0.10
  -5  13  13   -0.51    0.23
  13  -5  13   -0.12    0.17
 -13   5  13   -0.17    0.27
 -13  13   5   -0.24    0.22
  13 -13   5   -0.04    0.10
  13  -5  13   -0.07    0.10
  13  13  -5   -0.05    0.13
   5 -13  13   -0.21    0.14
  13   5 -13   -0.07    0.12
 -13 -13   5   -0.20    0.31
  -5 -13  13   -0.28    0.23
  13  -5 -13   -0.03    0.09
 -13  -5  13   -0.20    0.32
  -5 -13  13   -0.34    0.16
   5  13  13    0.02    0.26
  13   5  13   -0.16    0.17
  13   5  13   -0.06    0.08
  13 -13  -5    0.02    0.08
  13  13   5   -0.12    0.16
  13  13   5    0.00    0.11
  13  -7  13   -0.13    0.19
  13  13  -7   -0.09    0.14
 -13   7  13   -0.14    0.26
 -13  13   7   -0.29    0.22
  13  -7  13   -0.13    0.09
  13   7 -13    0.04    0.16
  -7  13  13   -0.36    0.20
   7 -13  13    0.01    0.19
  13 -13   7   -0.07    0.13
  13 -13  -7   -0.09    0.08
   7  13  13   -0.25    0.26
 -13 -13   7   -0.30    0.33
  -7 -13  13    0.29    0.31
  -7 -13  13   -0.10    0.16
  13   7  13   -0.17    0.19
  13   7  13   -0.14    0.09
 -13  -7  13   -0.04    0.39
  13  13   7   -0.10    0.24
  13  13   7   -0.02    0.11
  13  13  -9   -0.14    0.15
  13   9 -13   -0.10    0.15
 -13   9  13   -0.23    0.26
 -13  13   9   -0.11    0.23
  13  -9  13   -0.18    0.15
  13  -9  13    0.02    0.14
  -9  13  13   -0.09    0.23
   9 -13  13   -0.06    0.17
  13 -13   9    0.06    0.15
   9  13  13   -0.35    0.22
  -9 -13  13   -0.11    0.34
  -9 -13  13   -0.28    0.15
 -13  -9  13   -0.29    0.35
  13   9  13   -0.22    0.23
  13   9  13   -0.12    0.08
 -13 -13   9   -0.39    0.37
  13  13   9   -0.16    0.23
  13  13   9   -0.08    0.10
  13 -13  11   -0.11    0.15
  13 -11  13   -0.19    0.10
 -13  11  13   -0.13    0.23
  11 -13  13   -0.22    0.12
 -11  13  13   -0.25    0.23
 -11 -13  13   -0.11    0.17
 -11 -13  13    0.04    0.38
  11  13  13   -0.21    0.29
 -13 -13  11   -0.09    0.44
 -13 -11  13   -0.28    0.37
  13  11  13   -0.19    0.22
  13  11  13   -0.11    0.10
  13  13  11   -0.09    0.26
  13  13  11   -0.01    0.10
  13 -13  13   -0.12    0.15
 -13  13  13   -0.30    0.25
 -13 -13  13   -0.26    0.20
 -13 -13  13   -0.56    0.38
  13  13  13   -0.33    0.25
 -14   0   0    0.49    0.24
   0 -14   0    0.50    0.16
   0   0  14    0.30    0.26
   0   0  14    0.27    0.09
   0  14   0    0.31    0.11
  14   0   0    0.26    0.09
   2   0  14    6.00    0.46
  14  -2   0    6.21    0.52
  14   2   0    6.30    0.52
 -14  -2   0    5.55    0.64
 -14   2   0    6.05    0.63
  -2   0  14    6.72    0.75
  -2   0  14    6.42    0.52
   0 -14  -2    7.36    0.62
   0 -14   2    7.06    0.66
   0  14   2    5.23    0.46
   2   0  14    6.34    0.73
   4   0  14    0.16    0.08
  14  -4   0    0.16    0.09
  14   4   0    0.06    0.08
   4   0  14    0.20    0.22
  -4   0  14    0.20    0.12
   0 -14  -4    0.23    0.12
   0 -14   4    0.18    0.15
   0  14   4    0.09    0.13
 -14  -4   0    0.31    0.23
 -14   4   0    0.08    0.19
  -4   0  14    0.16    0.22
  -6   0  14    5.05    0.65
  -6   0  14    5.03    0.51
 -14  -6   0    5.91    0.69
 -14   6   0    5.31    0.56
   0  14   6    5.10    0.51
   6   0  14    5.52    0.44
  14  -6   0    5.24    0.48
  14   6   0    5.32    0.48
   0 -14  -6    6.30    0.51
   0 -14   6    5.27    0.63
   6   0  14    4.60    0.65
  14   8   0    0.12    0.09
   0  14   8    0.05    0.18
   8   0  14    0.07    0.24
   8   0  14    0.20    0.09
   0 -14   8    0.05    0.12
 -14  -8   0    0.10    0.24
 -14   8   0    0.07    0.20
  -8   0  14    0.29    0.25
   0 -14  -8    0.17    0.09
  14  -8   0    0.18    0.10
  10   0  14   10.08    0.75
 -10   0  14   10.00    1.00
  14 -10   0   10.24    0.77
 -14 -10   0    9.19    0.95
 -14  10   0   10.58    0.85
  14  10   0   10.17    0.79
   0  14  10   11.19    0.93
  10   0 -14   11.91    0.79
  10   0  14    9.72    0.97
   0 -14  10   12.78    1.09
 -14  12   0    0.17    0.25
  12   0 -14    0.11    0.12
  12   0  14    0.27    0.30
 -12   0  14    0.35    0.33
   0 -14  12    0.17    0.21
   0  14  12   -0.20    0.24
 -14 -12   0    0.35    0.30
  14 -12   0    0.16    0.11
  12   0  14    0.10    0.11
  14  12   0    0.13    0.14
   0   2  14    7.30    0.78
   0  -2  14    5.35    0.71
   0  -2  14    7.28    0.57
  14   0  -2    6.04    0.51
  14   0   2    5.73    0.50
   2 -14   0    7.10    0.63
  -2  14   0    5.54    0.40
 -14   0  -2    6.99    0.67
 -14   0   2    6.42    0.67
  -2 -14   0    6.11    0.61
   0   2  14    6.69    0.44
   2  14   0    5.51    0.46
  -2   2  14   16.73    0.91
 -14   2   2   13.63    1.10
  -2   2  14   16.93    1.27
  14  -2   2   15.75    0.98
 -14  -2  -2   16.55    1.18
  14   2  -2   16.91    1.00
   2 -14   2   16.33    1.13
  -2 -14  -2   15.40    1.05
   2  -2  14   15.28    0.97
   2   2  14   12.88    0.86
   2  14   2   14.02    0.95
 -14  -2   2   17.82    1.20
   2   2  14   13.74    1.22
  -2  -2  14   15.90    1.25
  14   2   2   12.73    0.94
 -14   2  -2   15.89    1.11
   2 -14  -2   13.77    1.01
  14  -2  -2   13.58    0.94
  -2 -14   2   15.43    0.94
  -2  -2  14   15.90    1.06
  -2 -14   2   14.96    1.10
   2 -14   4   11.45    0.93
  -4   2  14   12.25    1.02
   4  -2  14   10.59    0.74
 -14  -4  -2   11.55    0.97
  -2  14   4   10.16    0.77
  14  -4   2   10.99    0.77
  14   4  -2   10.45    0.77
   4  -2  14    8.35    0.91
  -4   2  14   12.22    0.78
  -2 -14  -4   11.13    0.81
 -14   4   2   11.51    0.91
  -2 -14   4   11.45    0.73
   4   2  14   11.34    0.69
   2 -14  -4   12.03    0.80
  -2 -14   4   11.77    0.95
  14  -4  -2   11.77    0.77
 -14  -4   2   11.66    0.98
   2  14   4    9.54    0.76
   4   2  14    9.77    0.98
  -4  -2  14   10.61    0.87
  14   4   2   10.87    0.77
 -14   4  -2   11.66    0.86
  -4  -2  14   11.72    1.02
  -6   2  14    6.17    0.52
   2 -14   6    6.90    0.71
  -6   2  14    6.20    0.67
  -2  14   6    5.75    0.54
 -14   6   2    6.52    0.63
   6  -2  14    5.24    0.48
  14   6  -2    5.71    0.51
   6  -2  14    4.68    0.64
  -2 -14  -6    5.68    0.51
  14  -6   2    5.28    0.51
   2  14   6    5.00    0.51
   2 -14  -6    6.79    0.50
 -14   6  -2    5.30    0.55
   6   2  14    6.15    0.73
  -2 -14   6    6.28    0.70
  14   6   2    6.41    0.53
 -14  -6   2    5.06    0.65
  14  -6  -2    6.35    0.51
   6   2  14    6.45    0.45
  -6  -2  14    5.54    0.58
  -6  -2  14    5.28    0.68
  -2  14   8    0.22    0.20
 -14   8   2    0.25    0.25
   2 -14   8    0.05    0.15
  -8   2  14   -0.15    0.20
   8  -2  14    0.10    0.09
  -2 -14  -8    0.34    0.12
   8  -2  14   -0.13    0.21
  14  -8   2    0.15    0.10
  14   8  -2    0.03    0.10
  -2 -14   8    0.07    0.15
 -14   8  -2    0.61    0.22
  14  -8  -2   -0.01    0.08
   2 -14  -8    0.12    0.06
  -8  -2  14    0.06    0.22
   8   2  14    0.08    0.08
  -8  -2  14    0.14    0.13
   2  14   8    0.06    0.17
   8   2  14    0.17    0.24
 -14  -8   2    0.18    0.25
  14   8   2    0.13    0.10
  10  -2  14    7.04    0.75
 -10   2  14    5.07    0.71
  14  10  -2    6.84    0.62
  10   2 -14    5.34    0.56
  10  -2  14    7.99    0.59
 -14  10   2    6.15    0.67
  -2  14  10    6.94    0.68
   2 -14  10    6.60    0.77
  14 -10   2    7.68    0.61
 -14 -10   2    7.61    0.83
  10   2  14    4.90    0.67
 -14  10  -2    6.45    0.61
 -10  -2  14    7.16    0.81
   2  14  10    5.75    0.65
  10   2  14    4.99    0.49
  14  10   2    6.34    0.57
  14 -10  -2    5.11    0.52
  -2 -14  10    8.04    0.84
  10  -2 -14    6.70    0.55
  14  12  -2    6.07    0.60
 -14  12   2    7.04    0.67
   2 -14  12    6.55    0.82
  -2  14  12    5.70    0.70
  12  -2  14    5.99    0.69
  12  -2  14    5.64    0.56
  12   2 -14    7.17    0.61
  14 -12   2    5.68    0.58
 -12   2  14    6.20    0.78
  12   2  14    6.58    0.55
  14  12   2    6.21    0.60
 -14  12  -2    6.51    0.62
 -12  -2  14    7.22    0.87
 -14 -12   2    6.13    0.78
  12  -2 -14    6.38    0.55
  14 -12  -2    6.25    0.56
  -2 -14  12    6.47    0.80
   2  14  12    6.58    0.74
  12   2  14    5.59    0.72
   4  14   0    0.09    0.12
   0   4  14    0.23    0.26
  14   0  -4    0.08    0.07
   0  -4  14    0.01    0.11
 -14   0   4    0.19    0.23
   0   4  14    0.11    0.05
   4 -14   0    0.27    0.13
   0  -4  14    0.19    0.24
  -4 -14   0    0.16    0.11
  14   0   4    0.18    0.09
  -4  14   0    0.19    0.08
   2  -4  14   11.36    0.82
  14   2  -4   11.06    0.77
  14  -2   4   10.95    0.77
  -4 -14  -2   10.87    0.80
  -2   4  14   11.31    0.62
 -14   2   4   10.42    0.90
  -2   4  14   11.03    0.99
   4 -14   2   11.20    0.87
  -4  14   2   10.15    0.71
   2  -4  14   10.18    0.96
  -4 -14   2   11.01    0.77
   4 -14  -2   11.36    0.80
   2   4  14   11.44    0.64
  14   2   4   11.02    0.90
  -2  -4  14    9.91    0.86
   4  14   2   10.66    0.77
 -14   2  -4   10.91    0.87
  -4 -14   2   10.93    0.86
  -2  -4  14    9.55    0.94
   2   4  14   10.19    0.98
  14   2   4   10.31    0.75
  14  -2  -4   11.35    0.76
 -14  -2   4   11.86    0.98
  14  -4   4    0.13    0.09
  14   4  -4    0.12    0.09
   4  -4  14    0.12    0.22
  -4 -14  -4    0.31    0.11
   4 -14   4    0.21    0.15
 -14   4   4    0.47    0.26
  -4  14   4    0.46    0.16
  -4   4  14    0.18    0.07
  -4   4  14    0.33    0.24
   4  -4  14    0.23    0.11
  -4  -4  14    0.30    0.17
   4 -14  -4    0.43    0.11
 -14  -4   4    0.15    0.25
  14  -4  -4    0.29    0.10
 -14   4  -4    0.31    0.21
  -4 -14   4    0.11    0.13
   4   4  14    0.20    0.06
  -4  -4  14    0.08    0.22
   4   4  14    0.30    0.25
  14   4   4    0.16    0.09
   4  14   4    0.27    0.16
  -4 -14   4    0.48    0.19
  14   4   4    0.27    0.22
  -4  14   6   -0.06    0.15
 -14   6   4    0.06    0.23
  -6   4  14   -0.08    0.21
   6  -4  14    0.09    0.09
  14   6  -4    0.02    0.09
  14  -6   4   -0.02    0.07
  -6   4  14    0.07    0.08
  -4 -14  -6    0.11    0.09
   4 -14   6    0.17    0.16
   6  -4  14    0.11    0.18
  -4 -14   6    0.15    0.20
   6   4  14   -0.03    0.05
  -6  -4  14   -0.22    0.21
  -6  -4  14    0.08    0.13
 -14   6  -4   -0.03    0.16
  -4 -14   6    0.17    0.16
 -14  -6   4    0.12    0.27
  14   6   4    0.04    0.08
  14  -6  -4    0.10    0.09
   6   4  14   -0.09    0.20
  14   6   4    0.00    0.18
   4  14   6   -0.01    0.13
   4 -14  -6    0.03    0.06
  14  -8   4    0.16    0.11
   4 -14   8   -0.03    0.13
  -4  14   8   -0.03    0.17
  -4 -14  -8    0.10    0.07
 -14   8   4    0.30    0.27
   8  -4  14    0.17    0.10
  -8   4  14    0.03    0.21
   8  -4  14    0.27    0.21
  14   8  -4    0.08    0.11
 -14   8  -4    0.05    0.17
   8  -4 -14    0.22    0.09
 -14  -8   4   -0.05    0.27
   4 -14  -8    0.16    0.07
  -8  -4  14    0.06    0.12
  14  -8  -4    0.07    0.08
   4  14   8    0.23    0.19
  14   8   4    0.24    0.23
  14   8   4    0.14    0.10
   8   4  14    0.11    0.25
  -4 -14   8    0.34    0.18
  -8  -4  14   -0.05    0.25
  -4 -14   8    0.49    0.24
   8   4  14   -0.01    0.07
   4 -14  10    8.62    0.91
  14 -10   4   10.12    0.79
  10  -4  14    9.68    0.76
  10  -4  14   10.11    0.91
  -4  14  10    9.84    0.86
 -10   4  14    9.03    0.89
 -14  10   4    9.24    0.85
  14  10  -4    9.66    0.78
  14  10   4   10.23    0.75
  10   4  14    9.11    0.94
 -10  -4  14    9.62    0.98
  -4 -14  10    9.67    0.95
  10  -4 -14   10.21    0.69
   4  14  10    9.42    0.86
  14 -10  -4   10.18    0.72
  14  10   4    9.76    0.91
 -14  10  -4   10.21    0.77
 -14 -10   4   10.45    1.01
  10   4  14   10.06    0.69
  -4 -14  10   12.13    0.87
  14  12  -4    0.10    0.13
 -14  12   4    0.29    0.27
  12  -4  14    0.59    0.28
  -4  14  12    0.12    0.26
   4 -14  12    0.20    0.20
  12  -4  14    0.49    0.15
 -12   4  14    0.32    0.28
  14 -12   4    0.65    0.18
  12   4 -14    0.07    0.14
  -4 -14  12    0.29    0.24
  12   4  14    0.48    0.29
  14  12   4    0.19    0.14
 -12  -4  14    0.40    0.36
   4  14  12    0.07    0.26
 -14 -12   4    0.55    0.36
  14  12   4    0.22    0.27
  12   4  14    0.28    0.12
  14 -12  -4    0.29    0.11
  12  -4 -14    0.07    0.10
   0  -6  14    4.84    0.57
  -6  14   0    4.87    0.39
   0   6  14    5.39    0.69
  14   0   6    4.98    0.48
   6  14   0    5.99    0.51
  14   0  -6    4.85    0.45
   6 -14   0    5.63    0.53
  14   0   6    5.21    0.58
  -6 -14   0    5.27    0.52
 -14   0   6    5.40    0.69
   6 -14   2    5.35    0.57
  -6  14   2    6.07    0.48
 -14   2   6    7.75    0.76
   2  -6  14    5.61    0.60
  14  -2   6    5.57    0.53
  14   2  -6    5.84    0.52
  -2   6  14    5.92    0.70
   2  -6  14    5.83    0.69
  14  -2   6    5.25    0.58
  -2  -6  14    5.52    0.70
   6 -14  -2    7.22    0.55
  -6 -14   2    6.16    0.58
   2   6  14    6.55    0.73
  14   2   6    6.30    0.52
  14  -2  -6    5.78    0.49
  -6 -14   2    6.39    0.57
  -2  -6  14    5.36    0.66
 -14  -2   6    5.55    0.69
   6  14   2    5.52    0.54
  14   2   6    6.97    0.69
   6 -14   4    0.07    0.11
  14  -4   6   -0.02    0.09
   4  -6  14    0.06    0.11
  -6  14   4    0.11    0.15
  -4   6  14   -0.10    0.22
   4  -6  14    0.13    0.23
  14  -4   6   -0.03    0.14
 -14   4   6    0.15    0.28
  14   4  -6    0.05    0.09
   4   6  14    0.05    0.20
  -4  -6  14   -0.11    0.22
  -6 -14   4    0.22    0.21
  -4  -6  14   -0.07    0.13
   6 -14  -4    0.03    0.07
  -6 -14   4    0.00    0.12
 -14  -4   6    0.18    0.28
   4   6  14   -0.04    0.04
  14   4   6    0.03    0.08
  14  -4  -6    0.04    0.07
   6  14   4    0.08    0.15
  14   4   6   -0.19    0.15
 -14   6   6    7.27    0.80
  -6   6  14    7.73    0.79
   6 -14   6    8.57    0.77
  -6  14   6    7.71    0.67
   6  -6  14    8.16    0.76
   6  -6  14    8.07    0.68
  14   6  -6    7.31    0.67
  14  -6   6    8.36    0.66
  -6 -14   6    8.48    0.77
  -6  -6  14    7.26    0.82
  14   6   6    9.08    0.83
   6 -14  -6    8.88    0.58
   6   6  14    7.53    0.83
  -6  -6  14    8.81    0.79
   6  14   6    7.76    0.61
  -6 -14   6    9.44    0.75
 -14  -6   6    9.34    0.88
  14  -6  -6    8.00    0.60
   6   6  14    7.74    0.53
   6  14   6    8.08    0.70
  14   6   6    8.31    0.63
   6 -14   8    6.93    0.76
  14   8  -6    7.43    0.66
  14  -8   6    6.49    0.61
 -14   8   6    7.19    0.75
   8  -6  14    6.26    0.61
   8  -6  14    7.41    0.71
  -8   6  14    6.73    0.75
  -6  14   8    7.49    0.67
   8   6  14    7.34    0.80
  14  -8  -6    7.54    0.57
  -6 -14   8    6.50    0.74
  -8  -6  14    8.12    0.74
   6  14   8    7.37    0.69
  -8  -6  14    6.74    0.79
   8   6  14    7.38    0.51
  -6 -14   8    7.81    0.73
 -14  -8   6    7.10    0.83
 -14   8  -6    7.31    0.62
  14   8   6    7.12    0.78
   6  14   8    7.53    0.56
  14   8   6    7.15    0.59
  10  -6  14    6.73    0.71
  -6  14  10    8.38    0.76
 -14  10   6    8.16    0.78
   6 -14  10    8.45    0.85
  10  -6  14    6.07    0.63
  14  10  -6    8.19    0.70
 -10   6  14    8.44    0.80
  14 -10   6    6.51    0.67
  -6 -14  10    7.06    0.79
 -14  10  -6    8.22    0.66
   6  14  10    7.11    0.74
  -6 -14  10    8.28    0.81
  14  10   6    8.12    0.63
 -10  -6  14    6.92    0.88
 -14 -10   6    6.78    0.84
  14 -10  -6    8.30    0.60
  10   6  14    8.40    0.86
 -10  -6  14    7.10    0.72
  14  10   6    7.92    0.82
  10   6  14    7.80    0.57
 -12   6  14    1.33    0.37
  14 -12   6    0.84    0.21
 -14  12   6    0.98    0.33
   6 -14  12    0.45    0.24
  12  -6  14    0.90    0.21
  12   6 -14    0.98    0.22
  12  -6  14    1.48    0.34
  -6  14  12    1.31    0.36
  14  12  -6    1.02    0.23
  14 -12  -6    0.78    0.16
   6  14  12    1.45    0.35
 -12  -6  14    1.00    0.47
  14  12   6    0.96    0.19
  -6 -14  12    1.15    0.38
 -14 -12   6    1.19    0.47
  12   6  14    0.79    0.16
  14  12   6    0.74    0.33
  12   6  14    1.69    0.41
  -6 -14  12    0.84    0.28
   0   8  14    0.12    0.25
   8 -14   0    0.19    0.12
  14   0   8    0.37    0.24
 -14   0   8    0.17    0.29
   0  -8  14    0.21    0.25
   0  -8  14    0.04    0.15
  14   0  -8    0.06    0.09
  14   0   8    0.10    0.09
   8  14   0    0.10    0.11
 -14   2   8   -0.06    0.30
  14   2  -8    0.12    0.10
   2  -8  14    0.05    0.20
   8 -14   2    0.07    0.10
   2  -8  14    0.05    0.15
  -8  14   2    0.27    0.13
  14  -2   8    0.12    0.18
  -2   8  14   -0.11    0.20
  14  -2   8    0.12    0.11
   8 -14  -2    0.15    0.10
  -2  -8  14   -0.06    0.21
  14   2   8    0.16    0.09
 -14  -2   8    0.32    0.29
  14  -2  -8    0.18    0.10
  -8 -14   2    0.17    0.19
   2   8  14    0.00    0.24
   8  14   2    0.19    0.17
  14   2   8    0.01    0.18
  -2  -8  14   -0.01    0.17
   8  14   2    0.01    0.10
   8 -14   4    0.10    0.12
 -14   4   8    0.29    0.28
  14   4  -8   -0.02    0.11
  -4   8  14    0.00    0.20
   4  -8  14    0.18    0.16
  14  -4   8    0.25    0.19
  14  -4   8    0.20    0.12
   4  -8  14    0.07    0.13
  -8  14   4   -0.08    0.15
  -4  -8  14   -0.08    0.18
  -8 -14   4    0.60    0.27
   8  14   4    0.23    0.19
   8  14   4    0.05    0.11
   8 -14  -4    0.08    0.08
  14   4   8    0.22    0.20
 -14  -4   8    0.56    0.31
  14   4   8    0.08    0.09
   4   8  14    0.20    0.25
  14  -4  -8    0.09    0.08
  -4  -8  14    0.00    0.16
   8 -14   6    7.09    0.70
  -6   8  14    7.07    0.75
  -8  14   6    7.10    0.63
 -14   6   8    6.50    0.77
  14  -6   8    7.07    0.62
   6  -8  14    6.23    0.66
  14   6  -8    6.59    0.61
  14  -6   8    7.11    0.64
   6  -8  14    7.44    0.70
  -6  -8  14    6.22    0.76
  14   6   8    7.22    0.77
  -6  -8  14    7.39    0.79
  14   6   8    7.47    0.59
   6   8  14    6.52    0.82
  14  -6  -8    7.61    0.57
 -14  -6   8    7.78    0.85
  -8 -14   6    7.29    0.74
  -8 -14   6    7.26    0.72
   8  14   6    7.84    0.59
   8 -14  -6    8.01    0.55
   8  14   6    7.60    0.69
  14  -8   8    0.13    0.12
  -8  14   8    0.28    0.20
 -14   8   8    0.10    0.28
   8  -8  14    0.18    0.14
   8  -8  14    0.24    0.20
  -8   8  14   -0.01    0.24
  14   8  -8    0.16    0.14
   8 -14   8    0.05    0.16
  -8 -14   8    0.34    0.18
  14   8   8    0.15    0.11
  14  -8  -8    0.33    0.11
   8   8  14    0.17    0.08
  -8  -8  14    0.09    0.30
  14   8   8    0.12    0.26
  -8  -8  14    0.13    0.17
 -14  -8   8    0.54    0.35
   8  14   8    0.08    0.11
   8   8  14    0.17    0.26
  -8 -14   8    0.09    0.30
   8  14   8    0.17    0.22
  10  -8  14    0.21    0.23
   8 -14  10    0.22    0.19
  14  10  -8    0.39    0.17
  10  -8  14    0.22    0.15
  -8  14  10    0.08    0.26
 -10   8  14    0.09    0.25
 -14  10   8    0.50    0.31
  14 -10   8    0.15    0.14
  10   8  14    0.19    0.10
  10   8  14    0.11    0.29
 -10  -8  14    0.11    0.38
   8  14  10    0.72    0.27
  14 -10  -8    0.46    0.12
   8  14  10    0.24    0.12
 -14 -10   8    0.20    0.38
  14  10   8    0.17    0.11
  -8 -14  10    0.43    0.19
 -14  10  -8    0.41    0.22
  14  10   8    0.24    0.29
 -10  -8  14    0.24    0.19
  -8 -14  10    0.35    0.32
   8 -14  12   -0.11    0.19
  -8  14  12    0.18    0.24
  14 -12   8    0.17    0.15
 -12   8  14    0.45    0.31
  12  -8  14   -0.12    0.18
  12  -8  14    0.16    0.15
  14  12  -8    0.07    0.16
 -14  12   8    0.14    0.27
  -8 -14  12   -0.07    0.16
  -8 -14  12    0.74    0.38
 -14 -12   8    0.18    0.38
 -12  -8  14    0.09    0.38
   8  14  12    0.18    0.26
  14  12   8    0.20    0.25
  14 -12  -8    0.15    0.10
  14  12   8    0.20    0.13
  12   8  14    0.14    0.29
  12   8  14    0.08    0.10
  10  14   0   10.01    0.80
   0 -10  14   10.55    1.02
   0 -10  14   10.63    0.95
   0  10  14   11.58    1.03
  14   0  10    9.40    0.75
  14   0  10    9.99    0.94
 -14   0  10   11.02    1.04
  10 -14   0   10.96    0.81
  14   0 -10   10.60    0.77
 -10 -14   0   11.90    0.95
   2 -10  14    7.28    0.80
 -10  14   2    5.52    0.53
 -14   2  10    5.87    0.76
  10 -14   2    8.40    0.67
  10  14  -2    4.59    0.56
  14  -2  10    6.69    0.68
  -2  10  14    7.28    0.79
  14  -2  10    8.15    0.63
  14   2 -10    6.50    0.59
   2 -10  14    6.45    0.68
  -2 -10  14    6.55    0.78
  14   2  10    5.69    0.55
  10  14   2    6.78    0.66
  10  14   2    6.88    0.60
  -2 -10  14    7.82    0.77
  10 -14  -2    5.85    0.54
  14  -2 -10    6.44    0.54
  14   2  10    5.65    0.68
 -10 -14   2    7.15    0.71
 -14  -2  10    7.16    0.82
   2  10  14    6.56    0.77
  14  -4  10   10.11    0.79
  14   4 -10    9.72    0.79
 -14   4  10    9.64    0.94
  10  14  -4   10.06    0.84
   4 -10  14    8.28    0.80
   4 -10  14    9.03    0.91
  14  -4  10   10.55    0.87
 -10  14   4    9.87    0.76
  10 -14   4   10.80    0.85
  -4  10  14   10.75    0.97
 -14  -4  10   10.41    1.06
  10 -14  -4   10.39    0.73
  14  -4 -10   10.03    0.72
  14   4  10   11.06    0.76
  14   4  10    9.45    0.95
   4  10  14   11.61    1.03
  10  14   4   10.15    0.86
  -4 -10  14   11.17    1.03
  10  14   4   10.53    0.77
 -10 -14   4   10.60    0.92
  -4 -10  14   10.12    0.96
  14  -6  10    6.40    0.65
  -6  10  14    8.54    0.84
 -14   6  10    8.39    0.82
  14  -6  10    7.58    0.69
  14   6 -10    8.03    0.69
  10 -14   6    7.81    0.75
   6 -10  14    7.25    0.68
   6 -10  14    7.15    0.75
 -10  14   6    7.74    0.67
  10 -14  -6    8.54    0.59
  10  14   6    7.84    0.75
 -10 -14   6    7.99    0.80
  -6 -10  14    6.91    0.83
  10  14   6    7.66    0.63
  14   6  10    8.68    0.85
  14   6  10    8.21    0.62
  -6 -10  14    6.46    0.80
   6  10  14    8.02    0.86
 -14  -6  10    6.10    0.86
  14  -6 -10    8.12    0.59
 -14   8  10    0.60    0.36
   8 -10  14    0.40    0.19
  14  -8  10    0.09    0.21
  10 -14   8   -0.06    0.16
  14   8 -10    0.20    0.13
  14  -8  10    0.31    0.15
  -8  10  14    0.35    0.28
 -10  14   8    0.50    0.25
   8 -10  14    0.06    0.15
  14  -8 -10    0.30    0.11
 -10 -14   8    0.10    0.17
  -8 -10  14    0.24    0.19
  14   8  10    0.26    0.12
   8  10  14    0.36    0.31
  -8 -10  14    0.04    0.32
  10  14   8    0.49    0.26
  10  14   8    0.18    0.12
 -10 -14   8    0.49    0.35
 -14  -8  10    0.42    0.42
  14   8  10    0.25    0.28
  14 -10  10    3.57    0.42
 -10  14  10    2.82    0.44
 -14  10  10    3.49    0.53
 -10  10  14    2.61    0.47
  14 -10  10    3.68    0.50
  10 -14  10    4.69    0.63
  10 -10  14    3.28    0.44
  10 -10  14    3.89    0.52
 -10 -14  10    2.09    0.36
 -10 -10  14    2.95    0.57
  10  10  14    3.13    0.54
 -14 -10  10    2.99    0.59
 -10 -14  10    3.17    0.58
  14  10  10    3.06    0.53
  14  10  10    3.22    0.39
 -10 -10  14    2.07    0.36
  10  14  10    3.74    0.54
  10  14  10    3.42    0.39
  14 -10 -10    3.18    0.36
  14  12 -10    1.08    0.26
 -10  14  12    0.94    0.34
 -12  10  14    1.08    0.34
  10 -14  12    0.37    0.23
  12 -10  14    0.78    0.24
 -14  12  10    0.85    0.36
  14 -12  10    0.68    0.23
 -14 -12  10    0.90    0.49
 -10 -14  12    0.92    0.48
 -10 -14  12    0.50    0.24
  14  12  10    0.80    0.35
 -12 -10  14    1.16    0.49
  10  14  12    0.73    0.31
  14  12  10    0.71    0.17
  12  10  14    0.73    0.35
 -12 -10  14    0.49    0.25
  14   0  12    0.23    0.12
  14   0  12    0.43    0.27
  12 -14   0    0.08    0.11
  12  14   0   -0.05    0.12
   0 -12  14    0.27    0.26
   0 -12  14   -0.01    0.22
  14   0 -12    0.02    0.09
 -12 -14   0    0.61    0.32
 -14   0  12    0.24    0.31
   0  12  14    0.06    0.24
  14  -2  12    6.76    0.61
  12  14  -2    5.49    0.60
  14  -2  12    6.87    0.73
 -14   2  12    6.17    0.82
   2 -12  14    4.96    0.74
  14   2 -12    6.44    0.60
 -12  14   2    5.95    0.58
  -2  12  14    7.27    0.80
  12 -14   2    6.87    0.64
  12 -14  -2    6.96    0.58
 -14  -2  12    6.98    0.84
  14  -2 -12    6.72    0.57
 -12 -14   2    7.14    0.80
  12  14   2    6.46    0.69
  12  14   2    6.49    0.61
  14   2  12    6.52    0.74
  -2 -12  14    7.51    0.76
  -2 -12  14    6.85    0.86
   2  12  14    6.39    0.79
  14   2  12    6.24    0.57
  14  -4  12    0.73    0.29
  14   4 -12    0.22    0.14
  -4  12  14   -0.21    0.25
  12 -14   4    0.41    0.16
 -14   4  12    0.33    0.32
  14  -4  12    0.53    0.15
 -12  14   4    0.60    0.24
  12  14  -4    0.21    0.17
   4 -12  14    0.37    0.22
  14   4  12    0.31    0.26
  12 -14  -4    0.34    0.12
  14   4  12    0.23    0.11
  -4 -12  14    0.25    0.24
  12  14   4    0.26    0.23
  12  14   4    0.28    0.14
  14  -4 -12    0.25    0.11
 -12 -14   4    0.67    0.37
   4  12  14    0.20    0.30
  -4 -12  14    0.18    0.28
 -14  -4  12   -0.05    0.34
  14   6 -12    0.89    0.22
  -6  12  14    1.55    0.40
  12  14  -6    1.19    0.25
  14  -6  12    1.52    0.33
  14  -6  12    0.58    0.20
 -12  14   6    1.07    0.30
 -14   6  12    1.84    0.42
  12 -14   6    0.77    0.22
   6 -12  14    0.91    0.28
  14   6  12    1.38    0.39
  14  -6 -12    0.87    0.16
   6  12  14    0.93    0.39
  12 -14  -6    1.02    0.16
  14   6  12    0.94    0.17
  12  14   6    1.63    0.36
  12  14   6    1.02    0.20
 -12 -14   6    0.73    0.41
  -6 -12  14    1.60    0.43
  -6 -12  14    0.62    0.26
 -14  -6  12    1.71    0.49
 -14   8  12   -0.19    0.28
   8 -12  14    0.28    0.20
  14  -8  12    0.10    0.16
  14  -8  12    0.29    0.15
  14   8 -12    0.22    0.16
  -8  12  14    0.06    0.26
 -12  14   8    0.27    0.24
  12 -14   8    0.05    0.14
  14   8  12    0.08    0.27
  -8 -12  14   -0.02    0.30
 -12 -14   8   -0.59    0.29
  12  14   8    0.35    0.27
  12  14   8    0.07    0.12
   8  12  14    0.05    0.30
 -14  -8  12   -0.08    0.43
  -8 -12  14    0.10    0.16
  14   8  12    0.04    0.10
 -10  12  14    0.82    0.33
  10 -12  14    0.70    0.25
 -14  10  12    0.89    0.37
  14 -10  12    0.42    0.19
  14  10 -12    0.50    0.23
 -12  14  10    0.93    0.31
  12 -14  10    0.89    0.25
 -10 -12  14    1.02    0.43
  14  10  12    0.66    0.16
 -14 -10  12    0.57    0.51
  10  12  14    0.80    0.38
 -10 -12  14    0.62    0.27
  12  14  10    0.91    0.33
  12  14  10    0.76    0.17
 -12 -14  10    0.38    0.43
 -12 -14  10    0.31    0.24
  14  10  12    0.98    0.36
  12 -14  12    0.03    0.17
 -14  12  12    0.20    0.28
 -12  12  14    0.01    0.27
  12 -12  14    0.22    0.20
  14 -12  12    0.35    0.20
 -12  14  12    0.03    0.25
 -12 -14  12    0.53    0.43
 -12 -12  14    0.26    0.21
 -14 -12  12    0.48    0.45
 -12 -14  12    0.03    0.19
  12  12  14   -0.09    0.27
  12  14  12    0.18    0.26
 -12 -12  14    0.33    0.42
  14  12  12   -0.18    0.25
  14  12  12    0.20    0.13
 -14 -14   0    0.77    0.38
 -14   0  14   -0.07    0.37
   0 -14  14    0.26    0.25
   0  14  14    0.45    0.31
  14 -14   0    0.34    0.15
  14   0 -14    0.08    0.14
  14   0  14    0.44    0.32
  14   0  14    0.34    0.15
  14  14   0    0.30    0.16
  14  14  -2    8.41    0.76
  14   2 -14    8.11    0.71
 -14   2  14    9.71    0.98
  14  -2  14    7.12    0.68
  -2  14  14    9.64    0.91
   2 -14  14    7.38    0.89
  14  -2  14    6.70    0.79
  14 -14   2    7.63    0.73
  14 -14  -2    9.50    0.72
  14  -2 -14    8.16    0.68
   2  14  14    9.14    0.90
  -2 -14  14    8.81    0.98
 -14  -2  14    7.35    0.97
  14   2  14    8.32    0.89
  14   2  14    8.64    0.69
 -14 -14   2    9.16    0.94
  14  14   2    8.52    0.74
  14  -4  14    0.07    0.23
  14  14  -4    0.27    0.18
 -14   4  14    0.01    0.33
 -14  14   4    0.11    0.25
  14  -4  14    0.04    0.13
  -4  14  14    0.04    0.25
   4 -14  14    0.09    0.23
  14   4 -14    0.21    0.15
  14 -14   4    0.14    0.15
  14 -14  -4    0.06    0.10
  14  -4 -14    0.32    0.12
 -14 -14   4    0.00    0.35
  -4 -14  14    0.13    0.24
   4  14  14    0.38    0.30
  14   4  14    0.06    0.29
  14   4  14    0.18    0.12
 -14  -4  14   -0.23    0.34
  14  14   4    0.44    0.27
  14  14   4    0.03    0.15
  14  14  -6    5.43    0.67
  14   6 -14    5.74    0.64
 -14   6  14    5.09    0.74
 -14  14   6    5.63    0.64
  14  -6  14    6.79    0.70
  -6  14  14    6.21    0.72
   6 -14  14    6.81    0.82
  14  -6  14    5.91    0.63
  14 -14   6    5.96    0.65
  14 -14  -6    4.95    0.52
  -6 -14  14    6.04    0.84
   6  14  14    5.97    0.75
 -14  -6  14    6.08    0.86
  14   6  14    4.87    0.75
  14   6  14    5.88    0.53
 -14 -14   6    7.27    0.88
  14  14   6    5.82    0.69
  14  14   6    5.91    0.58
  14  14  -8    1.62    0.31
  14   8 -14    1.99    0.33
 -14   8  14    1.99    0.48
 -14  14   8    2.62    0.43
  14  -8  14    2.91    0.44
  14  -8  14    1.68    0.31
  -8  14  14    2.47    0.46
   8 -14  14    1.88    0.37
  14 -14   8    2.08    0.34
   8  14  14    2.78    0.52
  -8 -14  14    3.32    0.57
  -8 -14  14    2.02    0.38
 -14  -8  14    3.13    0.62
  14   8  14    2.68    0.56
  14   8  14    2.86    0.37
 -14 -14   8    2.26    0.57
  14  14   8    3.72    0.53
  14  14   8    1.66    0.26
 -10  14  14    4.86    0.65
 -14  10  14    4.58    0.66
 -14  14  10    4.91    0.64
 -14 -14  10    4.54    0.75
  10  14  14    5.82    0.73
 -14 -10  14    3.25    0.74
 -10 -14  14    4.09    0.70
  14  10  14    4.76    0.70
  14  10  14    4.64    0.47
  14  14  10    4.25    0.63
  14  14  10    5.33    0.54
  14 -14  12    0.13    0.20
  14 -12  14   -0.04    0.19
 -12  14  14    0.24    0.32
  12 -14  14    0.26    0.23
 -14  12  14    0.25    0.33
 -14  14  12    0.71    0.32
 -12 -14  14    0.70    0.44
 -12 -14  14   -0.06    0.22
 -14 -12  14   -0.44    0.49
 -14 -12  14    0.32    0.24
  12  14  14    0.53    0.35
 -14 -14  12   -0.36    0.45
 -14 -14  12    0.26    0.23
  14  12  14    0.00    0.32
  14  14  12    0.31    0.32
  14 -14  14    2.58    0.45
 -14 -14  14    2.52    0.44
 -14 -14  14    4.37    0.79
  14  14  14    4.27    0.66
 -15  -1  -1   -0.07    0.20
   1 -15   1    0.13    0.13
   1  -1  15   -0.10    0.24
 -15   1   1   -0.03    0.19
  -1 -15  -1   -0.08    0.10
  15   1  -1   -0.02    0.07
   1  -1  15    0.07    0.08
  15  -1   1   -0.05    0.08
  -1   1  15   -0.26    0.18
  -1   1  15    0.01    0.07
  -1  15   1    0.01    0.09
  -1  -1  15   -0.01    0.08
 -15  -1   1   -0.07    0.20
 -15   1  -1    0.06    0.18
  -1  -1  15   -0.29    0.21
   1   1  15   -0.11    0.21
   1   1  15    0.03    0.06
   1  15   1   -0.01    0.10
  15  -1  -1   -0.04    0.06
   1 -15  -1    0.02    0.12
  -1 -15   1    0.10    0.12
  15   1   1    0.03    0.08
   1 -15   3    1.83    0.31
  -3   1  15    3.19    0.35
  15  -3   1    2.81    0.35
  15   3  -1    2.83    0.36
  -1  15   3    2.16    0.28
  -3   1  15    2.84    0.50
 -15   3   1    2.17    0.40
  -1 -15  -3    3.10    0.41
   3  -1  15    2.43    0.49
   3  -1  15    2.83    0.32
 -15  -3  -1    2.99    0.46
   1  15   3    2.56    0.31
  -1 -15   3    1.84    0.30
  15   3   1    2.93    0.34
   3   1  15    2.04    0.48
 -15  -3   1    2.97    0.47
 -15   3  -1    2.73    0.42
   3   1  15    2.89    0.28
  -3  -1  15    2.22    0.46
  -3  -1  15    1.72    0.26
   1 -15  -3    3.00    0.40
  15  -3  -1    3.31    0.36
  15  -5   1    1.00    0.17
   5  -1  15    1.23    0.39
   5  -1  15    1.13    0.17
  -5   1  15    1.27    0.21
  -1 -15  -5    1.32    0.20
  15   5  -1    1.33    0.20
  -1  15   5    1.66    0.26
 -15  -5  -1    1.67    0.38
   1 -15   5    1.44    0.27
  -5   1  15    1.87    0.39
 -15   5   1    2.13    0.36
   1 -15  -5    1.29    0.20
 -15  -5   1    2.11    0.40
 -15   5  -1    1.91    0.33
  15   5   1    1.26    0.19
  -5  -1  15    1.37    0.38
  -5  -1  15    1.03    0.22
  -1 -15   5    1.22    0.26
   1  15   5    1.57    0.26
   5   1  15    1.13    0.16
   5   1  15    0.98    0.38
   7  -1  15   -0.12    0.07
 -15   7   1   -0.11    0.20
  -1  15   7   -0.01    0.15
 -15  -7  -1   -0.06    0.24
  15  -7   1   -0.01    0.09
   1 -15   7    0.06    0.16
  15   7  -1   -0.19    0.09
  -1 -15  -7    0.04    0.10
  -7   1  15   -0.25    0.09
  -7   1  15   -0.21    0.19
   7  -1  15   -0.10    0.22
  -1 -15   7   -0.04    0.16
  -7  -1  15   -0.06    0.10
   1 -15  -7   -0.06    0.07
   7   1  15   -0.14    0.06
   7   1  15   -0.48    0.22
   1  15   7   -0.02    0.14
  15   7   1   -0.19    0.09
  15  -7  -1   -0.07    0.08
 -15  -7   1    0.15    0.26
 -15   7  -1   -0.12    0.18
  -7  -1  15   -0.13    0.22
  -1  15   9    1.75    0.36
   9  -1  15    1.34    0.39
   1 -15   9    1.13    0.30
  15  -9   1    1.32    0.21
 -15   9   1    1.45    0.37
  -9   1  15    1.03    0.37
 -15  -9  -1    1.58    0.42
   9  -1  15    1.21    0.19
  15   9  -1    1.00    0.20
   1  15   9    1.64    0.33
 -15   9  -1    1.56    0.33
  15   9   1    0.79    0.20
  -1 -15   9    1.25    0.29
   9   1  15    1.00    0.18
  15  -9  -1    1.17    0.19
 -15  -9   1    1.71    0.42
  -9  -1  15    0.88    0.38
   9   1  15    1.51    0.43
  15  11  -1    0.34    0.17
  15 -11   1    0.43    0.15
  11   1 -15    0.49    0.15
 -15 -11  -1    0.69    0.34
  11  -1  15    0.40    0.32
 -11   1  15    0.08    0.29
 -15  11   1    0.55    0.29
  -1  15  11    1.00    0.33
   1 -15  11    0.34    0.23
  11  -1  15    0.51    0.15
  11  -1 -15    0.37    0.14
  15  11   1    0.26    0.16
   1  15  11    0.57    0.29
  11   1  15    0.31    0.14
  11   1  15    0.39    0.29
 -15 -11   1    0.75    0.37
  -1 -15  11    0.39    0.22
 -11  -1  15    0.48    0.35
 -15  11  -1    0.67    0.28
  15 -11  -1    0.46    0.13
  13   1 -15   -0.20    0.12
  15 -13   1   -0.11    0.10
   1 -15  13   -0.05    0.18
 -15 -13  -1   -0.42    0.25
  13  -1  15   -0.12    0.10
 -13   1  15   -0.27    0.30
  13  -1  15   -0.22    0.22
  15  13  -1   -0.14    0.13
  -1  15  13   -0.11    0.25
  -1 -15  13   -0.22    0.17
  15  13   1   -0.08    0.12
 -15 -13   1   -0.45    0.26
 -13  -1  15   -0.19    0.34
  13   1  15   -0.12    0.11
   1  15  13   -0.03    0.24
  15 -13  -1   -0.03    0.10
  13  -1 -15   -0.19    0.10
  13   1  15   -0.07    0.23
  -1   3  15    2.54    0.48
  -1   3  15    2.82    0.23
  -3  15   1    2.26    0.24
   1  -3  15    1.95    0.45
  15  -1   3    2.79    0.35
 -15  -1  -3    2.41    0.43
   3 -15   1    1.92    0.29
   1  -3  15    2.74    0.36
 -15   1   3    2.75    0.46
  -3 -15  -1    1.62    0.27
  15   1  -3    3.00    0.34
 -15  -1   3    2.50    0.43
   1   3  15    2.66    0.24
  15   1   3    2.85    0.35
   3 -15  -1    1.67    0.26
  -1  -3  15    2.79    0.39
  15  -1  -3    2.81    0.34
   3  15   1    2.73    0.31
 -15   1  -3    2.31    0.39
   1   3  15    3.29    0.53
  -1  -3  15    2.01    0.47
 -15   3   3   -0.01    0.21
   3  -3  15    0.11    0.25
  -3  15   3   -0.04    0.11
   3 -15   3   -0.07    0.11
  15   3  -3   -0.12    0.08
  -3 -15  -3    0.05    0.10
   3  -3  15    0.01    0.08
  -3   3  15    0.06    0.06
  -3   3  15   -0.22    0.16
  15  -3   3   -0.04    0.07
 -15   3  -3    0.09    0.20
   3   3  15   -0.20    0.19
   3   3  15    0.00    0.05
   3 -15  -3    0.03    0.09
   3  15   3   -0.09    0.10
  15  -3  -3   -0.03    0.08
  -3 -15   3   -0.07    0.13
  -3  -3  15   -0.36    0.19
  -3 -15   3   -0.03    0.13
 -15  -3   3    0.02    0.25
  -3  -3  15   -0.09    0.11
  15   3   3   -0.02    0.08
 -15   5   3    0.08    0.26
   3 -15   5    0.11    0.16
  15  -5   3    0.11    0.10
   5  -3  15   -0.05    0.19
  -3  15   5    0.19    0.14
  -5   3  15    0.00    0.22
   5  -3  15    0.10    0.10
  -5   3  15    0.11    0.09
  -3 -15  -5    0.14    0.10
  15   5  -3   -0.05    0.09
   5   3  15    0.01    0.26
  -5  -3  15   -0.25    0.23
   5   3  15   -0.03    0.07
 -15   5  -3    0.33    0.21
  15  -5  -3    0.08    0.09
   3 -15  -5    0.16    0.09
  -5  -3  15    0.13    0.15
   3  15   5    0.15    0.15
  -3 -15   5    0.07    0.13
 -15  -5   3   -0.07    0.23
  15   5   3    0.09    0.10
  -3  15   7    0.33    0.20
   7  -3  15    0.09    0.10
   3 -15   7    0.17    0.16
   7  -3  15   -0.14    0.27
  -3 -15  -7    0.07    0.10
  15   7  -3    0.01    0.11
  -7   3  15    0.01    0.23
 -15   7   3    0.16    0.28
  -7   3  15    0.13    0.10
  15  -7   3    0.19    0.11
   7   3  15    0.29    0.27
 -15  -7   3    0.31    0.31
   7   3  15    0.02    0.08
   3 -15  -7    0.21    0.09
  15   7   3    0.09    0.10
  -7  -3  15    0.00    0.15
  -7  -3  15    0.06    0.27
  15  -7  -3    0.21    0.11
 -15   7  -3    0.18    0.20
  -3 -15   7    0.17    0.18
   3  15   7    0.17    0.18
  -3  15   9   -0.01    0.20
   9  -3  15    0.17    0.26
  15   9  -3   -0.03    0.12
 -15   9   3   -0.58    0.26
   9  -3  15    0.08    0.12
   3 -15   9    0.16    0.19
  -9   3  15   -0.38    0.22
  15  -9   3    0.17    0.13
  15  -9  -3    0.01    0.10
  -9  -3  15    0.02    0.30
 -15   9  -3    0.21    0.24
  15   9   3   -0.01    0.11
 -15  -9   3   -0.07    0.31
   9   3  15    0.10    0.09
   9   3  15    0.17    0.28
  -3 -15   9    0.34    0.20
  -9  -3  15   -0.08    0.14
   3  15   9   -0.06    0.20
  11  -3  15    0.04    0.24
  11  -3  15   -0.04    0.12
 -11   3  15   -0.17    0.24
  15  11  -3   -0.07    0.12
 -15  11   3   -0.43    0.27
  15 -11   3    0.05    0.11
  -3  15  11   -0.08    0.22
   3 -15  11   -0.03    0.15
 -15  11  -3   -0.06    0.22
  11   3  15   -0.19    0.21
  15  11   3   -0.14    0.11
 -15 -11   3    0.05    0.32
  11  -3 -15   -0.03    0.10
  15 -11  -3   -0.05    0.09
 -11  -3  15    0.19    0.31
   3  15  11   -0.21    0.20
  11   3  15   -0.03    0.09
  -3 -15  11    0.15    0.18
  13   3 -15   -0.12    0.14
   3 -15  13   -0.05    0.21
  -3  15  13    0.18    0.28
  15 -13   3   -0.01    0.12
  13  -3  15   -0.01    0.27
  13  -3  15   -0.01    0.13
 -13   3  15   -0.39    0.32
  15  13  -3    0.17    0.16
 -15  13   3   -0.39    0.29
  15  13   3    0.05    0.14
  13   3  15   -0.32    0.27
 -13  -3  15    0.28    0.39
  13   3  15    0.11    0.11
  -3 -15  13    0.15    0.22
   3  15  13    0.08    0.30
  13  -3 -15    0.14    0.11
 -15 -13   3    0.16    0.37
  15 -13  -3   -0.02    0.12
   1  -5  15    2.12    0.43
   1  -5  15    1.19    0.23
  15  -1   5    1.25    0.19
  15   1  -5    1.21    0.19
  -5 -15  -1    0.94    0.21
   5 -15   1    0.76    0.21
  -1   5  15    1.50    0.40
 -15   1   5    1.44    0.43
   5  15   1    1.78    0.26
  15   1   5    1.81    0.35
  -1  -5  15    1.26    0.39
   5 -15  -1    1.13    0.21
  -5 -15   1    1.52    0.24
  15   1   5    1.21    0.18
  -1  -5  15    1.27    0.25
  15  -1  -5    2.11    0.28
   1   5  15    1.90    0.44
 -15  -1   5    1.73    0.39
   5 -15   3   -0.01    0.11
  -3   5  15    0.15    0.26
  15   3  -5   -0.13    0.08
  15  -3   5    0.09    0.09
   3  -5  15    0.09    0.11
   3  -5  15    0.31    0.24
  -5 -15  -3   -0.04    0.10
 -15   3   5   -0.20    0.23
  -5  15   3    0.22    0.13
   3   5  15   -0.05    0.26
   3   5  15    0.00    0.05
   5 -15  -3    0.04    0.09
  -5 -15   3    0.15    0.18
  -5 -15   3   -0.01    0.12
  15  -3  -5    0.13    0.09
  -3  -5  15    0.10    0.15
  -3  -5  15   -0.21    0.22
  15   3   5    0.31    0.21
  15   3   5    0.04    0.09
   5  15   3    0.10    0.15
 -15  -3   5   -0.03    0.25
  15  -5   5   -0.06    0.08
   5  -5  15   -0.01    0.09
  -5 -15  -5   -0.14    0.09
  15   5  -5   -0.24    0.09
  -5   5  15   -0.16    0.21
 -15   5   5   -0.59    0.26
  -5  15   5   -0.12    0.14
   5 -15   5    0.00    0.14
   5  -5  15    0.05    0.20
   5  15   5    0.00    0.15
 -15  -5   5    0.20    0.28
 -15   5  -5   -0.07    0.17
  -5 -15   5   -0.06    0.18
  15   5   5   -0.19    0.14
  15   5   5    0.01    0.08
  15  -5  -5   -0.04    0.07
  -5  -5  15    0.15    0.16
   5 -15  -5   -0.01    0.06
  -5  -5  15   -0.41    0.22
  -5 -15   5   -0.09    0.12
 -15   7   5    0.97    0.36
  15  -7   5    0.62    0.17
   5 -15   7    0.57    0.24
   7  -5  15    0.69    0.18
  15   7  -5    0.68    0.18
   7  -5  15    0.87    0.32
  -5 -15  -7    0.94    0.17
  -5  15   7    0.97    0.26
  -7   5  15    0.64    0.34
  -5 -15   7    1.01    0.30
   5 -15  -7    0.80    0.13
 -15  -7   5    0.89    0.39
  -5 -15   7    0.27    0.21
  -7  -5  15    0.77    0.22
 -15   7  -5    0.90    0.26
   7   5  15    0.49    0.38
   7   5  15    0.73    0.12
  15   7   5    1.73    0.40
  15   7   5    0.60    0.16
  -7  -5  15    0.73    0.33
   5  15   7    1.10    0.27
  15  -7  -5    0.64    0.15
  15   9  -5   -0.03    0.12
   5 -15   9   -0.18    0.15
  -9   5  15   -0.28    0.22
  15  -9   5   -0.18    0.10
  -5  15   9   -0.10    0.20
   9  -5  15   -0.18    0.17
 -15   9  -5    0.02    0.19
   5  15   9    0.06    0.20
 -15  -9   5    0.02    0.32
   9   5  15   -0.15    0.07
  15   9   5   -0.13    0.22
   9   5  15    0.20    0.27
  -5 -15   9    0.00    0.15
  -9  -5  15   -0.20    0.28
  15   9   5   -0.08    0.09
  -9  -5  15   -0.05    0.12
  15  -9  -5   -0.02    0.08
   5 -15  11    0.53    0.26
 -11   5  15    0.68    0.34
  15 -11   5    0.59    0.18
  11  -5  15    0.71    0.31
 -15  11   5    0.73    0.35
  15  11  -5    0.55    0.18
  11  -5  15    0.41    0.18
  -5  15  11    0.45    0.30
  11   5  15    0.45    0.12
  15  11   5    0.40    0.17
  -5 -15  11    0.32    0.22
   5  15  11    0.57    0.30
 -15 -11   5    0.53    0.41
 -15  11  -5    0.67    0.26
  11   5  15    0.78    0.34
 -11  -5  15    0.99    0.45
  15 -11  -5    0.47    0.14
  15  11   5    0.58    0.34
  13  -5  15    0.19    0.29
 -15  13   5   -0.21    0.33
  13   5 -15    0.44    0.19
 -13   5  15    0.06    0.31
  -5  15  13    0.43    0.31
   5 -15  13    0.05    0.23
  13  -5  15    0.35    0.16
  15 -13   5    0.11    0.17
  15  13  -5    0.15    0.19
 -13  -5  15    0.11    0.45
  15  13   5    0.13    0.30
   5  15  13    0.67    0.31
  -5 -15  13    0.45    0.25
  15  13   5    0.14    0.16
  15 -13  -5    0.22    0.14
  13   5  15    0.15    0.14
 -15 -13   5    0.66    0.41
  13   5  15    0.08    0.36
   1  -7  15   -0.11    0.20
  15   1  -7   -0.14    0.08
  15  -1   7   -0.09    0.08
   7 -15   1   -0.08    0.10
  15  -1   7    0.02    0.20
   1  -7  15    0.03    0.13
 -15   1   7   -0.41    0.28
  -1   7  15   -0.06    0.25
  -7 -15   1   -0.13    0.10
   1   7  15   -0.08    0.24
   7 -15  -1   -0.13    0.08
  -1  -7  15   -0.01    0.13
  -1  -7  15   -0.17    0.19
 -15  -1   7   -0.37    0.25
  -7 -15   1   -0.01    0.17
   7  15   1   -0.02    0.14
  15   1   7   -0.04    0.08
  15   1   7   -0.04    0.17
  15  -1  -7    0.04    0.08
  15  -3   7    0.25    0.18
   3  -7  15    0.09    0.23
  -3   7  15    0.24    0.27
  15  -3   7    0.05    0.09
  15   3  -7   -0.08    0.11
  -7  15   3    0.18    0.14
   3  -7  15    0.07    0.13
 -15   3   7    0.26    0.32
   7 -15   3    0.01    0.15
   3   7  15   -0.01    0.24
  15   3   7    0.14    0.10
  15   3   7    0.00    0.21
   7 -15  -3    0.12    0.11
 -15  -3   7   -0.10    0.35
  -3  -7  15    0.03    0.15
  -7 -15   3    0.03    0.21
  -7 -15   3   -0.06    0.13
  -3  -7  15    0.05    0.25
   7  15   3    0.29    0.18
  15  -3  -7    0.05    0.08
   5  -7  15    0.63    0.32
  -7  15   5    0.98    0.25
   7 -15   5    0.37    0.19
   5  -7  15    0.57    0.19
  -5   7  15    1.12    0.35
  15  -5   7    0.64    0.17
 -15   5   7    0.84    0.39
  15   5  -7    0.72    0.17
  -7 -15   5    1.22    0.26
   7  15   5    1.19    0.28
   7 -15  -5    0.75    0.15
  15   5   7    0.48    0.29
  15  -5  -7    0.95    0.16
  15   5   7    0.67    0.16
   7  15   5    0.75    0.16
  -5  -7  15    0.66    0.36
  -7 -15   5    1.39    0.34
 -15  -5   7    0.82    0.38
  -5  -7  15    0.74    0.24
   5   7  15    1.09    0.38
   7 -15   7   -0.21    0.11
   7  -7  15   -0.11    0.09
 -15   7   7    0.18    0.30
  15   7  -7    0.00    0.11
  -7   7  15   -0.23    0.22
  15  -7   7   -0.05    0.08
  -7  15   7    0.02    0.17
   7  15   7   -0.18    0.17
   7 -15  -7   -0.07    0.06
   7  15   7   -0.09    0.10
  15  -7  -7    0.01    0.08
  -7 -15   7   -0.52    0.24
  -7 -15   7   -0.13    0.14
  -7  -7  15   -0.02    0.16
  -7  -7  15   -0.41    0.23
 -15  -7   7   -0.44    0.33
   7   7  15   -0.23    0.24
  15   7   7    0.09    0.23
  15   7   7   -0.06    0.08
 -15   9   7   -0.09    0.30
   7 -15   9   -0.10    0.14
  15   9  -7   -0.01    0.13
   9  -7  15   -0.15    0.13
  -7  15   9    0.03    0.21
   9  -7  15   -0.19    0.20
  15  -9   7    0.14    0.13
  -9   7  15   -0.49    0.25
   7  15   9   -0.13    0.10
   9   7  15   -0.10    0.08
  -9  -7  15   -0.21    0.15
  -9  -7  15   -0.08    0.30
   7  15   9   -0.18    0.21
  -7 -15   9   -0.52    0.29
  15   9   7   -0.25    0.21
   9   7  15   -0.33    0.22
  15  -9  -7   -0.11    0.09
  15   9   7   -0.13    0.09
  -7 -15   9    0.20    0.17
 -15   9  -7    0.03    0.19
 -15  -9   7    0.15    0.37
   7 -15  11   -0.26    0.14
 -11   7  15   -0.25    0.22
  11  -7  15   -0.17    0.18
  -7  15  11   -0.08    0.21
  11  -7  15   -0.11    0.13
  15  11  -7   -0.07    0.15
 -15  11   7    0.03    0.28
  15 -11   7   -0.12    0.13
  15  11   7   -0.11    0.10
 -11  -7  15   -0.44    0.33
  -7 -15  11   -0.21    0.17
  15 -11  -7   -0.10    0.09
 -11  -7  15    0.05    0.19
  11   7  15    0.01    0.24
  15  11   7   -0.39    0.20
  11   7  15   -0.03    0.08
   7  15  11   -0.20    0.22
 -15 -11   7   -0.34    0.38
 -15  13   7   -0.08    0.28
   7 -15  13   -0.20    0.17
  15  13  -7   -0.03    0.16
  -7  15  13   -0.06    0.27
 -13   7  15   -0.62    0.29
  13  -7  15   -0.13    0.21
  13  -7  15   -0.16    0.13
  15 -13   7   -0.18    0.11
 -15 -13   7   -0.17    0.37
  15  13   7    0.11    0.28
  13   7  15   -0.23    0.09
   7  15  13   -0.18    0.26
  13   7  15   -0.42    0.26
  15  13   7   -0.23    0.12
 -13  -7  15   -0.23    0.40
  15 -13  -7   -0.13    0.11
  -7 -15  13    0.10    0.20
  -1   9  15    1.92    0.43
  15   1  -9    1.05    0.20
   9  15  -1    0.92    0.21
   1  -9  15    1.16    0.28
   9 -15   1    1.24    0.23
 -15   1   9    1.19    0.46
  15  -1   9    1.05    0.20
  15  -1   9    1.20    0.36
   1  -9  15    1.73    0.39
  15   1   9    1.47    0.40
   9  15   1    1.08    0.22
   1   9  15    1.20    0.42
   9  15   1    1.57    0.32
 -15  -1   9    2.02    0.46
  15  -1  -9    0.88    0.17
  -9 -15   1    1.87    0.36
  -1  -9  15    1.53    0.41
  -1  -9  15    0.97    0.28
   9 -15  -1    0.92    0.19
  15   1   9    1.15    0.19
 -15   3   9    0.15    0.34
  15   3  -9   -0.11    0.12
  15  -3   9    0.12    0.12
   9 -15   3    0.16    0.15
   3  -9  15    0.47    0.27
  15  -3   9   -0.04    0.21
   3  -9  15    0.14    0.17
  -3   9  15    0.14    0.29
 -15  -3   9   -0.05    0.32
  15  -3  -9    0.04    0.09
   9  15   3    0.15    0.20
   9  15   3    0.13    0.13
   9 -15  -3    0.12    0.10
  -9 -15   3    0.08    0.23
  -3  -9  15    0.00    0.27
  -3  -9  15    0.40    0.23
  15   3   9    0.03    0.10
   3   9  15   -0.21    0.28
  15   3   9    0.17    0.27
  -9  15   5   -0.12    0.16
   9 -15   5   -0.06    0.11
   5  -9  15   -0.04    0.12
  -5   9  15   -0.20    0.25
   5  -9  15   -0.06    0.17
  15   5  -9   -0.09    0.11
  15  -5   9   -0.17    0.10
  15  -5   9   -0.13    0.15
 -15   5   9   -0.37    0.32
  -9 -15   5   -0.04    0.15
  -5  -9  15   -0.49    0.28
  -5  -9  15    0.01    0.19
   5   9  15   -0.50    0.28
 -15  -5   9   -0.35    0.37
  15  -5  -9   -0.04    0.08
  -9 -15   5   -0.47    0.23
   9  15   5   -0.03    0.18
  15   5   9    0.01    0.23
  15   5   9   -0.07    0.08
   9 -15  -5   -0.19    0.07
   7  -9  15    0.19    0.17
  -9  15   7   -0.06    0.19
   7  -9  15   -0.04    0.19
  -7   9  15   -0.19    0.23
  15   7  -9    0.08    0.13
   9 -15   7    0.10    0.16
  15  -7   9   -0.06    0.17
  15  -7   9   -0.06    0.11
 -15   7   9    0.03    0.30
   7   9  15   -0.03    0.33
  -9 -15   7   -0.22    0.24
  -9 -15   7   -0.18    0.15
   9  15   7   -0.08    0.21
  15   7   9   -0.39    0.25
  15  -7  -9   -0.08    0.07
   9 -15  -7    0.01    0.08
  -7  -9  15   -0.36    0.26
  -7  -9  15   -0.04    0.17
   9  15   7   -0.07    0.11
 -15  -7   9   -0.45    0.41
  15   7   9    0.04    0.10
 -15   9   9   -0.29    0.30
   9  -9  15   -0.28    0.13
   9  -9  15   -0.18    0.19
  15   9  -9   -0.08    0.14
  -9   9  15   -0.16    0.23
   9 -15   9   -0.13    0.15
  15  -9   9   -0.18    0.09
  -9  15   9   -0.26    0.19
  15   9   9   -0.47    0.23
  -9 -15   9   -0.03    0.16
  -9  -9  15    0.04    0.17
   9   9  15   -0.03    0.30
  -9 -15   9   -0.09    0.31
  15  -9  -9   -0.07    0.08
 -15  -9   9   -0.55    0.37
  15   9   9   -0.07    0.09
   9  15   9   -0.24    0.18
  -9  -9  15   -0.60    0.29
   9  15   9   -0.18    0.10
  -9  15  11   -0.20    0.23
 -15  11   9   -0.20    0.27
  11  -9  15   -0.13    0.13
  15  11  -9   -0.08    0.15
   9 -15  11   -0.07    0.16
 -11   9  15   -0.21    0.21
  11  -9  15   -0.20    0.18
  15 -11   9   -0.10    0.11
 -11  -9  15    0.12    0.18
  15  11   9   -0.18    0.24
  -9 -15  11   -0.30    0.33
 -11  -9  15   -0.30    0.32
  11   9  15   -0.17    0.24
 -15 -11   9   -0.53    0.38
  -9 -15  11   -0.14    0.17
   9  15  11   -0.11    0.21
  15  11   9   -0.12    0.10
  15 -11  -9   -0.05    0.09
 -13   9  15   -0.32    0.26
  15  13  -9   -0.33    0.14
   9 -15  13    0.08    0.19
 -15  13   9   -0.60    0.26
  13  -9  15   -0.09    0.13
  15 -13   9   -0.06    0.15
  -9  15  13   -0.28    0.23
  13  -9  15   -0.15    0.16
  -9 -15  13   -0.17    0.19
 -13  -9  15   -0.10    0.45
   9  15  13    0.09    0.26
 -15 -13   9   -0.27    0.40
  13   9  15   -0.37    0.24
  15  13   9   -0.20    0.26
  15  13   9   -0.22    0.11
  15  -1  11    0.43    0.15
   1 -11  15    0.37    0.26
  15  -1  11    0.50    0.29
   1 -11  15    0.65    0.26
  11 -15   1    0.35    0.16
  15   1 -11    0.22    0.13
  11  15  -1    0.24    0.17
  -1  11  15    0.37    0.32
 -15   1  11    0.41    0.41
  15  -1 -11    0.40    0.16
  -1 -11  15    0.22    0.23
  15   1  11    0.33    0.28
  15   1  11    0.47    0.15
 -11 -15   1    1.11    0.35
  -1 -11  15    0.74    0.34
   1  11  15    0.68    0.35
 -15  -1  11    0.50    0.36
  11  15   1    0.38    0.17
  11 -15  -1    0.28    0.14
 -15   3  11    0.01    0.29
  -3  11  15   -0.33    0.24
  15   3 -11   -0.03    0.12
  11 -15   3    0.02    0.13
   3 -11  15    0.05    0.18
  15  -3  11    0.05    0.22
   3 -11  15   -0.26    0.20
  15  -3  11    0.00    0.10
  11  15  -3   -0.03    0.14
   3  11  15   -0.05    0.26
  15   3  11    0.05    0.09
  -3 -11  15   -0.14    0.18
  11 -15  -3    0.02    0.10
  11  15   3   -0.21    0.18
  15  -3 -11   -0.10    0.10
 -15  -3  11   -0.36    0.33
  11  15   3    0.10    0.13
  15   3  11    0.01    0.25
 -11 -15   3   -0.17    0.27
  -3 -11  15   -0.21    0.27
 -11  15   5    0.55    0.23
  11 -15   5    0.50    0.19
 -15   5  11    0.72    0.39
  15  -5  11    0.82    0.28
  -5  11  15    0.55    0.34
  11  15  -5    0.62    0.20
  15   5 -11    0.44    0.16
  15  -5  11    0.36    0.17
   5 -11  15    0.48    0.24
   5  11  15    0.81    0.36
  11  15   5    0.46    0.17
 -11 -15   5    0.69    0.35
  11  15   5    0.51    0.29
  -5 -11  15    0.53    0.35
  -5 -11  15    0.62    0.28
 -15  -5  11    0.52    0.43
  15  -5 -11    0.43    0.13
  15   5  11    0.51    0.15
  11 -15  -5    0.53    0.14
  15   5  11    0.47    0.32
  15   7 -11    0.00    0.13
  -7  11  15   -0.03    0.26
  15  -7  11   -0.12    0.19
  15  -7  11   -0.01    0.11
   7 -11  15   -0.01    0.16
 -11  15   7   -0.11    0.17
  11 -15   7   -0.10    0.13
 -15   7  11   -0.06    0.31
  -7 -11  15   -0.22    0.16
 -11 -15   7   -0.58    0.34
  15   7  11   -0.16    0.24
  11  15   7   -0.16    0.11
 -15  -7  11   -0.23    0.41
  15  -7 -11   -0.10    0.08
  11  15   7   -0.32    0.19
   7  11  15   -0.19    0.22
  -7 -11  15   -0.16    0.28
  15   7  11    0.01    0.11
 -15   9  11   -0.39    0.26
  15  -9  11   -0.07    0.16
  15  -9  11   -0.05    0.15
   9 -11  15   -0.18    0.16
  -9  11  15   -0.40    0.23
  11 -15   9   -0.02    0.16
  15   9 -11   -0.08    0.17
 -11  15   9   -0.22    0.20
   9  11  15   -0.13    0.27
  15   9  11   -0.13    0.09
  -9 -11  15   -0.41    0.26
  15   9  11    0.09    0.28
 -11 -15   9   -0.12    0.14
  11  15   9   -0.24    0.21
  11  15   9   -0.22    0.11
 -15  -9  11   -0.15    0.41
 -11 -15   9   -0.17    0.33
  -9 -11  15   -0.23    0.19
 -11  11  15   -0.24    0.26
 -11  15  11   -0.29    0.22
  15 -11  11   -0.06    0.12
  15  11 -11   -0.19    0.14
  11 -15  11   -0.23    0.17
  11 -11  15   -0.20    0.15
 -15  11  11   -0.34    0.26
 -11 -15  11   -0.82    0.40
 -15 -11  11   -0.49    0.42
 -11 -11  15   -0.23    0.17
 -11 -15  11   -0.21    0.15
  15  11  11   -0.03    0.23
  15  11  11   -0.02    0.10
  11  11  15   -0.16    0.21
  11  15  11   -0.14    0.22
 -11 -11  15   -0.10    0.38
  15  13 -11    0.13    0.19
 -15  13  11    0.26    0.29
  11 -15  13    0.04    0.21
 -11  15  13    0.13    0.26
  15 -13  11    0.03    0.18
  13 -11  15   -0.20    0.17
 -13 -11  15    0.00    0.47
 -13 -11  15   -0.20    0.20
 -11 -15  13   -0.59    0.44
 -15 -13  11   -0.52    0.47
  13  11  15   -0.03    0.31
 -11 -15  13   -0.09    0.20
  15  13  11   -0.10    0.13
  11  15  13   -0.07    0.29
  15  13  11    0.31    0.31
  15   1 -13   -0.16    0.12
 -13 -15  -1   -0.18    0.26
 -15   1  13   -0.17    0.32
  13  15  -1   -0.14    0.13
  -1  13  15   -0.35    0.26
   1 -13  15    0.01    0.20
  13 -15   1   -0.02    0.10
  15  -1  13   -0.25    0.10
  15  -1  13   -0.41    0.20
  13 -15  -1   -0.18    0.11
  15  -1 -13   -0.28    0.12
 -13 -15   1   -0.02    0.29
  15   1  13   -0.06    0.10
  13  15   1   -0.37    0.14
  15   1  13   -0.53    0.23
 -15  -1  13   -0.27    0.32
  -1 -13  15   -0.04    0.17
   1  13  15   -0.43    0.29
  15  -3  13    0.08    0.14
  15   3 -13    0.14    0.14
 -15   3  13    0.04    0.33
  13 -15   3    0.03    0.15
  -3  13  15    0.34    0.32
   3 -13  15   -0.15    0.19
  15  -3  13   -0.17    0.28
  13  15  -3   -0.12    0.15
  13  15   3    0.02    0.15
  15  -3 -13   -0.25    0.12
  15   3  13   -0.05    0.11
   3  13  15   -0.51    0.28
  13 -15  -3    0.07    0.12
  15   3  13   -0.20    0.32
  13  15   3   -0.38    0.23
 -13 -15   3    0.03    0.35
  -3 -13  15    0.11    0.21
 -15  -3  13    0.05    0.36
  15  -5  13    0.19    0.30
 -13  15   5    0.49    0.27
   5 -13  15    0.40    0.26
 -15   5  13    0.70    0.42
  15   5 -13    0.28    0.16
  15  -5  13    0.20    0.17
  13  15  -5    0.29    0.20
  13 -15   5    0.28    0.17
  -5  13  15    0.63    0.32
 -15  -5  13    1.02    0.52
  13 -15  -5    0.22    0.14
   5  13  15    0.41    0.34
  15   5  13    0.34    0.14
  13  15   5    0.18    0.27
  13  15   5    0.07    0.15
  15  -5 -13    0.22    0.13
 -13 -15   5   -0.16    0.37
  15   5  13   -0.27    0.34
  -5 -13  15    0.29    0.36
  -5 -13  15    0.09    0.21
 -15   7  13    0.21    0.35
  -7  13  15    0.24    0.30
 -13  15   7   -0.22    0.24
  13  15  -7   -0.20    0.16
  15  -7  13   -0.14    0.21
  13 -15   7   -0.05    0.18
   7 -13  15   -0.19    0.15
  15  -7  13   -0.19    0.13
  15   7 -13   -0.02    0.17
  15   7  13   -0.29    0.29
 -13 -15   7   -0.44    0.33
  13  15   7   -0.03    0.12
  -7 -13  15   -0.13    0.18
  15   7  13   -0.02    0.12
  -7 -13  15    0.25    0.33
  13  15   7   -0.38    0.21
   7  13  15   -0.12    0.29
 -15  -7  13   -0.52    0.41
 -13  15   9   -0.12    0.21
  13 -15   9    0.01    0.17
 -15   9  13   -0.14    0.28
  -9  13  15   -0.17    0.21
  15  -9  13   -0.18    0.14
  15   9 -13   -0.26    0.17
   9 -13  15    0.01    0.18
  15   9  13   -0.08    0.09
 -15  -9  13   -0.08    0.46
  13  15   9   -0.13    0.12
  15   9  13   -0.63    0.25
  -9 -13  15   -0.63    0.31
  -9 -13  15   -0.15    0.16
  13  15   9   -0.15    0.24
 -13 -15   9   -0.11    0.41
   9  13  15   -0.21    0.24
 -11  13  15   -0.03    0.29
  11 -13  15   -0.14    0.19
 -15  11  13    0.02    0.31
  15  11 -13    0.02    0.19
  15 -11  13   -0.03    0.15
 -13  15  11   -0.10    0.27
  13 -15  11   -0.01    0.18
 -13 -15  11   -0.31    0.20
 -11 -13  15   -0.18    0.40
 -15 -11  13   -0.99    0.44
  11  13  15    0.07    0.30
  15  11  13   -0.09    0.12
  13  15  11   -0.17    0.29
 -11 -13  15   -0.04    0.21
 -13 -15  11    0.07    0.45
  15  11  13   -0.53    0.28
  13 -15  13    0.09    0.20
 -15  13  13   -0.22    0.28
 -13  13  15   -0.20    0.27
  13 -13  15   -0.11    0.20
  15 -13  13   -0.16    0.16
 -13  15  13   -0.23    0.26
 -13 -15  13   -0.40    0.37
 -13 -13  15   -0.05    0.18
 -15 -13  13   -0.36    0.46
 -13 -15  13   -0.19    0.20
  13  13  15   -0.58    0.28
  13  15  13   -0.23    0.28
 -13 -13  15   -1.07    0.45
  15  13  13   -0.36    0.30
 -15 -15  -1   -0.08    0.30
  15  15  -1   -0.11    0.15
  15   1 -15   -0.12    0.12
 -15   1  15   -0.25    0.34
  15  -1  15   -0.05    0.13
  -1  15  15   -0.17    0.28
   1 -15  15    0.01    0.21
  15  -1  15   -0.07    0.28
  15 -15   1   -0.11    0.11
  15 -15  -1   -0.02    0.11
  15  -1 -15   -0.15    0.12
   1  15  15   -0.13    0.26
  -1 -15  15    0.00    0.22
 -15  -1  15   -0.45    0.35
  15   1  15    0.02    0.28
  15   1  15   -0.02    0.11
 -15 -15   1   -0.25    0.27
  15  15   1   -0.05    0.13
  15  15  -3   -0.15    0.15
  15   3 -15    0.05    0.14
 -15   3  15   -0.19    0.31
  15  -3  15   -0.06    0.12
  -3  15  15   -0.04    0.27
   3 -15  15   -0.15    0.22
  15  -3  15   -0.20    0.21
  15 -15   3   -0.13    0.14
  15 -15  -3   -0.02    0.11
  15  -3 -15   -0.14    0.11
   3  15  15   -0.28    0.28
  -3 -15  15   -0.02    0.18
 -15  -3  15   -0.70    0.30
  15   3  15   -0.14    0.24
  15   3  15   -0.10    0.10
 -15 -15   3   -0.08    0.35
  15  15   3   -0.14    0.13
  15   5 -15   -0.22    0.14
  15  -5  15    0.04    0.24
 -15   5  15   -0.25    0.28
  15  15  -5   -0.08    0.17
  -5  15  15   -0.27    0.24
   5 -15  15   -0.34    0.16
  15  -5  15   -0.12    0.13
  15 -15   5   -0.30    0.12
  15 -15  -5   -0.08    0.09
 -15  -5  15   -0.18    0.35
   5  15  15   -0.05    0.29
 -15 -15   5   -0.34    0.35
  15   5  15   -0.14    0.30
  15   5  15   -0.16    0.10
  -5 -15  15    0.01    0.19
  15  15   5   -0.29    0.26
  15  15   5   -0.14    0.13
  15   7 -15   -0.05    0.17
  15  -7  15   -0.25    0.21
 -15   7  15   -0.40    0.30
 -15  15   7    0.08    0.27
  15  -7  15    0.00    0.14
  -7  15  15   -0.33    0.24
   7 -15  15   -0.28    0.17
  15  15  -7   -0.01    0.18
  15 -15   7   -0.13    0.15
 -15  -7  15    0.01    0.39
   7  15  15   -0.28    0.28
 -15 -15   7   -0.46    0.38
  15   7  15   -0.24    0.28
  15   7  15   -0.12    0.10
  -7 -15  15   -0.29    0.19
  15  15   7   -0.37    0.26
  15  15   7   -0.18    0.13
  15 -15   9   -0.04    0.17
  15  15  -9    0.10    0.19
 -15   9  15    0.06    0.30
 -15  15   9   -0.41    0.24
   9 -15  15   -0.13    0.22
  -9  15  15   -0.39    0.28
  15  -9  15   -0.17    0.14
  -9 -15  15   -0.50    0.21
 -15 -15   9   -0.65    0.41
   9  15  15   -0.18    0.30
  15   9  15   -0.14    0.27
  15   9  15   -0.22    0.11
 -15  -9  15   -0.07    0.45
  15  15   9   -0.40    0.28
  15 -11  15   -0.20    0.18
  15 -15  11   -0.40    0.17
 -15  15  11   -0.24    0.26
  11 -15  15   -0.38    0.18
 -11  15  15   -0.61    0.25
 -11 -15  15   -0.46    0.21
  11  15  15   -0.18    0.29
 -15 -11  15   -0.30    0.44
 -15 -15  11   -0.64    0.48
  15  11  15   -0.29    0.32
  15  15  11   -0.15    0.26
  15 -15  13   -0.22    0.16
  15 -13  15   -0.28    0.19
 -15  15  13    0.00    0.29
 -13  15  15   -0.54    0.28
 -15  13  15    0.10    0.31
 -15 -13  15   -0.10    0.44
 -13 -15  15   -0.32    0.23
 -15 -13  15   -0.21    0.18
 -15 -15  13   -1.18    0.46
 -15 -15  13   -0.14    0.20
  15  13  15   -0.22    0.34
  15 -15  15   -0.36    0.20
 -15  15  15    0.13    0.34
 -15 -15  15   -0.15    0.24
 -15 -15  15   -0.98    0.47
  15  15  15   -0.22    0.37
 -16   0   0  325.25   18.88
   0 -16   0  360.78   17.82
   0   0  16  377.88   19.13
   0   0  16  329.47   17.60
  16   0   0  361.45   17.69
  16  -2   0    0.21    0.12
  16   2   0    0.18    0.13
   2   0  16   -0.15    0.33
   2   0  16    0.03    0.11
   0  16   2    0.23    0.14
   0 -16   2    0.48    0.20
 -16  -2   0    0.51    0.29
 -16   2   0    0.42    0.29
  -2   0  16   -0.25    0.31
  -2   0  16   -0.07    0.13
   0 -16  -2    0.52    0.17
   0 -16  -4  138.29    6.47
  -4   0  16  114.86    6.40
 -16   4   0  118.96    6.84
  -4   0  16  127.91    7.05
   0 -16   4  141.48    6.67
 -16  -4   0  122.09    6.95
   4   0  16  116.08    6.30
  16  -4   0  128.14    6.40
  16   4   0  117.13    6.39
   0  16   4  111.37    6.69
   6   0  16    0.14    0.10
   6   0  16    0.28    0.32
 -16  -6   0    0.01    0.31
 -16   6   0    0.03    0.23
  -6   0  16    0.16    0.30
  16  -6   0    0.26    0.13
  16   6   0    0.06    0.11
   0  16   6    0.45    0.19
   0 -16  -6    0.29    0.13
   0 -16   6    0.08    0.16
  -6   0  16    0.06    0.14
   0 -16   8  191.71    9.69
 -16   8   0  187.94   10.00
  -8   0  16  191.84   10.19
  16   8   0  178.51    9.39
 -16  -8   0  180.34   10.18
   8   0  16  174.19   10.21
   8   0  16  185.03    9.33
   0  16   8  176.51    9.98
  -8   0  16  185.99    9.43
  16  -8   0  180.35    9.38
  10   0  16    0.20    0.29
 -10   0  16    0.58    0.31
   0 -16  10    0.07    0.22
   0  16  10    0.19    0.25
  16 -10   0    0.27    0.12
 -16 -10   0   -0.20    0.35
  10   0  16    0.37    0.13
 -16  10   0   -0.25    0.27
  16  10   0    0.41    0.16
 -12   0  16   75.03    4.53
   0 -16  12   79.94    4.46
   0  16  12   75.49    4.46
  12   0 -16   73.25    4.08
  12   0  16   74.10    4.56
  12   0  16   75.62    4.06
  16 -12   0   77.45    4.10
  16  12   0   77.45    4.13
 -16  12   0   76.02    4.33
 -16 -12   0   76.99    4.57
 -16 -14   0    0.31    0.38
   0  16  14    0.14    0.31
  14   0 -16    0.08    0.13
  14   0  16    0.47    0.32
  16  14   0    0.30    0.17
  14   0  16    0.31    0.14
  16 -14   0    0.24    0.14
   0 -16  14    0.27    0.27
 -14   0  16    0.26    0.35
   2 -16   0   -0.08    0.18
  16   0   2    0.35    0.13
  16   0  -2    0.16    0.11
  -2 -16   0   -0.09    0.17
 -16   0  -2   -0.35    0.28
 -16   0   2   -0.44    0.27
   0   2  16    1.12    0.39
   0  -2  16    0.40    0.32
   0  -2  16    0.56    0.15
   2  16   0    0.04    0.14
   0   2  16    0.28    0.09
  -2   2  16    1.86    0.46
 -16  -2  -2    1.58    0.42
   2  -2  16    1.69    0.45
   2  -2  16    1.30    0.19
  16   2  -2    1.12    0.20
  -2 -16  -2    1.08    0.23
   2 -16   2    1.30    0.26
  16  -2   2    1.11    0.19
 -16   2   2    1.25    0.39
   2   2  16    1.39    0.44
   2   2  16    1.79    0.24
  -2 -16   2    1.41    0.27
 -16  -2   2    1.88    0.43
  -2  -2  16    2.14    0.49
  16  -2  -2    1.39    0.21
  16   2   2    1.24    0.21
   2  16   2    1.46    0.25
  -2  -2  16    1.59    0.24
   2 -16  -2    1.17    0.23
 -16   2  -2    1.49    0.35
   4  -2  16    0.15    0.12
   4  -2  16    0.47    0.34
 -16  -4  -2    0.00    0.34
  -2  16   4   -0.14    0.16
  -2 -16  -4    0.11    0.14
  16  -4   2    0.40    0.13
  -4   2  16    0.33    0.12
 -16   4   2   -0.11    0.26
   2 -16   4   -0.22    0.18
  16   4  -2    0.19    0.12
  -4   2  16    0.08    0.27
  16  -4  -2    0.13    0.10
   2  16   4   -0.08    0.17
   4   2  16    0.18    0.09
  -4  -2  16    0.63    0.32
  -2 -16   4   -0.19    0.16
 -16  -4   2   -0.07    0.32
 -16   4  -2   -0.46    0.25
  16   4   2    0.15    0.12
   2 -16  -4   -0.19    0.12
   4   2  16    0.60    0.37
  -4  -2  16    0.40    0.17
  -6   2  16    0.09    0.31
  -6   2  16    0.33    0.14
  -2 -16  -6    0.28    0.14
   6  -2  16    0.25    0.12
  16   6  -2    0.38    0.14
   2 -16   6    0.12    0.18
  16  -6   2    0.36    0.13
 -16  -6  -2   -0.09    0.33
  -2  16   6    0.50    0.22
   6  -2  16    0.67    0.35
 -16   6   2    0.45    0.31
  16  -6  -2    0.21    0.12
   2  16   6    0.23    0.21
 -16  -6   2    0.34    0.35
   2 -16  -6    0.33    0.12
 -16   6  -2    0.21    0.25
  16   6   2    0.18    0.14
   6   2  16    0.36    0.10
  -6  -2  16    0.49    0.30
   6   2  16    0.40    0.34
  -2 -16   6    0.32    0.21
  -6  -2  16    0.18    0.16
 -16   8   2    0.44    0.34
  16  -8   2    0.90    0.18
  -8   2  16    1.57    0.42
   8  -2  16    0.83    0.17
  16   8  -2    0.77    0.18
 -16  -8  -2    0.31    0.41
  -8   2  16    1.10    0.19
   8  -2  16    1.38    0.39
  -2  16   8    0.37    0.32
   2 -16   8    0.24    0.27
  16   8   2    0.77    0.18
  -8  -2  16    0.85    0.21
 -16  -8   2    0.13    0.45
   8   2  16    1.53    0.43
  -8  -2  16    0.89    0.36
  16  -8  -2    1.01    0.18
   2  16   8    0.41    0.30
   8   2  16    1.04    0.16
 -16 -10  -2    3.03    0.59
 -16  10   2    4.15    0.59
  16 -10   2    4.22    0.47
  -2  16  10    4.43    0.56
   2 -16  10    2.34    0.44
  10  -2  16    3.32    0.56
 -10   2  16    3.06    0.53
  10  -2  16    3.29    0.40
  16  10  -2    4.82    0.52
  10   2  16    3.58    0.60
  10   2  16    3.99    0.41
 -10  -2  16    4.49    0.51
  16  10   2    3.37    0.42
  -2 -16  10    2.43    0.43
 -16 -10   2    3.64    0.64
 -10  -2  16    3.53    0.58
  16 -10  -2    3.85    0.43
 -16  10  -2    3.80    0.54
   2  16  10    4.03    0.55
  12   2 -16    0.37    0.18
  16  12  -2    1.08    0.22
  -2  16  12    0.13    0.33
  12  -2  16    0.83    0.18
 -16 -12  -2    0.73    0.38
  12  -2  16    1.34    0.40
   2 -16  12   -0.13    0.31
 -12   2  16    0.95    0.37
 -16  12   2    0.70    0.35
  16 -12   2    0.93    0.20
  16  12   2    0.79    0.19
 -12  -2  16    0.59    0.40
  12   2  16    1.33    0.44
  -2 -16  12   -0.11    0.30
 -16 -12   2   -0.28    0.46
  12  -2 -16    0.72    0.17
   2  16  12    0.47    0.36
  12   2  16    0.84    0.17
  16 -12  -2    0.62    0.16
  14  -2  16    0.12    0.23
 -16 -14  -2    0.28    0.33
   2 -16  14    0.17    0.24
  14  -2  16    0.01    0.13
 -14   2  16    0.16    0.33
  -2  16  14    0.12    0.31
  14   2 -16   -0.04    0.14
  16 -14   2    0.24    0.16
  16  14  -2   -0.10    0.15
 -16 -14   2   -0.04    0.37
  16 -14  -2   -0.02    0.12
  16  14   2    0.12    0.14
 -14  -2  16   -0.05    0.39
   2  16  14   -0.07    0.30
  14   2  16    0.33    0.32
  -2 -16  14   -0.03    0.22
  14   2  16    0.03    0.12
  14  -2 -16    0.03    0.13
 -16   0  -4  131.71    6.99
  -4 -16   0  122.06    6.55
   0  -4  16  126.66    6.54
   0   4  16  142.79    7.22
   4 -16   0  123.95    6.55
 -16   0   4  116.58    6.96
  16   0  -4  119.34    6.44
  16   0   4  121.88    6.45
   0  -4  16  120.73    7.10
   4  16   0  120.86    6.76
   2  -4  16   -0.34    0.30
  -4 -16  -2    0.51    0.16
  -2   4  16   -0.14    0.27
   2  -4  16   -0.12    0.13
  16  -2   4    0.48    0.14
  16   2  -4    0.22    0.13
   4 -16   2    0.13    0.15
 -16   2   4    0.38    0.33
   4  16   2    0.14    0.18
   4 -16  -2    0.11    0.13
  -4 -16   2    0.38    0.16
  16  -2  -4    0.21    0.12
  -2  -4  16   -0.08    0.31
 -16   2  -4   -0.06    0.25
 -16  -2   4    0.37    0.35
  16   2   4    0.27    0.13
  -2  -4  16   -0.14    0.17
  -4 -16   2    0.21    0.21
   2   4  16   -0.45    0.28
   4  -4  16  152.63    8.00
  -4 -16  -4  155.71    8.01
 -16   4   4  159.98    8.59
  16   4  -4  154.98    8.00
   4  -4  16  141.56    8.69
   4 -16   4  153.62    8.17
  16  -4   4  153.23    7.99
  -4   4  16  169.39    8.77
  -4  16   4  148.46    8.39
  -4  -4  16  150.80    8.70
   4 -16  -4  171.55    8.01
 -16  -4   4  162.85    8.69
  16  -4  -4  162.61    7.98
 -16   4  -4  159.85    8.54
  16   4   4  155.28    7.98
   4  16   4  145.75    8.42
  -4  -4  16  139.63    8.11
   4   4  16  160.74    7.84
   4   4  16  162.36    8.83
  -4 -16   4  143.78    8.14
   4 -16   6    0.13    0.17
 -16   6   4    0.36    0.30
  -4 -16  -6    0.30    0.12
   6  -4  16    0.12    0.13
  16  -6   4    0.34    0.13
  16   6  -4    0.26    0.12
   6  -4  16    0.15    0.28
  -6   4  16   -0.04    0.25
  -4  16   6    0.25    0.20
  16  -6  -4    0.10    0.11
   6   4  16    0.13    0.07
   4  16   6    0.06    0.19
  16   6   4    0.10    0.12
 -16  -6   4    0.05    0.32
 -16   6  -4   -0.10    0.22
  -4 -16   6    0.06    0.17
   6   4  16    0.10    0.28
  -6  -4  16   -0.06    0.16
  -6  -4  16    0.05    0.28
   4 -16  -6    0.09    0.09
 -16   8   4  121.72    6.61
   8  -4  16  118.23    6.72
  16   8  -4  115.32    6.19
  -4  16   8  125.06    6.57
   4 -16   8  118.62    6.43
  -4 -16  -8  118.31    6.11
  16  -8   4  121.50    6.19
   8  -4  16  110.72    6.14
  -8   4  16  118.74    6.73
  16   8   4  109.96    6.13
 -16  -8   4  114.85    6.75
 -16   8  -4  116.20    6.53
  -8  -4  16  121.70    6.74
  16  -8  -4  118.30    6.13
  16   8   4  120.03    6.73
  -4 -16   8  115.80    6.41
  -8  -4  16  120.94    6.30
   8   4  16  115.11    6.81
   8   4  16  130.05    6.07
   4  16   8  110.46    6.54
 -16  10   4    0.37    0.32
   4 -16  10    0.15    0.20
  16  10  -4    0.22    0.14
  -4  16  10    0.35    0.26
  10  -4  16    0.54    0.29
 -10   4  16    0.44    0.30
  10  -4  16    0.17    0.12
  16 -10   4    0.39    0.15
  10   4  16    0.28    0.11
 -10  -4  16    0.41    0.32
  -4 -16  10    0.23    0.20
 -16  10  -4    0.14    0.23
 -16 -10   4   -0.06    0.38
  16  10   4    0.42    0.29
  10   4  16    0.38    0.29
   4  16  10    0.15    0.26
 -10  -4  16    0.20    0.17
  16  10   4    0.16    0.14
  16 -10  -4    0.25    0.12
  16 -12   4  112.39    6.00
 -12   4  16  115.36    6.49
  12  -4  16  117.36    6.47
  12  -4  16  115.46    5.97
   4 -16  12  114.69    6.29
  16  12  -4  114.30    6.02
  -4  16  12  112.76    6.40
 -16  12   4  118.74    6.34
  16 -12  -4  113.03    5.91
 -16 -12   4  103.53    6.50
   4  16  12  116.39    6.43
  12   4  16  116.42    5.87
  12   4  16  109.77    6.57
  16  12   4   98.58    5.90
 -12  -4  16  113.04    6.53
  16  12   4  119.01    6.50
  -4 -16  12  114.17    6.28
  14   4 -16    0.28    0.17
  16 -14   4    0.22    0.16
  16  14  -4   -0.01    0.17
 -14   4  16    0.22    0.33
  14  -4  16    0.34    0.28
 -16  14   4    0.41    0.32
  14  -4  16    0.26    0.14
  -4  16  14    0.49    0.33
   4 -16  14    0.17    0.26
 -16 -14   4   -0.22    0.37
  14   4  16    0.40    0.33
  16 -14  -4    0.15    0.12
  14   4  16    0.11    0.12
 -14  -4  16   -0.10    0.38
  16  14   4    0.25    0.16
   4  16  14    0.24    0.33
  -4 -16  14    0.30    0.24
  -6 -16   0    0.29    0.15
   0  -6  16    0.52    0.33
  16   0   6    0.28    0.12
   0   6  16    0.05    0.32
  16   0  -6    0.06    0.11
 -16   0   6    0.79    0.37
   0  -6  16    0.13    0.16
   6 -16   0    0.13    0.14
  16   0   6    0.27    0.25
   2  -6  16    0.45    0.32
  -2   6  16    0.37    0.31
  16   2  -6    0.24    0.13
  16  -2   6    0.29    0.13
   2  -6  16    0.22    0.16
   6 -16   2    0.41    0.17
 -16   2   6    0.50    0.33
  -6 -16  -2    0.51    0.16
  16  -2  -6    0.03    0.13
 -16  -2   6    0.82    0.36
  -6 -16   2    0.60    0.22
   2   6  16    0.19    0.31
   6 -16  -2    0.64    0.17
  -2  -6  16    0.08    0.15
  -6 -16   2    0.17    0.15
   6  16   2    0.14    0.20
  16   2   6    0.10    0.13
  16   2   6    0.53    0.26
  -2  -6  16    0.61    0.37
  -6 -16  -4    0.22    0.13
   6 -16   4   -0.03    0.14
  16   4  -6    0.41    0.14
   4  -6  16   -0.05    0.13
  16  -4   6    0.16    0.11
  -4   6  16    0.23    0.29
   4  -6  16    0.24    0.27
 -16   4   6    0.68    0.33
  -6 -16   4   -0.04    0.15
  16   4   6    0.12    0.23
  16  -4  -6    0.10    0.10
   4   6  16    0.33    0.34
  -4  -6  16    0.21    0.30
  -6 -16   4    0.23    0.22
   6  16   4   -0.05    0.19
  -4  -6  16    0.18    0.18
  16   4   6   -0.01    0.11
   6 -16  -4    0.18    0.10
 -16  -4   6    0.26    0.35
  16  -6   6    1.46    0.23
  -6   6  16    2.09    0.44
 -16   6   6    2.42    0.47
   6  -6  16    2.06    0.45
   6  -6  16    1.26    0.24
  -6  16   6    1.66    0.30
   6 -16   6    1.11    0.26
  16   6  -6    1.26    0.23
   6  16   6    1.16    0.33
  -6  -6  16    1.80    0.45
  -6 -16   6    1.20    0.27
  -6  -6  16    1.30    0.29
   6   6  16    1.76    0.46
  16   6   6    1.82    0.40
 -16  -6   6    1.43    0.50
   6 -16  -6    2.27    0.30
  16   6   6    0.95    0.20
  16  -6  -6    1.20    0.20
 -16   6  -6    1.48    0.36
   8  -6  16    0.45    0.16
   8  -6  16    0.83    0.29
  16   8  -6    0.49    0.16
 -16   8   6    0.56    0.35
  -6  16   8   -0.01    0.24
  16  -8   6    0.44    0.14
   6 -16   8    0.13    0.21
  -8   6  16    0.35    0.29
  -8  -6  16    0.39    0.19
  -8  -6  16    0.23    0.31
   6  16   8    0.15    0.24
  16  -8  -6    0.33    0.12
  16   8   6    0.30    0.31
  -6 -16   8   -0.02    0.22
   8   6  16    0.66    0.31
 -16  -8   6   -0.20    0.44
  16   8   6    0.12    0.13
 -16  10   6    1.11    0.38
  -6  16  10    0.74    0.30
  16 -10   6    0.65    0.19
   6 -16  10    0.32    0.24
 -10   6  16    0.87    0.38
  16  10  -6    0.67    0.21
  10  -6  16    0.83    0.30
  10  -6  16    0.47    0.18
  16  10   6    1.02    0.36
 -10  -6  16    0.62    0.37
  10   6  16    0.72    0.14
  -6 -16  10    0.62    0.27
  10   6  16    1.33    0.41
 -16 -10   6    0.68    0.44
   6  16  10    0.55    0.35
  16 -10  -6    0.70    0.16
  16  10   6    0.69    0.19
 -16  10  -6    0.76    0.27
 -10  -6  16    0.55    0.22
   6 -16  12   -0.19    0.22
  16  12  -6    0.55    0.20
  12  -6  16    0.77    0.30
 -16  12   6    0.33    0.32
  16 -12   6    0.41    0.19
  12  -6  16    0.46    0.17
  -6  16  12   -0.12    0.32
 -12   6  16    0.12    0.28
  -6 -16  12    0.07    0.26
 -12  -6  16    0.71    0.43
 -12  -6  16    0.40    0.20
  16  12   6    0.38    0.16
  12   6  16    0.65    0.37
  12   6  16    0.48    0.14
 -16 -12   6   -0.48    0.47
   6  16  12   -0.03    0.31
  16  12   6    0.52    0.33
  16 -12  -6    0.36    0.13
   6 -16  14    2.01    0.41
 -14   6  16    3.63    0.59
  14  -6  16    1.57    0.29
 -16  14   6    2.72    0.46
  14  -6  16    3.14    0.50
  16  14  -6    2.05    0.33
  -6  16  14    2.56    0.48
  16 -14   6    1.77    0.32
  -6 -16  14    2.12    0.43
  16  14   6    2.87    0.51
 -14  -6  16    2.69    0.64
 -16 -14   6    1.76    0.65
  14   6  16    3.51    0.41
  16  14   6    3.36    0.46
  14   6  16    2.55    0.55
   6  16  14    2.93    0.54
   8 -16   0  205.47    9.96
 -16   0   8  194.49   10.68
   0   8  16  215.95   10.84
   0  -8  16  192.83   10.11
  16   0   8  181.05    9.87
  16   0  -8  182.17    9.86
   0  -8  16  191.79   10.70
  16   0   8  183.61   10.61
  16   2  -8    0.69    0.17
   2  -8  16    0.06    0.36
  16  -2   8    1.43    0.32
  16  -2   8    1.04    0.20
 -16   2   8    1.37    0.40
  -2   8  16    0.67    0.40
   2  -8  16    0.25    0.26
   8 -16   2    0.71    0.20
  16  -2  -8    0.74    0.17
   8  16   2    0.45    0.26
   2   8  16    0.66    0.47
  -8 -16   2    1.11    0.22
  -2  -8  16    0.21    0.26
  -2  -8  16    0.72    0.38
 -16  -2   8    1.41    0.46
  16   2   8    0.92    0.19
  16   2   8    1.80    0.38
  -8 -16   2    0.40    0.36
   8 -16  -2    1.16    0.19
   8 -16   4  118.52    6.52
  16  -4   8  125.89    6.43
  -4   8  16  130.89    7.04
 -16   4   8  116.15    6.90
  16   4  -8  126.52    6.43
   4  -8  16  116.00    6.91
   4  -8  16  122.17    6.54
  16  -4   8  118.23    6.83
  -4  -8  16  125.60    7.01
   4   8  16  123.89    7.10
  16   4   8  119.10    6.37
  16   4   8  125.21    6.99
   8 -16  -4  132.68    6.38
  -8 -16   4  135.34    6.83
 -16  -4   8  122.58    7.01
   8  16   4  115.38    6.37
  16  -4  -8  117.24    6.35
  -4  -8  16  119.33    6.65
  -8 -16   4  127.65    6.54
   8  16   4  119.35    6.79
  16  -6   8    0.42    0.16
  -6   8  16    0.03    0.29
 -16   6   8    0.66    0.36
  -8  16   6    0.53    0.21
   6  -8  16    0.06    0.32
   8 -16   6    0.39    0.20
  16   6  -8    0.17    0.12
  16   6   8    0.39    0.24
  16  -6  -8    0.08    0.12
 -16  -6   8    0.68    0.39
   8  16   6    0.32    0.14
  -6  -8  16    0.45    0.35
   6   8  16   -0.14    0.28
   8 -16  -6    0.41    0.12
  16   6   8    0.10    0.12
  -6  -8  16   -0.02    0.23
  -8 -16   6   -0.31    0.29
  -8 -16   6    0.69    0.22
   8  16   6    0.42    0.26
 -16   8   8  153.45    8.41
   8 -16   8  144.35    8.03
   8  -8  16  154.91    8.40
  -8   8  16  148.94    8.47
  16  -8   8  150.11    7.88
  16   8  -8  153.76    7.89
   8  -8  16  137.58    7.90
  -8  16   8  149.38    8.31
 -16  -8   8  145.01    8.53
  16   8   8  158.28    7.81
   8  16   8  158.79    7.78
   8  16   8  145.78    8.35
  -8  -8  16  146.01    8.48
  16  -8  -8  154.85    7.77
  -8 -16   8  162.80    8.08
   8   8  16  153.79    8.60
  -8  -8  16  148.17    8.05
  16   8   8  149.35    8.52
 -16   8  -8  159.41    8.32
  10  -8  16    0.38    0.19
 -10   8  16    0.25    0.34
  -8  16  10    0.84    0.31
   8 -16  10    0.36    0.23
  16  10  -8    0.11    0.16
  16 -10   8    0.46    0.18
 -16  10   8    0.82    0.37
  10  -8  16    0.46    0.28
 -10  -8  16    0.60    0.38
 -16  10  -8    1.08    0.29
 -16 -10   8    0.05    0.45
  16  10   8    0.41    0.16
   8  16  10    0.23    0.29
 -10  -8  16    0.21    0.22
  16  10   8    0.63    0.30
  -8 -16  10    0.54    0.24
  10   8  16    0.30    0.34
  16 -10  -8    0.20    0.13
 -16  12   8   67.61    3.90
  12  -8  16   68.83    3.89
  12  -8  16   57.72    3.66
  -8  16  12   68.40    3.91
  16  12  -8   66.87    3.73
 -12   8  16   64.07    3.96
  16 -12   8   63.49    3.70
   8 -16  12   59.76    3.85
  12   8  16   67.66    4.12
   8  16  12   67.89    3.96
  16 -12  -8   69.30    3.56
  -8 -16  12   66.63    3.92
  16  12   8   69.03    4.04
 -12  -8  16   72.60    3.83
 -12  -8  16   66.31    4.06
 -16 -12   8   59.56    4.03
  16  12   8   67.53    3.60
  14  -8  16    0.23    0.18
   8 -16  14    0.23    0.23
  16  14  -8    0.28    0.20
  14  -8  16    0.67    0.29
 -16  14   8    0.41    0.33
  16 -14   8    0.40    0.21
  -8  16  14    0.46    0.31
 -14   8  16    0.16    0.32
   8  16  14    0.10    0.32
  14   8  16    0.35    0.36
 -16 -14   8   -0.26    0.50
  16  14   8    0.24    0.16
  -8 -16  14    0.32    0.26
  16  14   8    0.24    0.28
 -14  -8  16    0.69    0.49
 -16   0  10    0.49    0.39
  10 -16   0    0.32    0.14
 -10 -16   0    0.42    0.27
   0 -10  16    0.14    0.28
   0 -10  16    0.18    0.22
   0  10  16    0.03    0.33
  16   0 -10    0.19    0.12
  16   0  10    0.40    0.28
  16   0  10    0.31    0.13
  10  16   0    0.12    0.13
  16   2 -10    3.82    0.47
  10 -16   2    4.23    0.53
  16  -2  10    4.13    0.58
 -16   2  10    4.48    0.68
  -2  10  16    3.91    0.63
   2 -10  16    3.29    0.53
  16  -2  10    3.80    0.47
  16   2  10    4.45    0.60
  -2 -10  16    3.35    0.60
 -16  -2  10    4.09    0.67
  10  16   2    4.08    0.53
  10  16   2    3.85    0.46
  16  -2 -10    3.69    0.45
 -10 -16   2    4.33    0.58
  16   2  10    3.70    0.45
   2  10  16    3.64    0.67
  10 -16  -2    3.99    0.46
  16   4 -10    0.30    0.15
  10 -16   4    0.25    0.17
   4 -10  16   -0.02    0.24
  16  -4  10    0.25    0.13
 -16   4  10    0.81    0.40
  16  -4  10    0.57    0.27
   4 -10  16    0.47    0.23
  -4  10  16    0.41    0.32
   4  10  16    0.23    0.33
  16   4  10    0.19    0.13
  10  16   4    0.25    0.15
 -10 -16   4    0.53    0.30
  16  -4 -10    0.12    0.12
  -4 -10  16    0.01    0.32
 -16  -4  10    0.79    0.45
  10 -16  -4    0.39    0.13
  -4 -10  16    0.40    0.25
  10  16   4    0.06    0.23
  16   4  10    0.33    0.27
  -6  10  16    0.88    0.38
   6 -10  16    0.26    0.22
 -16   6  10    1.90    0.47
  16  -6  10    0.69    0.19
 -10  16   6    1.09    0.29
   6 -10  16    0.67    0.30
  16   6 -10    0.77    0.19
  10 -16   6    0.68    0.22
  16  -6  10    0.81    0.27
  16   6  10    1.14    0.37
 -16  -6  10    1.33    0.51
  10  16   6    0.53    0.18
  16   6  10    0.39    0.17
  10  16   6    0.28    0.31
  10 -16  -6    0.89    0.16
   6  10  16    1.08    0.42
 -10 -16   6    0.62    0.37
 -10 -16   6    0.77    0.24
  16  -6 -10    0.28    0.14
  -6 -10  16    0.86    0.30
  -6 -10  16    0.77    0.37
  16  -8  10    0.49    0.24
  10 -16   8    0.19    0.20
 -10  16   8    0.44    0.26
  -8  10  16    0.79    0.34
   8 -10  16    0.42    0.23
   8 -10  16    0.70    0.27
  16  -8  10    0.26    0.15
 -16   8  10    0.62    0.39
  16   8 -10    0.33    0.20
 -10 -16   8    0.51    0.24
 -16  -8  10    0.53    0.48
  16   8  10    0.56    0.34
  10  16   8    0.47    0.30
   8  10  16    0.81    0.37
  -8 -10  16    0.56    0.25
 -10 -16   8    1.07    0.41
  16  -8 -10    0.37    0.14
  16   8  10    0.27    0.15
  -8 -10  16    0.38    0.34
  10  16   8    0.45    0.16
 -16  10  10    0.06    0.32
  16 -10  10    0.15    0.15
  10 -10  16    0.06    0.19
  16  10 -10    0.27    0.18
 -10  16  10    0.02    0.24
 -10  10  16    0.17    0.30
  10 -16  10    0.24    0.22
  16  10  10    0.13    0.25
 -10 -10  16    0.29    0.38
  10  10  16   -0.06    0.28
 -10 -10  16    0.01    0.17
  10  16  10   -0.28    0.25
 -16 -10  10    0.34    0.48
 -10 -16  10    0.05    0.17
  16  10  10   -0.17    0.12
  12 -10  16    0.42    0.22
 -16  12  10    0.55    0.34
  16 -12  10    0.44    0.21
  16  12 -10    0.57    0.23
 -10  16  12    0.04    0.28
  10 -16  12    0.13    0.23
 -12  10  16    0.92    0.37
  10  16  12    0.21    0.34
 -10 -16  12    0.44    0.27
 -12 -10  16    0.81    0.26
 -16 -12  10    0.17    0.52
  16  12  10    0.56    0.35
  12  10  16    0.46    0.36
  16  12  10    0.28    0.16
 -12 -10  16    0.47    0.44
  16  14 -10    0.18    0.21
 -10  16  14    0.54    0.32
 -14  10  16    0.20    0.29
 -16  14  10    0.76    0.34
  10 -16  14    0.33    0.25
  14 -10  16   -0.13    0.18
  16 -14  10    0.00    0.19
 -10 -16  14    0.06    0.22
 -16 -14  10   -0.62    0.49
  16  14  10    0.53    0.33
  14  10  16    0.45    0.37
 -14 -10  16   -0.02    0.44
  10  16  14   -0.65    0.27
 -14 -10  16    0.22    0.23
  16  14  10   -0.24    0.16
 -16   0  12   73.24    4.62
 -12 -16   0   88.49    4.61
  16   0 -12   74.20    4.16
  16   0  12   77.66    4.61
   0 -12  16   80.99    4.53
  16   0  12   77.14    4.18
   0  12  16   77.69    4.68
  12  16   0   71.31    4.20
  12 -16   0   81.01    4.23
  16  -2  12    1.54    0.36
  16   2 -12    0.63    0.18
  -2  12  16   -0.26    0.35
  12  16  -2    0.86    0.22
 -16   2  12    0.61    0.39
   2 -12  16    0.05    0.29
  12 -16   2    0.98    0.22
  16  -2  12    0.95    0.20
  -2 -12  16    0.19    0.26
  12 -16  -2    0.70    0.18
  16   2  12    0.83    0.36
  -2 -12  16    1.26    0.41
 -16  -2  12    1.27    0.46
  16   2  12    0.53    0.17
  16  -2 -12    0.45    0.15
   2  12  16    0.41    0.38
 -12 -16   2   -0.25    0.37
  12  16   2    0.61    0.20
  16   4 -12  119.61    6.27
  16  -4  12  111.80    6.68
  12  16  -4  109.03    6.29
  -4  12  16  131.05    6.86
  16  -4  12  112.66    6.25
 -16   4  12  117.83    6.78
  12 -16   4  121.23    6.35
   4 -12  16  119.15    6.52
  -4 -12  16  128.56    6.80
  12  16   4  117.28    6.23
 -12 -16   4  122.72    6.74
  16   4  12  120.48    6.21
  -4 -12  16  117.78    6.57
   4  12  16  129.18    6.93
  16   4  12  114.39    6.83
  12  16   4  117.78    6.68
  16  -4 -12  111.79    6.16
 -16  -4  12  121.56    6.87
  12 -16  -4  118.37    6.19
   6 -12  16    0.10    0.25
  16   6 -12    0.57    0.20
  -6  12  16    0.36    0.37
  16  -6  12    0.66    0.19
  16  -6  12    0.52    0.26
 -16   6  12    0.98    0.42
  12 -16   6    0.37    0.19
   6  12  16    0.34    0.39
 -16  -6  12    0.99    0.51
 -12 -16   6   -0.29    0.38
  12  16   6    0.55    0.18
  16   6  12    0.64    0.33
  -6 -12  16    0.51    0.33
  16   6  12    0.44    0.15
  12 -16  -6    0.50    0.15
  12  16   6    0.11    0.29
  12 -16   8   73.81    3.96
  16  -8  12   65.29    3.94
  -8  12  16   70.04    4.12
 -12  16   8   68.45    3.94
   8 -12  16   62.44    3.92
  16  -8  12   62.99    3.78
  16   8 -12   70.50    3.84
 -16   8  12   67.08    4.08
  -8 -12  16   70.14    4.13
   8  12  16   71.58    4.23
  16   8  12   66.88    4.18
  12  16   8   63.95    4.02
 -12 -16   8   70.84    4.11
  -8 -12  16   68.02    4.04
 -16  -8  12   70.27    4.25
  12  16   8   68.73    3.70
 -12 -16   8   72.63    3.95
  16   8  12   69.74    3.69
  10 -12  16    0.24    0.22
 -16  10  12    0.20    0.35
 -10  12  16    0.32    0.34
 -12  16  10    0.25    0.27
  16 -10  12    0.64    0.21
  12 -16  10    0.57    0.23
  16  10 -12    0.41    0.22
  12  16  10    0.40    0.34
  10  12  16    0.35    0.36
  16  10  12    0.48    0.34
  16  10  12    0.10    0.15
 -16 -10  12    1.25    0.57
 -10 -12  16    0.19    0.23
 -12 -16  10    0.58    0.24
 -12 -16  10    0.06    0.44
 -10 -12  16    0.65    0.41
  12 -12  16   69.19    4.16
 -12  12  16   75.82    4.37
  12 -16  12   73.72    4.26
 -16  12  12   74.50    4.32
 -12  16  12   72.59    4.27
  16  12 -12   72.50    4.13
  16 -12  12   73.41    4.15
 -12 -12  16   68.41    4.41
  16  12  12   78.59    4.49
  12  16  12   71.34    4.36
 -12 -16  12   69.24    4.21
 -16 -12  12   73.34    4.52
 -12 -12  16   69.96    4.22
  12  12  16   77.79    4.51
  16  12  12   75.40    3.95
  14 -12  16    0.15    0.22
 -16  14  12    0.79    0.35
  16 -14  12    0.33    0.24
 -14  12  16    0.53    0.37
  12 -16  14    0.29    0.23
 -12  16  14    1.05    0.37
 -14 -12  16    0.72    0.50
  16  14  12    0.35    0.34
 -12 -16  14    0.27    0.26
  14  12  16    0.30    0.43
 -14 -12  16    0.48    0.28
 -16 -14  12    0.53    0.56
  12  16  14    0.29    0.40
 -14 -16   0    0.29    0.34
   0 -14  16    0.24    0.25
  14 -16   0    0.50    0.17
  14  16   0    0.39    0.17
  16   0 -14    0.00    0.11
  16   0  14    0.36    0.30
  16   0  14    0.11    0.13
   0  14  16    0.25    0.36
 -16   0  14    0.75    0.43
  16   2 -14    0.09    0.14
  16  -2  14    0.40    0.29
 -16   2  14   -0.11    0.34
  14 -16   2    0.01    0.13
  14  16  -2    0.10    0.18
  -2  14  16   -0.23    0.30
  16  -2  14    0.12    0.14
   2 -14  16   -0.13    0.22
  14  16   2   -0.01    0.15
 -14 -16   2    0.07    0.32
 -16  -2  14   -0.36    0.39
  14 -16  -2    0.07    0.12
   2  14  16   -0.05    0.33
  -2 -14  16    0.27    0.28
  16  -2 -14    0.00    0.12
  16   2  14    0.24    0.14
  16   2  14   -0.06    0.22
   4 -14  16   -0.18    0.19
 -16   4  14    0.31    0.39
  16  -4  14    0.11    0.22
  14  16  -4    0.18    0.18
  16  -4  14    0.31    0.15
  -4  14  16    0.15    0.28
  16   4 -14    0.27    0.18
  14 -16   4    0.18    0.15
  16  -4 -14    0.22    0.14
  14  16   4    0.20    0.27
  14  16   4    0.44    0.18
   4  14  16    0.06    0.31
  16   4  14    0.14    0.13
  16   4  14    0.18    0.33
 -16  -4  14    0.39    0.41
 -14 -16   4   -0.17    0.35
  -4 -14  16    0.53    0.27
  14 -16  -4    0.26    0.13
  14 -16   6    1.87    0.33
  16   6 -14    1.68    0.31
 -16   6  14    2.83    0.57
  16  -6  14    2.74    0.45
  -6  14  16    2.91    0.52
   6 -14  16    1.36    0.39
  14  16  -6    1.91    0.33
  16   6  14    1.58    0.25
  14  16   6    1.85    0.29
  16   6  14    2.94    0.55
 -14 -16   6    2.95    0.62
   6  14  16    2.75    0.53
  -6 -14  16    2.18    0.43
 -16  -6  14    3.36    0.70
  14  16   6    2.90    0.51
   8 -14  16   -0.05    0.27
  16  -8  14    0.16    0.17
  16   8 -14    0.20    0.19
 -16   8  14    0.24    0.32
  14 -16   8    0.41    0.22
  16  -8  14    0.54    0.27
  -8  14  16    0.07    0.30
  16   8  14    0.13    0.14
  -8 -14  16    0.22    0.23
  16   8  14    0.46    0.37
 -16  -8  14    0.80    0.54
 -14 -16   8    0.78    0.50
   8  14  16    0.42    0.33
  14  16   8   -0.02    0.17
  14  16   8   -0.12    0.28
  16 -10  14   -0.12    0.19
 -16  10  14    0.19    0.35
  16  10 -14    0.11    0.21
  14 -16  10    0.15    0.22
 -10  14  16   -0.07    0.29
  10 -14  16   -0.27    0.25
 -14  16  10    0.14    0.29
 -10 -14  16    0.03    0.21
  16  10  14   -0.29    0.14
  16  10  14    0.19    0.33
 -10 -14  16    0.08    0.42
 -14 -16  10   -0.01    0.48
 -14 -16  10    0.22    0.22
  14  16  10   -0.44    0.31
  10  14  16    0.18    0.37
 -16 -10  14    0.66    0.56
  14 -16  12    0.06    0.24
 -16  12  14    0.74    0.37
 -14  16  12    0.56    0.33
  12 -14  16    0.23    0.27
  16 -12  14    0.23    0.21
 -12  14  16    0.45    0.32
 -12 -14  16    0.82    0.48
  12  14  16    0.33    0.36
 -14 -16  12    0.65    0.49
  14  16  12    0.53    0.39
 -12 -14  16    0.55    0.29
  16  12  14    0.06    0.36
 -14 -16  12    0.47    0.26
 -16 -12  14    0.54    0.55
  14 -16  14    0.88    0.32
  16 -14  14    1.62    0.36
 -16  14  14    1.66    0.45
  14 -14  16    1.08    0.36
 -14  16  14    1.93    0.46
 -14  14  16    1.45    0.47
 -14 -14  16    1.48    0.37
 -14 -14  16    1.91    0.66
 -16 -14  14    1.83    0.65
 -14 -16  14    1.24    0.37
  14  14  16    2.51    0.58
  14  16  14    1.32    0.48
 -16 -14  14    1.61    0.39
  16  14  14    2.20    0.52
 -16 -16   0  139.28    7.90
 -16   0  16  139.46    7.95
   0  16  16  145.67    7.95
  16 -16   0  139.36    7.29
  16   0 -16  140.38    7.25
  16   0  16  126.56    7.88
  16   0  16  140.91    7.25
  16  16   0  138.55    7.31
 -16 -16  -2    0.86    0.49
  16   2 -16    0.61    0.21
  16  -2  16    1.25    0.40
 -16   2  16    1.18    0.47
  16  16  -2    0.88    0.25
  -2  16  16   -0.23    0.42
   2 -16  16   -0.19    0.37
  16  -2  16    1.01    0.22
  16 -16   2    0.68    0.22
  16 -16  -2    0.66    0.19
 -16  -2  16    1.35    0.49
   2  16  16    0.30    0.41
 -16 -16   2   -0.16    0.49
  16   2  16    1.23    0.43
  16   2  16    0.97    0.21
  -2 -16  16   -0.06    0.33
  16  16   2    0.60    0.20
  16   4 -16   82.04    4.71
  16  -4  16   82.97    5.07
 -16   4  16   85.95    5.15
  16  16  -4   82.81    4.75
  -4  16  16   91.64    5.14
   4 -16  16   89.81    5.09
  16  -4  16   85.04    4.69
  16 -16   4   84.42    4.76
  16 -16  -4   91.94    4.66
 -16  -4  16   84.43    5.22
   4  16  16   94.07    5.21
 -16 -16   4   91.00    5.20
  16   4  16   81.71    5.20
  16   4  16   86.64    4.62
  -4 -16  16   90.93    5.09
  16  16   4   83.08    4.67
  16  -6  16    0.53    0.20
 -16   6  16    0.70    0.38
  16 -16   6    0.45    0.20
  -6  16  16   -0.21    0.37
   6 -16  16   -0.01    0.34
  16   6 -16    0.61    0.23
  16  16  -6    0.71    0.23
  16  -6  16    0.83    0.32
  -6 -16  16   -0.22    0.28
   6  16  16   -0.27    0.38
  16   6  16    1.43    0.46
  16   6  16    0.14    0.14
 -16  -6  16    1.12    0.53
  16  16   6   -0.04    0.35
  16  16   6    0.53    0.20
  16  -8  16   90.48    5.43
  16  -8  16   89.55    5.18
 -16   8  16   97.02    5.58
  16 -16   8   93.65    5.27
  -8  16  16   99.16    5.55
   8 -16  16   89.96    5.43
  16   8 -16  102.60    5.26
  16  16  -8   97.17    5.26
 -16 -16   8  100.76    5.68
  -8 -16  16   89.74    5.44
   8  16  16  102.36    5.66
  16   8  16   93.94    5.70
  16   8  16   97.15    5.03
 -16  -8  16   85.81    5.65
  16  16   8   93.91    5.55
  16  16   8   98.11    5.09
  16 -16  10    0.44    0.26
  16 -10  16    0.60    0.23
 -16  10  16    0.54    0.40
 -16  16  10    1.28    0.37
  10 -16  16    0.09    0.30
 -10  16  16    0.15    0.38
 -10 -16  16   -0.08    0.25
  10  16  16    0.46    0.42
 -16 -16  10   -0.15    0.57
 -16 -10  16    0.69    0.55
  16  10  16    0.96    0.43
  16  16  10    0.52    0.39
  16  16  10    0.52    0.19
  16 -12  16   49.96    3.11
 -12  16  16   50.50    3.20
  16 -16  12   48.86    3.14
 -16  16  12   52.94    3.15
 -16  12  16   52.13    3.23
  12 -16  16   47.74    3.21
 -16 -12  16   51.64    3.17
 -16 -16  12   51.36    3.19
 -12 -16  16   47.68    3.22
  12  16  16   52.77    3.33
 -16 -12  16   51.98    3.42
 -16 -16  12   52.61    3.39
  16  12  16   52.51    3.38
  16  16  12   51.68    3.28
 -14  16  16    0.34    0.34
  16 -16  14    0.36    0.28
  16 -14  16    0.53    0.27
 -16  14  16    1.28    0.42
 -16  16  14    0.92    0.39
  14 -16  16    0.15    0.27
 -16 -16  14    0.68    0.30
 -14 -16  16    0.16    0.30
  14  16  16    0.37    0.41
 -16 -14  16    1.25    0.57
 -16 -14  16    0.98    0.33
  16  14  16    0.96    0.46
  16  16  14    0.68    0.43
  16 -16  16   62.26    4.09
 -16  16  16   73.18    4.20
 -16 -16  16   66.26    4.14
  16  16  16   72.53    4.34
 -17  -1  -1    0.16    0.27
   1  -1  17   -0.19    0.24
  17  -1   1   -0.16    0.08
 -17   1   1   -0.12    0.25
  -1 -17  -1   -0.02    0.13
   1  -1  17    0.01    0.08
  -1   1  17   -0.05    0.07
  17   1  -1    0.04    0.09
  -1   1  17   -0.35    0.25
   1 -17   1   -0.05    0.14
   1 -17  -1   -0.01    0.11
  -1  -1  17   -0.08    0.28
 -17  -1   1    0.00    0.24
  -1 -17   1   -0.08    0.12
   1   1  17   -0.37    0.23
   1   1  17   -0.03    0.06
  17  -1  -1   -0.01    0.08
 -17   1  -1   -0.17    0.19
  -1  -1  17    0.03    0.09
  17   1   1    0.06    0.09
  -3   1  17    0.04    0.30
  -3   1  17    0.23    0.11
  -1 -17  -3    0.14    0.15
 -17   3   1    0.39    0.29
  17  -3   1    0.33    0.13
   1 -17   3    0.21    0.17
 -17  -3  -1    0.18    0.30
   3  -1  17    0.06    0.27
   3  -1  17    0.28    0.11
  17   3  -1    0.28    0.13
   1  17   3    0.17    0.14
  17  -3  -1    0.23    0.13
   1 -17  -3    0.15    0.14
  -1 -17   3    0.29    0.19
  17   3   1    0.23    0.13
  -3  -1  17    0.20    0.14
 -17   3  -1    0.22    0.26
   3   1  17    0.54    0.37
  -3  -1  17    0.05    0.28
   3   1  17    0.29    0.10
 -17  -3   1    0.65    0.32
  -5   1  17   -0.28    0.22
  -5   1  17    0.06    0.11
  -1 -17  -5    0.08    0.12
 -17  -5  -1    0.18    0.27
   5  -1  17    0.20    0.10
  17  -5   1    0.10    0.11
   1 -17   5   -0.11    0.14
  -1  17   5    0.01    0.16
   5  -1  17   -0.08    0.27
  17   5  -1    0.10    0.10
 -17   5   1    0.16    0.26
  17  -5  -1   -0.04    0.11
  -1 -17   5   -0.02    0.17
   5   1  17    0.13    0.32
  -5  -1  17   -0.20    0.12
   5   1  17    0.03    0.08
 -17   5  -1   -0.17    0.19
   1  17   5    0.04    0.16
  -5  -1  17   -0.09    0.27
  17   5   1    0.08    0.11
 -17  -5   1    0.33    0.33
   1 -17  -5    0.03    0.11
  17  -7   1    0.06    0.11
   7  -1  17   -0.09    0.10
  -7   1  17   -0.28    0.23
  -7   1  17    0.05    0.12
 -17  -7  -1    0.13    0.31
  17   7  -1   -0.10    0.10
  -1  17   7   -0.11    0.18
   1 -17   7    0.02    0.19
 -17   7   1    0.23    0.29
   7  -1  17   -0.42    0.23
  -1 -17  -7   -0.02    0.12
  -7  -1  17   -0.07    0.27
  -7  -1  17   -0.32    0.14
 -17  -7   1   -0.27    0.29
   7   1  17    0.00    0.30
  -1 -17   7    0.01    0.18
   1  17   7   -0.33    0.15
   7   1  17    0.08    0.09
  17  -7  -1   -0.08    0.10
 -17   7  -1    0.08    0.23
  17   7   1   -0.06    0.10
  -1  17   9   -0.21    0.18
   9  -1  17   -0.27    0.20
 -17   9   1   -0.10    0.29
   1 -17   9   -0.33    0.17
 -17  -9  -1   -0.16    0.26
  -9   1  17   -0.11    0.24
  17  -9   1   -0.05    0.10
  17   9  -1   -0.11    0.10
   9  -1  17    0.05    0.10
  -1 -17   9   -0.39    0.17
   9   1  17    0.05    0.25
 -17  -9   1   -0.16    0.30
 -17   9  -1   -0.42    0.23
  17  -9  -1   -0.07    0.09
   9   1  17    0.02    0.09
  -9  -1  17   -0.34    0.23
   1  17   9   -0.12    0.18
  17   9   1    0.00    0.11
  -9  -1  17   -0.03    0.13
  11  -1  17   -0.10    0.11
   1 -17  11   -0.09    0.18
  11  -1  17   -0.52    0.22
  17 -11   1   -0.11    0.09
 -11   1  17   -0.08    0.26
  17  11  -1   -0.05    0.12
 -17 -11  -1   -0.18    0.31
  -1  17  11   -0.23    0.24
 -17  11   1   -0.30    0.29
  -1 -17  11   -0.16    0.16
 -17 -11   1   -0.35    0.33
  17  11   1   -0.16    0.11
  11   1  17   -0.08    0.09
  17 -11  -1    0.02    0.11
  11   1  17   -0.29    0.25
 -17  11  -1   -0.40    0.27
   1  17  11   -0.49    0.24
 -11  -1  17   -0.52    0.29
   1 -17  13    0.27    0.26
 -17  13   1   -0.16    0.31
  13   1 -17    0.03    0.15
  13  -1  17   -0.02    0.13
 -17 -13  -1    0.26    0.38
  13  -1  17   -0.12    0.29
  -1  17  13    0.01    0.31
  17 -13   1    0.01    0.13
 -13   1  17   -0.24    0.31
  17  13  -1   -0.20    0.15
  13   1  17   -0.05    0.31
  17  13   1   -0.02    0.14
 -13  -1  17   -0.22    0.28
 -17 -13   1   -0.03    0.38
  17 -13  -1    0.00    0.12
  13   1  17   -0.09    0.11
   1  17  13    0.00    0.27
  -1 -17  13   -0.06    0.24
  17  15  -1   -0.09    0.17
 -15   1  17    0.23    0.37
  17 -15   1    0.19    0.17
   1 -17  15    0.10    0.25
  -1  17  15   -0.29    0.32
  15  -1  17   -0.14    0.29
  15  -1  17   -0.13    0.14
 -17 -15  -1   -0.02    0.34
  15   1 -17    0.03    0.16
  17  15   1   -0.28    0.14
 -17 -15   1   -0.16    0.36
   1  17  15   -0.48    0.30
  -1 -17  15    0.09    0.24
  15   1  17   -0.34    0.32
  15   1  17   -0.13    0.11
  17 -15  -1   -0.19    0.11
 -15  -1  17    0.18    0.42
 -17  -1  -3    0.53    0.32
   3 -17   1    0.26    0.16
  17   1  -3    0.20    0.12
 -17   1   3    0.38    0.29
  -3 -17  -1    0.30    0.16
  -1   3  17    0.19    0.32
  17  -1   3    0.30    0.13
   1  -3  17    0.20    0.13
   1  -3  17   -0.06    0.28
 -17  -1   3    0.48    0.34
   3 -17  -1    0.19    0.13
  -3 -17   1    0.15    0.16
  -1  -3  17    0.12    0.13
 -17   1  -3    0.31    0.28
  -1  -3  17    0.17    0.35
  17   1   3    0.19    0.12
   1   3  17    0.02    0.32
  17  -1  -3    0.24    0.12
  -3 -17  -3   -0.08    0.11
 -17  -3  -3   -0.18    0.25
   3 -17   3   -0.06    0.13
  -3   3  17   -0.41    0.20
  17  -3   3   -0.07    0.08
   3  -3  17   -0.01    0.10
 -17   3   3   -0.30    0.26
   3  -3  17   -0.29    0.23
  17   3  -3   -0.08    0.08
  -3 -17   3    0.01    0.16
   3  17   3   -0.09    0.12
 -17   3  -3   -0.08    0.20
  17   3   3   -0.05    0.09
  17  -3  -3   -0.03    0.10
   3   3  17   -0.03    0.30
 -17  -3   3   -0.06    0.26
  -3  -3  17   -0.25    0.29
   3 -17  -3   -0.01    0.11
  -3  -3  17    0.01    0.13
 -17  -5  -3    0.45    0.33
   5  -3  17    0.60    0.35
  -3 -17  -5    0.51    0.16
  -5   3  17    0.58    0.34
 -17   5   3    0.87    0.33
  17   5  -3    0.42    0.15
  17  -5   3    0.48    0.16
   3 -17   5    0.76    0.24
   5  -3  17    0.69    0.16
   5   3  17    0.52    0.11
  -3 -17   5    0.38    0.23
  -5  -3  17    0.53    0.21
 -17  -5   3    0.92    0.38
   3 -17  -5    0.53    0.16
  17   5   3    0.38    0.14
  17  -5  -3    0.49    0.15
  -5  -3  17    0.26    0.34
 -17   5  -3    0.97    0.31
   5   3  17    1.10    0.42
   3  17   5    0.69    0.22
   7  -3  17    0.59    0.16
   7  -3  17    0.37    0.33
   3 -17   7    0.39    0.23
  17   7  -3    0.38    0.15
 -17  -7  -3    0.87    0.38
  17  -7   3    0.45    0.15
  -3 -17  -7    0.16    0.16
 -17   7   3    0.59    0.35
  -7   3  17    0.34    0.29
  -3  17   7    0.28    0.22
   7   3  17    0.34    0.11
  -3 -17   7    0.73    0.25
  -7  -3  17    0.26    0.17
   3  17   7    0.24    0.23
   7   3  17    0.69    0.41
 -17  -7   3    0.41    0.39
  17   7   3    0.37    0.14
  17  -7  -3    0.36    0.13
 -17   7  -3    0.40    0.27
  -7  -3  17    0.05    0.31
  -9   3  17    1.19    0.38
   9  -3  17    1.10    0.21
  17  -9   3    1.14    0.21
  17   9  -3    1.07    0.21
   3 -17   9    0.96    0.30
 -17  -9  -3    1.99    0.46
   9  -3  17    1.87    0.45
  -3  17   9    1.07    0.35
 -17   9   3    1.81    0.42
  -3 -17   9    0.75    0.30
  -9  -3  17    1.08    0.25
   9   3  17    1.12    0.17
  17  -9  -3    0.99    0.19
   3  17   9    1.42    0.33
   9   3  17    1.40    0.44
  17   9   3    1.08    0.21
  -9  -3  17    1.63    0.44
 -17  -9   3    1.51    0.45
 -17   9  -3    1.50    0.38
  17 -11   3   -0.03    0.13
  17  11  -3   -0.17    0.13
 -11   3  17   -0.12    0.26
  11  -3  17    0.08    0.11
  -3  17  11   -0.12    0.22
   3 -17  11   -0.10    0.18
 -17 -11  -3    0.10    0.32
  11  -3  17   -0.22    0.29
  11   3  17   -0.12    0.10
  -3 -17  11   -0.09    0.19
  11   3  17   -0.45    0.29
  17 -11  -3   -0.12    0.09
 -17  11  -3   -0.27    0.24
 -11  -3  17   -0.05    0.14
 -17 -11   3   -0.13    0.35
   3  17  11   -0.19    0.24
  17  11   3    0.03    0.11
 -11  -3  17   -0.14    0.33
 -17  13   3   -0.24    0.31
  13  -3  17   -0.04    0.12
 -17 -13  -3    0.06    0.29
  17 -13   3    0.15    0.15
  13  -3  17   -0.24    0.26
  -3  17  13   -0.28    0.28
   3 -17  13    0.11    0.22
  17  13  -3   -0.27    0.15
 -13   3  17   -0.02    0.32
   3  17  13   -0.09    0.26
  13   3  17   -0.21    0.28
 -13  -3  17    0.00    0.38
  17  13   3   -0.08    0.13
  13   3  17    0.00    0.11
  -3 -17  13   -0.17    0.20
  17 -13  -3    0.02    0.11
 -17 -13   3   -0.29    0.37
 -17 -15  -3    0.22    0.36
  17 -15   3    0.12    0.19
  17  15  -3   -0.14    0.19
  -3  17  15   -0.13    0.30
   3 -17  15   -0.19    0.25
 -15   3  17    0.07    0.33
  15  -3  17    0.00    0.15
  15   3 -17    0.10    0.18
  15  -3  17   -0.07    0.32
  17 -15  -3    0.08    0.15
 -15  -3  17    0.08    0.41
   3  17  15   -0.57    0.37
  15   3  17   -0.25    0.36
  -3 -17  15    0.33    0.30
  17  15   3   -0.15    0.15
  15   3  17   -0.15    0.13
 -17 -15   3   -0.34    0.44
  17  -1   5    0.15    0.11
   1  -5  17    0.04    0.12
  -1   5  17   -0.15    0.28
   5 -17   1    0.00    0.13
  17   1  -5    0.09    0.11
  -5 -17  -1    0.07    0.13
 -17   1   5    0.40    0.31
   1  -5  17   -0.26    0.25
  17  -1  -5    0.05    0.10
  -1  -5  17    0.03    0.29
   5 -17  -1    0.07    0.10
 -17   1  -5   -0.01    0.22
  17   1   5    0.05    0.10
   1   5  17    0.30    0.31
   5  17   1    0.04    0.13
 -17  -1   5    0.16    0.29
  -5 -17   1    0.01    0.18
  -1  -5  17   -0.05    0.16
  -5 -17   1    0.15    0.15
   3  -5  17    0.64    0.37
  17   3  -5    0.66    0.17
  -5 -17  -3    0.44    0.16
   3  -5  17    0.59    0.18
   5 -17   3    0.64    0.22
  17  -3   5    0.55    0.15
 -17   3   5    0.63    0.34
  -3   5  17    0.42    0.35
   5  17   3    0.45    0.20
  17  -3  -5    0.43    0.15
 -17  -3   5    0.94    0.38
 -17   3  -5    0.69    0.27
  17   3   5    0.47    0.15
   5 -17  -3    0.56    0.16
  -3  -5  17    0.27    0.19
   3   5  17    0.46    0.38
  -5 -17   3    0.55    0.20
  -3  -5  17    0.50    0.33
  17  -5   5   -0.04    0.08
   5  -5  17   -0.12    0.08
  17   5  -5   -0.11    0.10
  -5   5  17   -0.40    0.18
 -17   5   5   -0.30    0.29
   5 -17   5   -0.18    0.13
  -5 -17  -5    0.00    0.10
   5  -5  17   -0.39    0.23
  17   5   5   -0.12    0.09
  -5  -5  17   -0.20    0.14
   5 -17  -5   -0.06    0.08
 -17  -5   5   -0.23    0.27
  -5 -17   5   -0.22    0.15
  17  -5  -5   -0.03    0.10
  17   5   5   -0.17    0.17
 -17   5  -5   -0.17    0.20
   5   5  17   -0.09    0.25
  -5  -5  17   -0.41    0.23
   5  17   5   -0.12    0.15
 -17   7   5    0.00    0.31
   7  -5  17   -0.21    0.25
  17   7  -5   -0.05    0.10
  -5  17   7   -0.10    0.17
   7  -5  17   -0.05    0.12
  -7   5  17   -0.31    0.19
  17  -7   5   -0.06    0.08
  -5 -17  -7   -0.06    0.10
   5 -17   7   -0.10    0.16
  17   7   5   -0.19    0.09
  -7  -5  17   -0.08    0.16
  -5 -17   7   -0.11    0.15
   5  17   7   -0.13    0.17
  17   7   5   -0.41    0.18
 -17  -7   5    0.08    0.32
  -7  -5  17   -0.14    0.29
   7   5  17   -0.22    0.21
 -17   7  -5    0.02    0.21
  17  -7  -5   -0.11    0.09
   9  -5  17   -0.05    0.11
  17  -9   5   -0.06    0.11
  17   9  -5   -0.01    0.15
 -17   9   5   -0.19    0.31
   5 -17   9   -0.17    0.18
  -5  17   9   -0.51    0.23
   9  -5  17    0.01    0.21
  -9   5  17   -0.28    0.26
  17  -9  -5   -0.11    0.09
   5  17   9   -0.08    0.19
  -9  -5  17   -0.07    0.17
   9   5  17   -0.24    0.25
 -17  -9   5    0.27    0.36
  -9  -5  17   -0.19    0.28
  -5 -17   9   -0.05    0.23
  17   9   5   -0.07    0.11
 -17   9  -5   -0.41    0.21
  17   9   5    0.08    0.23
 -11   5  17   -0.40    0.26
  -5  17  11   -0.16    0.22
 -17  11   5   -0.33    0.29
  11  -5  17   -0.28    0.11
  17 -11   5   -0.07    0.13
  17  11  -5   -0.10    0.14
   5 -17  11   -0.25    0.17
  11  -5  17   -0.37    0.22
 -11  -5  17   -0.09    0.16
  17  11   5   -0.44    0.23
  11   5  17   -0.44    0.23
  11   5  17   -0.10    0.09
  17 -11  -5   -0.16    0.10
  17  11   5   -0.25    0.10
   5  17  11   -0.26    0.23
 -17 -11   5   -0.25    0.34
 -17  11  -5   -0.27    0.22
  -5 -17  11    0.07    0.20
 -11  -5  17   -0.06    0.31
  13  -5  17    0.32    0.31
   5 -17  13    0.06    0.25
  13  -5  17    0.40    0.18
 -17  13   5    0.39    0.37
  17  13  -5    0.28    0.19
 -13   5  17    0.08    0.30
  -5  17  13    0.09    0.32
  17 -13   5    0.36    0.19
  13   5  17    0.14    0.38
 -13  -5  17    0.34    0.44
  17 -13  -5    0.24    0.15
   5  17  13    0.43    0.34
  13   5  17    0.25    0.13
  17  13   5    0.34    0.29
  17  13   5    0.26    0.15
  -5 -17  13   -0.03    0.24
 -17 -13   5    0.03    0.44
 -15   5  17    0.19    0.35
   5 -17  15   -0.26    0.24
  15  -5  17   -0.32    0.30
  15  -5  17   -0.29    0.14
  17  15  -5    0.08    0.18
  -5  17  15   -0.04    0.31
  15   5 -17   -0.38    0.17
  17 -15   5    0.05    0.18
  17  15   5   -0.22    0.14
  17 -15  -5   -0.05    0.13
 -15  -5  17   -0.37    0.37
  15   5  17   -0.07    0.12
  -5 -17  15   -0.04    0.24
 -17 -15   5   -0.59    0.39
  15   5  17   -0.18    0.34
   5  17  15   -0.61    0.28
   1  -7  17   -0.17    0.28
  17  -1   7   -0.06    0.24
 -17   1   7   -0.05    0.34
   7 -17   1   -0.06    0.12
   1  -7  17    0.09    0.17
  -1   7  17   -0.15    0.28
  17  -1   7   -0.02    0.11
  -7 -17  -1    0.05    0.12
  17   1  -7    0.13    0.12
  -1  -7  17    0.02    0.17
 -17  -1   7   -0.07    0.33
  17   1   7    0.00    0.20
  -7 -17   1   -0.15    0.13
   7  17   1    0.09    0.16
  17  -1  -7    0.04    0.11
   1   7  17   -0.15    0.25
  -1  -7  17   -0.37    0.23
   7 -17  -1   -0.08    0.10
  17   1   7   -0.03    0.12
   3  -7  17    0.35    0.19
  -3   7  17    0.47    0.34
 -17   3   7    0.18    0.33
  17  -3   7    0.26    0.15
   7 -17   3    0.41    0.20
  -7 -17  -3    0.44    0.15
   3  -7  17    0.41    0.34
  17   3  -7    0.17    0.14
  17  -3  -7    0.33    0.14
   7 -17  -3    0.30    0.14
   3   7  17    0.45    0.36
  -3  -7  17   -0.13    0.34
  -7 -17   3    0.58    0.28
  17   3   7    0.30    0.14
  -3  -7  17    0.26    0.20
  -7 -17   3    0.42    0.18
   7  17   3    0.37    0.21
  17   3   7    0.29    0.28
 -17  -3   7    0.22    0.34
  -7 -17  -5    0.08    0.11
   7 -17   5   -0.10    0.15
  17  -5   7   -0.07    0.11
   5  -7  17   -0.03    0.14
 -17   5   7    0.02    0.30
  -5   7  17   -0.23    0.26
   5  -7  17    0.02    0.28
  17   5  -7   -0.13    0.11
  -5  -7  17   -0.60    0.28
 -17  -5   7   -0.36    0.34
  -5  -7  17   -0.13    0.15
   7  17   5   -0.14    0.16
   7 -17  -5   -0.04    0.09
  -7 -17   5   -0.15    0.13
  17  -5  -7   -0.11    0.09
  17   5   7   -0.01    0.10
   5   7  17   -0.27    0.24
 -17   5  -7   -0.30    0.20
  17   5   7    0.04    0.20
 -17   7   7   -0.58    0.29
  17  -7   7   -0.11    0.12
  17   7  -7   -0.11    0.12
   7  -7  17   -0.16    0.22
   7  -7  17    0.00    0.13
   7 -17   7   -0.02    0.14
  -7   7  17   -0.24    0.24
  -7 -17   7   -0.04    0.13
  17   7   7   -0.19    0.20
  17  -7  -7   -0.11    0.08
  -7  -7  17    0.07    0.18
 -17   7  -7    0.04    0.22
   7  17   7    0.07    0.20
 -17  -7   7   -0.09    0.36
   7   7  17   -0.21    0.28
  17   7   7   -0.09    0.09
  17  -9   7    0.07    0.12
   9  -7  17   -0.03    0.23
  -9   7  17   -0.22    0.24
   9  -7  17   -0.08    0.12
  17   9  -7   -0.19    0.14
   7 -17   9   -0.17    0.17
 -17   9   7    0.13    0.31
 -17   9  -7   -0.49    0.21
  17   9   7   -0.11    0.22
  -9  -7  17   -0.09    0.17
  -9  -7  17   -0.46    0.25
   9   7  17    0.02    0.29
  17   9   7   -0.04    0.10
   7  17   9   -0.30    0.22
  17  -9  -7   -0.18    0.09
  -7 -17   9   -0.24    0.19
 -17  -9   7   -0.39    0.40
  -7  17  11   -0.01    0.26
  11  -7  17   -0.36    0.26
 -11   7  17    0.08    0.27
  11  -7  17    0.11    0.15
  17 -11   7    0.05    0.13
 -17  11   7   -0.75    0.31
   7 -17  11   -0.23    0.17
  17  11  -7   -0.38    0.16
   7  17  11   -0.13    0.25
 -11  -7  17    0.12    0.19
  17  11   7    0.02    0.11
 -17 -11   7   -0.04    0.39
  17 -11  -7    0.06    0.10
  11   7  17   -0.28    0.33
  17  11   7   -0.20    0.22
 -11  -7  17   -0.27    0.30
  -7 -17  11    0.02    0.20
  13  -7  17    0.36    0.29
  17 -13   7    0.45    0.21
  17  13  -7    0.32    0.22
  13  -7  17    0.37    0.18
 -17  13   7    0.08    0.34
   7 -17  13    0.09    0.23
  -7  17  13   -0.13    0.30
 -13   7  17    0.20    0.32
  17 -13  -7    0.20    0.13
  -7 -17  13    0.48    0.29
 -13  -7  17    0.61    0.47
 -17 -13   7   -0.25    0.46
  17  13   7    0.39    0.34
  17  13   7    0.37    0.16
   7  17  13    0.07    0.33
 -13  -7  17    0.39    0.24
  13   7  17    0.41    0.40
  -7  17  15    0.08    0.31
  17 -15   7   -0.19    0.16
  15  -7  17   -0.10    0.15
 -17  15   7   -0.44    0.31
   7 -17  15   -0.06    0.25
  17  15  -7   -0.13    0.17
 -15   7  17   -0.54    0.30
  17  15   7   -0.43    0.29
  15   7  17   -0.69    0.29
 -15  -7  17   -0.78    0.35
 -17 -15   7   -0.76    0.39
   7  17  15    0.02    0.35
  17  15   7    0.03    0.15
  -7 -17  15   -0.20    0.22
   9 -17   1   -0.13    0.09
  -1   9  17   -0.54    0.22
 -17   1   9    0.08    0.34
  17  -1   9   -0.07    0.22
  17  -1   9   -0.06    0.10
   1  -9  17   -0.20    0.16
   1  -9  17   -0.28    0.23
  17   1  -9   -0.04    0.10
  -1  -9  17   -0.24    0.26
   9 -17  -1   -0.08    0.10
  -1  -9  17   -0.16    0.16
  -9 -17   1   -0.20    0.19
  17  -1  -9   -0.02    0.10
 -17  -1   9   -0.16    0.29
  17   1   9    0.00    0.10
  17   1   9   -0.07    0.19
  -9 -17   1    0.02    0.13
   1   9  17   -0.26    0.28
  17   3  -9    1.17    0.21
  17  -3   9    1.37    0.34
  -3   9  17    1.25    0.42
   9 -17   3    1.17    0.25
  17  -3   9    1.21    0.22
   3  -9  17    1.49    0.42
   3  -9  17    1.03    0.27
 -17   3   9    1.62    0.49
   9 -17  -3    0.92    0.20
  -9 -17   3    1.44    0.26
 -17  -3   9    1.69    0.49
   3   9  17    2.08    0.53
  -3  -9  17    0.67    0.29
  -3  -9  17    1.20    0.44
  17   3   9    1.11    0.21
   9  17   3    1.96    0.35
  17   3   9    1.83    0.42
  17  -3  -9    1.11    0.20
  -9 -17   3    1.75    0.40
   5  -9  17   -0.01    0.16
  17  -5   9    0.02    0.20
  -5   9  17   -0.28    0.24
 -17   5   9    0.28    0.38
  17   5  -9   -0.03    0.11
   5  -9  17   -0.06    0.22
  17  -5   9    0.07    0.13
   9 -17   5    0.02    0.13
   5   9  17   -0.01    0.33
  17   5   9   -0.14    0.23
  -9 -17   5    0.13    0.17
 -17  -5   9    0.07    0.43
  -5  -9  17   -0.12    0.30
  -9 -17   5   -0.13    0.28
   9 -17  -5    0.16    0.11
  17   5   9   -0.14    0.09
   9  17   5   -0.12    0.12
  -5  -9  17   -0.44    0.18
  17  -5  -9   -0.04    0.10
   9  17   5   -0.05    0.21
 -17   7   9   -0.20    0.37
  -7   9  17   -0.31    0.24
  17   7  -9   -0.11    0.14
   7  -9  17   -0.16    0.16
   9 -17   7    0.01    0.15
   7  -9  17   -0.34    0.19
  17  -7   9   -0.04    0.11
 -17  -7   9    0.03    0.42
  -7  -9  17   -0.27    0.17
   9  17   7   -0.28    0.20
   7   9  17   -0.51    0.26
  17   7   9   -0.15    0.21
  17   7   9   -0.24    0.10
  17  -7  -9   -0.16    0.10
  -9 -17   7   -0.01    0.16
  -7  -9  17   -0.20    0.28
   9  17   7   -0.20    0.12
   9  -9  17   -0.09    0.23
   9  -9  17   -0.06    0.12
   9 -17   9   -0.29    0.17
 -17   9   9   -0.51    0.27
  17  -9   9   -0.03    0.12
  -9  17   9   -0.36    0.21
  17   9  -9   -0.16    0.12
  -9   9  17   -0.25    0.26
 -17  -9   9   -0.27    0.44
   9  17   9   -0.14    0.21
   9   9  17   -0.11    0.28
  -9  -9  17   -0.32    0.15
  17   9   9   -0.03    0.23
  17   9   9   -0.02    0.12
 -17   9  -9   -0.09    0.22
  17  -9  -9   -0.17    0.09
  -9 -17   9   -0.09    0.17
  -9  -9  17    0.03    0.32
  11  -9  17   -0.24    0.21
 -17  11   9   -0.66    0.31
  17  11  -9   -0.26    0.13
  17 -11   9    0.00    0.14
  11  -9  17   -0.11    0.14
 -11   9  17   -0.21    0.29
   9 -17  11   -0.03    0.19
  -9  17  11    0.12    0.24
  11   9  17   -0.19    0.29
  17  11   9   -0.21    0.22
 -11  -9  17   -0.22    0.17
 -17 -11   9   -0.27    0.39
 -11  -9  17   -0.19    0.37
  -9 -17  11   -0.18    0.16
   9  17  11   -0.29    0.22
  17  11   9   -0.20    0.10
  17 -11  -9   -0.05    0.11
 -17  13   9    0.02    0.32
   9 -17  13   -0.04    0.23
  17  13  -9   -0.07    0.19
  17 -13   9   -0.16    0.15
  13  -9  17   -0.13    0.16
  -9  17  13   -0.24    0.26
 -13   9  17   -0.17    0.27
 -13  -9  17    0.08    0.21
 -13  -9  17   -0.20    0.40
  -9 -17  13   -0.06    0.21
  13   9  17   -0.57    0.26
  17  13   9   -0.01    0.30
  17  13   9    0.00    0.13
   9  17  13   -0.17    0.28
 -17 -13   9   -0.03    0.49
  -9  17  15   -0.24    0.27
   9 -17  15   -0.01    0.26
  17  15  -9   -0.20    0.21
  17 -15   9   -0.09    0.19
  15  -9  17   -0.05    0.19
 -15   9  17   -0.01    0.34
 -17  15   9    0.14    0.29
   9  17  15   -0.28    0.32
  15   9  17   -0.44    0.34
  17  15   9   -0.18    0.15
 -17 -15   9    0.08    0.52
 -15  -9  17   -0.12    0.43
  -9 -17  15   -0.11    0.24
  17  15   9    0.10    0.34
 -17   1  11   -0.77    0.32
   1 -11  17   -0.43    0.24
  17  -1  11   -0.16    0.10
  -1  11  17   -0.21    0.28
  17  -1  11   -0.27    0.18
  17   1 -11    0.01    0.11
   1 -11  17   -0.19    0.18
  17   1  11   -0.08    0.20
  11 -17  -1   -0.23    0.10
  17   1  11   -0.14    0.10
  -1 -11  17   -0.03    0.18
  11  17   1   -0.22    0.13
  17  -1 -11   -0.18    0.09
  -1 -11  17   -0.26    0.23
 -11 -17   1   -0.47    0.25
   1  11  17   -0.17    0.28
 -17  -1  11   -0.23    0.38
 -17   3  11   -0.16    0.35
   3 -11  17   -0.09    0.19
  17   3 -11   -0.03    0.12
  17  -3  11   -0.02    0.12
  -3  11  17   -0.10    0.29
  11 -17   3   -0.13    0.14
  17  -3  11   -0.20    0.20
   3  11  17   -0.23    0.33
  11  17   3   -0.14    0.15
  17   3  11   -0.16    0.10
  17  -3 -11    0.02    0.12
 -11 -17   3   -0.31    0.24
  17   3  11   -0.25    0.23
  -3 -11  17    0.08    0.21
 -17  -3  11   -0.08    0.38
  11  17   3   -0.06    0.19
  11 -17  -3   -0.24    0.12
  -3 -11  17   -0.38    0.32
  17  -5  11   -0.34    0.20
  -5  11  17   -0.17    0.27
   5 -11  17   -0.10    0.18
  17  -5  11   -0.03    0.12
  17   5 -11   -0.16    0.13
 -17   5  11   -0.40    0.33
  11 -17   5   -0.31    0.14
  11 -17  -5   -0.17    0.11
 -11 -17   5   -0.09    0.31
  11  17   5   -0.38    0.18
  11  17   5    0.02    0.14
  -5 -11  17   -0.48    0.28
  17  -5 -11   -0.14    0.10
 -17  -5  11   -0.22    0.46
  -5 -11  17    0.00    0.20
   5  11  17   -0.38    0.23
  17   5  11   -0.47    0.23
 -11 -17   5   -0.15    0.15
  17   5  11   -0.18    0.11
 -17   7  11   -0.28    0.34
  17  -7  11   -0.10    0.19
  17  -7  11    0.05    0.14
  11 -17   7   -0.23    0.17
  -7  11  17   -0.21    0.27
  17   7 -11   -0.39    0.15
   7 -11  17    0.02    0.20
  17   7  11   -0.05    0.11
 -11 -17   7    0.24    0.20
 -17  -7  11   -0.05    0.40
  11  17   7   -0.02    0.23
  17   7  11   -0.24    0.25
   7  11  17   -0.24    0.29
  17  -7 -11   -0.12    0.09
  -7 -11  17   -0.05    0.34
  11  17   7   -0.05    0.14
  -7 -11  17    0.12    0.22
  11 -17   9   -0.26    0.17
  -9  11  17   -0.21    0.22
 -17   9  11   -0.45    0.31
  17  -9  11    0.08    0.14
   9 -11  17    0.00    0.18
  17   9 -11   -0.20    0.15
   9  11  17   -0.17    0.28
 -11 -17   9   -0.22    0.16
  11  17   9   -0.23    0.25
 -17  -9  11   -0.73    0.46
  -9 -11  17   -0.05    0.34
  17   9  11   -0.12    0.11
  17   9  11   -0.12    0.24
  -9 -11  17    0.00    0.18
 -17  11  11   -0.68    0.28
  11 -11  17   -0.08    0.16
  17  11 -11   -0.17    0.20
  11 -17  11   -0.38    0.17
 -11  17  11   -0.16    0.25
 -11  11  17   -0.05    0.27
  17 -11  11   -0.14    0.13
  17  11  11   -0.10    0.10
 -11 -11  17    0.04    0.20
  17  11  11   -0.38    0.30
 -11 -17  11   -0.07    0.19
  11  11  17   -0.40    0.29
 -11 -11  17   -0.54    0.34
  11  17  11   -0.31    0.25
 -17 -11  11   -0.18    0.46
  13 -11  17    0.25    0.21
 -13  11  17    0.13    0.33
  11 -17  13    0.02    0.27
 -11  17  13    0.16    0.31
  17  13 -11   -0.18    0.22
 -17  13  11    0.31    0.36
  17 -13  11    0.37    0.22
 -13 -11  17    0.19    0.24
  17  13  11    0.16    0.15
 -13 -11  17    0.52    0.46
  17  13  11    0.01    0.33
 -17 -13  11   -0.22    0.52
 -11 -17  13    0.20    0.26
  11  17  13   -0.13    0.33
  13  11  17    0.39    0.40
 -11  17  15    0.38    0.34
  17 -15  11   -0.01    0.23
  11 -17  15   -0.09    0.28
  17  15 -11    0.13    0.25
 -15  11  17    0.06    0.34
 -17  15  11    0.00    0.34
  15 -11  17    0.33    0.23
 -17 -15  11    0.11    0.51
 -11 -17  15    0.47    0.30
 -15 -11  17    0.08    0.54
  17  15  11   -0.17    0.33
  11  17  15    0.10    0.33
  17  15  11    0.19    0.17
 -15 -11  17    0.15    0.23
  15  11  17   -0.24    0.41
 -13 -17  -1    0.07    0.30
  17  -1  13    0.02    0.13
  17  -1  13    0.04    0.28
  17   1 -13   -0.02    0.13
  13 -17   1    0.02    0.12
 -17   1  13   -0.13    0.39
  13  17  -1    0.08    0.16
  -1  13  17   -0.17    0.31
   1 -13  17    0.01    0.26
  13 -17  -1    0.07    0.12
 -13 -17   1    0.08    0.32
  17  -1 -13    0.01    0.12
  17   1  13    0.01    0.13
   1  13  17   -0.17    0.32
  17   1  13    0.06    0.29
  -1 -13  17   -0.11    0.22
 -17  -1  13    0.05    0.46
  13  17   1    0.02    0.16
 -17   3  13   -0.11    0.38
  17  -3  13    0.03    0.25
  17  -3  13    0.06    0.14
  -3  13  17   -0.11    0.32
   3 -13  17   -0.08    0.20
  13 -17   3   -0.07    0.15
  17   3 -13   -0.09    0.12
  13  17  -3   -0.16    0.15
  17   3  13   -0.01    0.28
  13  17   3   -0.15    0.22
  13 -17  -3   -0.09    0.11
 -13 -17   3   -0.13    0.31
  -3 -13  17   -0.15    0.22
  17  -3 -13    0.01    0.11
 -17  -3  13   -0.63    0.37
  13  17   3   -0.12    0.14
   3  13  17   -0.21    0.31
  17   3  13   -0.10    0.11
  -5  13  17    0.22    0.35
 -17   5  13    0.27    0.38
   5 -13  17    0.46    0.27
  17  -5  13    0.32    0.28
  13 -17   5    0.34    0.22
  17   5 -13    0.16    0.19
  17  -5  13    0.17    0.16
 -17  -5  13    0.37    0.54
  17   5  13    0.45    0.34
  -5 -13  17    0.14    0.27
  17  -5 -13    0.24    0.13
 -13 -17   5   -0.08    0.39
  13  17   5    0.00    0.18
  13  17   5    0.41    0.27
   5  13  17    0.37    0.34
  17   5  13    0.38    0.16
  13 -17  -5    0.19    0.15
   7 -13  17    0.23    0.25
  17  -7  13    0.45    0.29
  17   7 -13    0.38    0.21
  17  -7  13    0.13    0.16
 -17   7  13    0.26    0.36
  13 -17   7    0.20    0.22
  -7  13  17    0.29    0.35
  17   7  13    0.50    0.37
   7  13  17    0.13    0.36
  13  17   7    0.30    0.18
 -17  -7  13    0.10    0.50
  -7 -13  17    0.10    0.25
  13  17   7    0.45    0.31
 -13 -17   7    0.04    0.41
  -7 -13  17    0.37    0.40
  17   7  13    0.14    0.15
  17  -9  13   -0.24    0.18
  -9  13  17   -0.36    0.25
   9 -13  17   -0.07    0.19
  13 -17   9   -0.06    0.18
  17  -9  13   -0.05    0.15
  17   9 -13   -0.04    0.17
 -17   9  13   -0.24    0.30
  -9 -13  17    0.19    0.40
  17   9  13   -0.14    0.11
  13  17   9   -0.19    0.25
  17   9  13   -0.06    0.26
 -17  -9  13   -0.49    0.42
  -9 -13  17   -0.20    0.22
  13  17   9   -0.16    0.14
 -13 -17   9   -0.07    0.22
 -13  17  11    0.49    0.32
  17  11 -13    0.10    0.21
  13 -17  11    0.02    0.24
  11 -13  17    0.05    0.23
 -11  13  17    0.19    0.34
  17 -11  13    0.23    0.22
 -17  11  13    0.74    0.36
 -17 -11  13    0.34    0.55
  13  17  11    0.10    0.31
  17  11  13   -0.10    0.33
 -11 -13  17   -0.05    0.25
 -13 -17  11    0.24    0.24
  11  13  17    0.13    0.39
 -11 -13  17    0.56    0.43
  17  11  13   -0.09    0.15
  13 -17  13   -0.01    0.25
 -13  13  17   -0.46    0.29
  17 -13  13   -0.15    0.18
  13 -13  17   -0.04    0.19
 -13  17  13   -0.41    0.24
 -17  13  13   -0.54    0.29
  17  13 -13   -0.08    0.20
  13  13  17   -0.49    0.30
  17  13  13   -0.19    0.30
 -13 -17  13   -0.25    0.22
 -17 -13  13   -0.55    0.50
  13  17  13   -0.10    0.30
 -13 -13  17   -0.57    0.42
 -13 -13  17   -0.28    0.24
 -15  13  17    0.21    0.36
  15 -13  17    0.16    0.25
 -13  17  15    0.03    0.31
  17 -15  13    0.35    0.26
  13 -17  15   -0.04    0.28
 -17  15  13    0.51    0.34
 -17 -15  13    0.91    0.61
 -13 -17  15    0.25    0.27
  15  13  17    0.25    0.40
  13  17  15   -0.10    0.39
 -15 -13  17    0.02    0.49
 -15 -13  17   -0.28    0.26
  17  15  13    0.12    0.36
  15  17  -1   -0.30    0.15
  -1  15  17   -0.19    0.33
  17  -1  15   -0.24    0.32
  17  -1  15   -0.16    0.13
  17   1 -15   -0.06    0.14
  15 -17   1   -0.22    0.15
   1 -15  17   -0.08    0.25
 -15 -17  -1   -0.72    0.31
 -17   1  15   -0.06    0.43
  17  -1 -15   -0.19    0.13
   1  15  17   -0.08    0.35
  -1 -15  17    0.06    0.27
  17   1  15   -0.17    0.12
  17   1  15   -0.11    0.34
 -15 -17   1   -0.23    0.34
  15 -17  -1    0.01    0.14
 -17  -1  15   -0.47    0.39
  15  17   1    0.02    0.16
   3 -15  17   -0.27    0.27
  17  -3  15    0.03    0.27
 -17   3  15    0.45    0.45
  15  17  -3    0.06    0.18
  17  -3  15    0.06    0.15
  15 -17   3    0.17    0.18
  17   3 -15   -0.18    0.18
  -3  15  17    0.13    0.33
  17   3  15   -0.04    0.15
  -3 -15  17   -0.01    0.25
 -17  -3  15    0.14    0.42
  15  17   3    0.09    0.17
   3  15  17   -0.01    0.34
  17   3  15   -0.16    0.35
  15 -17  -3    0.08    0.16
 -15 -17   3   -0.28    0.34
  17   5 -15   -0.08    0.17
  15 -17   5   -0.14    0.18
 -17   5  15   -0.04    0.40
  15  17  -5   -0.31    0.18
  17  -5  15    0.01    0.15
   5 -15  17   -0.37    0.23
  17  -5  15   -0.43    0.25
  -5  15  17   -0.41    0.29
  -5 -15  17    0.08    0.23
 -15 -17   5   -0.40    0.38
  17   5  15   -0.23    0.12
  17   5  15    0.03    0.35
  15  17   5   -0.12    0.28
  15  17   5   -0.01    0.16
   5  15  17   -0.09    0.32
 -17  -5  15   -0.39    0.42
  15 -17  -5   -0.12    0.12
 -17   7  15   -0.73    0.29
  -7  15  17   -0.31    0.27
   7 -15  17   -0.26    0.21
  17   7 -15   -0.31    0.16
  15 -17   7   -0.30    0.15
  17  -7  15   -0.32    0.22
  17  -7  15   -0.09    0.16
  15  17  -7   -0.07    0.18
 -15 -17   7   -0.26    0.38
  -7 -15  17   -0.09    0.23
  17   7  15   -0.24    0.12
  17   7  15   -0.34    0.27
 -17  -7  15   -0.41    0.41
   7  15  17   -0.37    0.28
  15  17   7   -0.20    0.15
  15  17   7   -0.14    0.28
 -17   9  15   -0.60    0.34
  15 -17   9   -0.28    0.18
  -9  15  17   -0.39    0.26
   9 -15  17    0.07    0.24
  17  -9  15   -0.02    0.18
  17   9 -15   -0.14    0.20
   9  15  17   -0.28    0.31
  17   9  15   -0.41    0.32
  15  17   9   -0.62    0.28
  15  17   9   -0.21    0.15
  -9 -15  17   -0.03    0.23
  17   9  15   -0.23    0.13
 -17  -9  15   -0.90    0.56
 -11  15  17    0.19    0.34
 -17  11  15   -0.19    0.37
  17 -11  15   -0.08    0.17
  11 -15  17    0.31    0.28
  15 -17  11    0.00    0.23
  15  17  11    0.14    0.34
  17  11  15   -0.06    0.37
  11  15  17    0.12    0.42
 -15 -17  11    0.36    0.28
 -11 -15  17    0.18    0.28
 -17 -11  15    0.11    0.53
 -17  13  15    0.63    0.40
 -13  15  17    0.27    0.32
  13 -15  17    0.35    0.31
  17 -13  15    0.06    0.22
  15 -17  13    0.38    0.28
 -15  17  13    0.16    0.30
  13  15  17    0.51    0.42
  15  17  13    0.19    0.39
 -13 -15  17    0.17    0.28
 -15 -17  13   -0.32    0.27
  17  13  15    0.22    0.41
 -17 -13  15   -0.34    0.56
  17 -15  15   -0.31    0.21
  15 -17  15   -0.28    0.23
 -17  15  15   -0.09    0.33
 -15  17  15    0.37    0.33
  15 -15  17    0.09    0.27
 -15  15  17    0.25    0.34
 -15 -17  15   -0.25    0.23
 -17 -15  15   -0.30    0.24
 -15 -15  17   -0.05    0.24
  15  15  17   -0.57    0.39
  15  17  15    0.07    0.37
 -17 -15  15    0.21    0.57
  17  15  15   -0.25    0.42
 -17 -17  -1   -0.11    0.32
  17   1 -17   -0.28    0.14
  17  -1  17   -0.45    0.26
 -17   1  17   -0.01    0.39
  17  17  -1   -0.13    0.17
  -1  17  17   -0.71    0.31
   1 -17  17   -0.11    0.25
  17  -1  17   -0.06    0.14
  17 -17   1   -0.12    0.14
  17 -17  -1   -0.08    0.15
 -17  -1  17   -0.20    0.38
   1  17  17   -0.17    0.33
 -17 -17   1   -0.25    0.37
  17   1  17   -0.28    0.28
  17   1  17   -0.08    0.12
  -1 -17  17   -0.18    0.24
  17  17   1   -0.30    0.16
 -17 -17  -3   -0.17    0.31
  17   3 -17   -0.04    0.16
  17  -3  17   -0.17    0.30
 -17   3  17   -0.60    0.36
  17  17  -3   -0.10    0.17
  -3  17  17   -0.58    0.33
   3 -17  17   -0.09    0.28
  17  -3  17   -0.09    0.14
  17 -17   3   -0.19    0.13
  17 -17  -3   -0.10    0.14
 -17  -3  17   -0.26    0.40
   3  17  17   -0.05    0.35
 -17 -17   3   -0.38    0.35
  17   3  17   -0.04    0.34
  17   3  17   -0.20    0.11
  -3 -17  17   -0.34    0.26
  17  17   3   -0.41    0.17
  17  -5  17   -0.13    0.16
  17  17  -5   -0.30    0.18
 -17   5  17   -0.53    0.36
  17   5 -17   -0.04    0.18
   5 -17  17   -0.29    0.25
  17  -5  17   -0.04    0.24
  17 -17   5   -0.06    0.18
   5  17  17   -0.26    0.33
 -17 -17   5   -0.22    0.44
  -5 -17  17   -0.49    0.22
  17   5  17   -0.58    0.28
  17   5  17   -0.15    0.11
 -17  -5  17   -0.04    0.48
  17  17   5   -0.13    0.17
  17  -7  17    0.02    0.29
  17  17  -7   -0.41    0.17
 -17   7  17   -0.17    0.31
  17  -7  17   -0.22    0.14
  -7  17  17   -0.23    0.32
   7 -17  17   -0.18    0.25
  17   7 -17   -0.17    0.18
  17 -17   7   -0.11    0.18
 -17 -17   7   -0.73    0.44
  -7 -17  17   -0.17    0.25
   7  17  17   -0.38    0.30
  17   7  17   -0.40    0.31
 -17  -7  17   -0.19    0.43
  17  17   7    0.01    0.32
  17  17   7   -0.27    0.14
  17  -9  17   -0.16    0.17
  17 -17   9    0.08    0.21
 -17   9  17   -0.34    0.32
   9 -17  17   -0.20    0.25
  -9  17  17   -0.20    0.28
  -9 -17  17   -0.09    0.26
   9  17  17   -0.52    0.32
 -17  -9  17   -0.71    0.49
 -17 -17   9   -0.65    0.51
  17   9  17   -0.50    0.28
  17  17   9   -0.14    0.32
  17  17   9   -0.08    0.16
  17 -17  11   -0.09    0.19
  17 -11  17    0.04    0.21
  11 -17  17   -0.22    0.24
 -17  11  17    0.01    0.30
 -11  17  17   -0.28    0.30
 -11 -17  17   -0.14    0.27
 -17 -11  17   -0.21    0.21
  11  17  17   -0.51    0.34
 -17 -17  11   -0.50    0.53
 -17 -11  17   -0.20    0.45
  17  11  17   -0.41    0.33
  17  17  11   -0.15    0.31
  17 -17  13   -0.20    0.21
  17 -13  17   -0.20    0.18
  13 -17  17   -0.55    0.22
 -17  13  17   -0.07    0.29
 -13  17  17   -0.29    0.30
 -13 -17  17   -0.43    0.24
 -17 -13  17   -0.36    0.21
  13  17  17   -0.08    0.38
 -17 -17  13   -0.21    0.22
 -17 -13  17   -0.76    0.47
  17  13  17   -0.31    0.36
  17  17  13   -0.34    0.26
 -15  17  17   -0.08    0.32
  17 -17  15   -0.09    0.22
  17 -15  17   -0.17    0.25
 -17  15  17    0.44    0.34
 -17  17  15    0.21    0.35
  15 -17  17   -0.29    0.25
 -17 -17  15   -0.21    0.24
 -15 -17  17   -0.58    0.23
  15  17  17   -0.81    0.37
 -17 -15  17   -0.44    0.52
 -17 -15  17    0.12    0.26
  17  15  17   -0.18    0.38
  17  17  15   -0.55    0.38
  17 -17  17   -0.20    0.25
 -17  17  17    0.03    0.33
 -17 -17  17   -0.79    0.30
  17  17  17   -0.24    0.42
 -18   0   0    0.04    0.27
   0 -18   0    0.10    0.14
   0   0  18   -0.13    0.30
   0   0  18    0.11    0.09
  18   0   0   -0.01    0.09
   2   0  18   -0.14    0.28
   2   0  18    0.06    0.08
  18  -2   0    0.03    0.09
  18   2   0   -0.01    0.10
  -2   0  18    0.00    0.09
   0 -18  -2    0.02    0.14
   0 -18   2   -0.16    0.15
 -18   2   0   -0.20    0.23
  -2   0  18   -0.32    0.25
 -18  -2   0   -0.18    0.27
  -4   0  18    0.10    0.12
 -18   4   0    0.48    0.28
  18   4   0    0.08    0.11
   4   0  18    0.07    0.09
  18  -4   0    0.06    0.11
   0 -18  -4    0.10    0.12
   0 -18   4    0.05    0.16
   4   0  18   -0.17    0.25
 -18  -4   0    0.00    0.28
  -4   0  18   -0.07    0.28
   0  18   6    2.91    0.40
  -6   0  18    3.46    0.60
   6   0  18    3.40    0.64
   6   0  18    3.71    0.38
  18  -6   0    3.25    0.41
  18   6   0    3.21    0.42
 -18  -6   0    2.89    0.56
  -6   0  18    3.66    0.49
   0 -18  -6    3.73    0.47
 -18   6   0    3.28    0.51
 -18  -8   0    0.05    0.30
  18  -8   0    0.03    0.10
   8   0  18    0.01    0.09
   0 -18   8    0.15    0.20
   0  18   8   -0.04    0.20
   8   0  18    0.10    0.28
 -18   8   0    0.12    0.28
  -8   0  18    0.06    0.33
  18   8   0    0.08    0.11
  18  10   0    1.12    0.22
  10   0  18    1.41    0.49
   0 -18  10    0.81    0.33
 -18  10   0    1.77    0.42
 -10   0  18    1.25    0.45
 -18 -10   0    2.10    0.55
   0  18  10    1.69    0.37
  10   0  18    1.18    0.20
  18 -10   0    0.97    0.21
 -18  12   0   -0.08    0.28
  18 -12   0    0.05    0.12
   0 -18  12   -0.14    0.20
  12   0  18   -0.15    0.12
 -12   0  18   -0.05    0.36
  12   0  18    0.11    0.34
 -18 -12   0    0.17    0.37
   0  18  12   -0.02    0.26
  18 -14   0    0.31    0.19
   0  18  14    1.20    0.40
 -14   0  18    0.76    0.48
  14   0  18    0.70    0.46
   0 -18  14    0.71    0.34
 -18 -14   0    1.02    0.49
  18  14   0    0.71    0.22
  14   0  18    0.64    0.18
 -18 -16   0    0.02    0.36
  16   0  18    0.06    0.14
  16   0  18   -0.03    0.34
   0  18  16    0.09    0.38
 -16   0  18   -0.08    0.33
   0 -18  16    0.09    0.26
  18 -16   0    0.05    0.14
  18  16   0    0.10    0.18
  18   0   2   -0.04    0.10
 -18   0   2    0.06    0.27
   0   2  18   -0.26    0.31
   2 -18   0    0.06    0.13
   0  -2  18   -0.50    0.28
 -18   0  -2    0.01    0.28
  -2 -18   0    0.20    0.15
   0  -2  18   -0.06    0.10
  18   0  -2   -0.06    0.09
 -18  -2  -2   16.31    1.28
   2  -2  18   13.38    1.33
   2  -2  18   13.50    0.98
  -2   2  18   13.19    1.31
 -18   2   2   16.60    1.26
   2 -18   2   14.75    1.17
  18   2  -2   15.40    1.06
  18  -2   2   15.48    1.05
  -2 -18  -2   14.48    1.11
 -18  -2   2   14.31    1.26
   2   2  18   14.53    1.36
  18  -2  -2   16.75    1.06
  -2 -18   2   16.85    1.23
  -2  -2  18   13.11    1.30
  -2  -2  18   16.77    1.09
   2 -18  -2   18.85    1.18
 -18   2  -2   13.89    1.16
  18   2   2   15.98    1.05
 -18   4   2    4.45    0.63
   2 -18   4    2.14    0.37
  18   4  -2    3.69    0.44
  -2 -18  -4    3.89    0.49
  18  -4   2    3.17    0.41
  -4   2  18    3.32    0.62
   4  -2  18    3.32    0.39
   4  -2  18    2.97    0.62
 -18  -4  -2    2.74    0.52
  -2 -18   4    2.16    0.37
 -18   4  -2    2.89    0.45
  18   4   2    2.94    0.40
  -4  -2  18    3.02    0.61
 -18  -4   2    3.01    0.54
   2 -18  -4    4.20    0.48
  18  -4  -2    3.55    0.43
   4   2  18    3.26    0.66
  -2 -18  -6    6.09    0.60
 -18  -6  -2    5.67    0.76
  -6   2  18    5.39    0.74
   2 -18   6    6.75    0.77
 -18   6   2    5.97    0.73
   6  -2  18    5.78    0.81
  18  -6   2    6.80    0.60
  18   6  -2    6.87    0.61
   6  -2  18    6.21    0.54
   2  18   6    5.85    0.56
 -18  -6   2    6.99    0.82
  18  -6  -2    5.97    0.56
   6   2  18    4.15    0.71
  -6  -2  18    5.52    0.65
 -18   6  -2    6.79    0.69
  -2 -18   6    7.77    0.82
  -6  -2  18    5.04    0.75
  18   6   2    5.88    0.59
   6   2  18    5.83    0.48
  18  -8   2    0.02    0.13
   8  -2  18    0.50    0.35
   8  -2  18    0.27    0.13
   2 -18   8    0.11    0.21
 -18  -8  -2    0.32    0.36
  -2  18   8    0.11    0.24
  18   8  -2    0.08    0.13
 -18   8   2    0.22    0.34
  -8   2  18    0.01    0.27
  18  -8  -2    0.07    0.11
  18   8   2    0.08    0.11
 -18   8  -2    0.28    0.28
  -2 -18   8    0.30    0.23
 -18  -8   2    0.44    0.35
   8   2  18    0.17    0.10
   2  18   8    0.15    0.22
   8   2  18   -0.01    0.31
  -8  -2  18    0.01    0.29
  -8  -2  18    0.22    0.18
  10  -2  18    6.37    0.60
   2 -18  10    7.42    0.87
  -2  18  10    7.37    0.74
 -18 -10  -2    6.34    0.84
  18 -10   2    6.30    0.64
  10  -2  18    5.36    0.77
  18  10  -2    6.73    0.67
 -10   2  18    7.33    0.85
 -18  10   2    8.29    0.83
  -2 -18  10    7.77    0.90
  18 -10  -2    7.86    0.65
  18  10   2    6.76    0.64
  10   2  18    7.50    0.59
  10   2  18    7.51    0.90
 -18 -10   2    7.01    0.94
 -18  10  -2    6.90    0.74
   2  18  10    7.20    0.70
 -10  -2  18    5.73    0.68
 -10  -2  18    5.58    0.80
  12  -2  18    0.66    0.20
 -12   2  18    1.53    0.49
   2 -18  12    1.15    0.34
  18 -12   2    0.62    0.19
  -2  18  12    1.87    0.44
  12  -2  18    1.23    0.41
  18  12  -2    0.83    0.23
 -18 -12  -2    1.58    0.47
 -18  12   2    1.70    0.46
 -18  12  -2    1.48    0.39
 -12  -2  18    1.22    0.45
 -12  -2  18    0.80    0.24
  12   2  18    0.95    0.19
   2  18  12    1.80    0.42
  12   2  18    1.49    0.46
  18  12   2    0.74    0.22
  18 -12  -2    0.93    0.21
 -18 -12   2    1.36    0.49
  -2 -18  12    1.27    0.34
 -14   2  18    3.92    0.70
  -2  18  14    6.55    0.77
  14  -2  18    6.90    0.84
  18  14  -2    5.50    0.69
  18 -14   2    5.89    0.66
 -18 -14  -2    6.94    0.89
  14  -2  18    6.41    0.62
   2 -18  14    6.46    0.91
  18 -14  -2    4.87    0.59
   2  18  14    6.03    0.75
  -2 -18  14    7.54    0.94
  14   2  18    4.39    0.73
 -14  -2  18    6.17    0.87
 -18 -14   2    6.43    0.92
  14   2  18    5.30    0.56
  18  14   2    5.60    0.66
  16  -2  18    0.15    0.31
   2 -18  16    0.13    0.30
  18  16  -2    0.21    0.22
 -18 -16  -2    0.33    0.39
  16   2 -18    0.26    0.19
  -2  18  16   -0.04    0.37
  18 -16   2    0.12    0.17
  16  -2  18    0.37    0.18
 -16   2  18    0.27    0.39
  16   2  18    0.21    0.16
 -16  -2  18    0.40    0.48
  16   2  18   -0.06    0.35
  18  16   2    0.23    0.20
   2  18  16    0.04    0.38
  18 -16  -2    0.04    0.16
  -2 -18  16    0.11    0.29
 -18 -16   2    0.52    0.46
 -18   0  -4   -0.15    0.23
   0  -4  18    0.06    0.35
   0  -4  18    0.07    0.14
   0   4  18    0.17    0.29
 -18   0   4    0.08    0.31
  18   0  -4    0.00    0.11
   4 -18   0    0.06    0.13
  -4 -18   0    0.14    0.14
  18   0   4    0.08    0.11
 -18  -2  -4    3.29    0.54
  18  -2   4    2.96    0.39
   4 -18   2    2.10    0.34
 -18   2   4    3.66    0.56
  -4 -18  -2    1.93    0.31
   2  -4  18    2.99    0.60
   2  -4  18    3.68    0.44
  18   2  -4    3.83    0.45
  -2   4  18    2.92    0.55
  18   2   4    3.47    0.44
 -18   2  -4    4.01    0.55
 -18  -2   4    3.07    0.55
  18  -2  -4    3.15    0.39
   2   4  18    3.27    0.60
  -2  -4  18    3.46    0.63
  -2  -4  18    2.21    0.33
   4 -18  -2    1.96    0.30
  -4 -18   2    1.94    0.34
  -4 -18  -4    0.04    0.11
   4  -4  18   -0.01    0.11
 -18  -4  -4   -0.02    0.26
  18   4  -4    0.11    0.13
   4  -4  18    0.11    0.30
   4 -18   4    0.14    0.17
 -18   4   4   -0.19    0.29
  -4   4  18   -0.27    0.18
  18  -4   4    0.03    0.10
 -18  -4   4    0.02    0.28
  18  -4  -4    0.01    0.10
  18   4   4   -0.10    0.09
   4  18   4    0.13    0.15
   4 -18  -4    0.11    0.12
 -18   4  -4    0.00    0.21
  -4 -18   4    0.06    0.15
  -4  -4  18   -0.13    0.32
   4   4  18    0.08    0.28
  -4  -4  18   -0.07    0.14
   4 -18   6    0.55    0.25
  -6   4  18    0.73    0.36
  18   6  -4    0.54    0.16
  -4 -18  -6    0.48    0.17
  18  -6   4    0.51    0.17
 -18   6   4    0.98    0.40
   6  -4  18    0.39    0.16
   6  -4  18    0.35    0.33
  -4 -18   6    0.52    0.24
 -18  -6   4    0.57    0.38
   4  18   6    0.29    0.21
  -6  -4  18    0.65    0.38
  -6  -4  18    0.43    0.22
 -18   6  -4    0.59    0.29
  18  -6  -4    0.27    0.13
   6   4  18    0.60    0.40
  18   6   4    0.34    0.15
   4 -18   8    0.03    0.20
  -8   4  18    0.19    0.28
  18  -8   4    0.11    0.13
   8  -4  18    0.28    0.14
 -18   8   4    0.21    0.34
  -4  18   8   -0.07    0.20
  18   8  -4   -0.17    0.12
   8  -4  18    0.06    0.26
  18  -8  -4    0.06    0.11
   4  18   8    0.20    0.20
 -18  -8   4    0.22    0.36
  -8  -4  18    0.09    0.28
  18   8   4    0.06    0.11
   8   4  18   -0.02    0.35
  -8  -4  18    0.18    0.18
  -4 -18   8    0.12    0.20
 -18   8  -4    0.18    0.25
  -4  18  10   -0.18    0.24
  18  10  -4   -0.28    0.12
  10  -4  18   -0.15    0.28
 -10   4  18   -0.18    0.23
  18 -10   4   -0.14    0.11
 -18  10   4   -0.28    0.32
   4 -18  10    0.27    0.24
  10  -4  18    0.05    0.13
   4  18  10   -0.17    0.23
 -10  -4  18   -0.26    0.34
 -10  -4  18   -0.06    0.17
  -4 -18  10   -0.20    0.19
  10   4  18   -0.14    0.33
  18 -10  -4   -0.03    0.10
 -18  10  -4   -0.37    0.25
  18  10   4    0.12    0.14
 -18 -10   4   -0.03    0.42
  -4  18  12    0.30    0.29
   4 -18  12    0.11    0.24
  12  -4  18    0.05    0.15
 -12   4  18    0.06    0.32
  18  12  -4   -0.04    0.14
  12  -4  18    0.26    0.32
  18 -12   4   -0.02    0.14
 -18  12   4    0.07    0.33
 -12  -4  18    0.04    0.18
 -12  -4  18    0.26    0.35
 -18 -12   4   -0.39    0.36
   4  18  12    0.07    0.27
  18 -12  -4    0.12    0.13
  12   4  18    0.17    0.12
  18  12   4    0.02    0.13
  12   4  18   -0.04    0.36
  -4 -18  12    0.04    0.19
  14  -4  18    1.21    0.25
  -4  18  14    1.77    0.44
   4 -18  14    1.12    0.38
  18 -14   4    1.20    0.26
  18  14  -4    1.02    0.25
  14  -4  18    1.27    0.44
 -14   4  18    1.01    0.46
  -4 -18  14    1.32    0.36
  18 -14  -4    1.30    0.24
 -14  -4  18    0.86    0.49
  14   4  18    1.12    0.22
  14   4  18    2.15    0.55
 -18 -14   4    1.68    0.57
   4  18  14    1.47    0.44
  18  14   4    0.98    0.25
 -18 -16  -4    0.09    0.29
  18 -16   4    0.25    0.20
 -16   4  18   -0.33    0.37
  16  -4  18    0.15    0.32
   4 -18  16   -0.05    0.27
  16   4 -18    0.14    0.19
  16  -4  18    0.10    0.16
  18  16  -4    0.09    0.20
  -4  18  16    0.10    0.35
 -16  -4  18    0.38    0.46
  16   4  18    0.03    0.13
  18 -16  -4    0.17    0.16
 -18 -16   4    0.27    0.48
   4  18  16    0.43    0.37
  18  16   4   -0.22    0.18
  -4 -18  16    0.01    0.22
  16   4  18   -0.23    0.35
  18   0   6    3.70    0.47
  -6 -18   0    3.62    0.51
   0  -6  18    2.84    0.61
  18   0  -6    3.60    0.45
   0   6  18    3.30    0.61
 -18   0   6    3.81    0.60
   2  -6  18    5.79    0.65
  18  -2   6    6.31    0.60
  18   2  -6    6.19    0.58
 -18   2   6    5.61    0.81
  -6 -18  -2    5.71    0.61
   6 -18   2    7.48    0.73
  -2   6  18    7.25    0.87
   2  -6  18    6.27    0.83
  -2  -6  18    5.91    0.71
   6 -18  -2    6.35    0.63
 -18  -2   6    6.48    0.82
  18  -2  -6    6.71    0.59
  -2  -6  18    4.28    0.76
   2   6  18    7.02    0.89
  -6 -18   2    7.26    0.72
  18   2   6    6.24    0.59
 -18   2  -6    6.65    0.73
   6  18   2    5.88    0.56
  -4   6  18    0.86    0.37
   4  -6  18    0.51    0.19
   6 -18   4    0.33    0.20
   4  -6  18    0.80    0.38
  -6 -18  -4    0.45    0.17
  18  -4   6    0.49    0.16
  18   4  -6    0.44    0.16
 -18   4   6    0.62    0.35
  -4  -6  18    0.37    0.23
  18  -4  -6    0.49    0.15
  -4  -6  18    0.18    0.37
   6  18   4    0.58    0.23
 -18   4  -6    0.89    0.32
  18   4   6    0.48    0.30
  18   4   6    0.65    0.16
  -6 -18   4    0.48    0.21
 -18  -4   6    0.97    0.42
   4   6  18    1.06    0.43
   6 -18  -4    0.57    0.15
 -18   6   6    7.32    0.84
  -6 -18  -6    6.59    0.59
  18   6  -6    6.10    0.61
   6  -6  18    6.29    0.64
  -6   6  18    5.26    0.75
   6 -18   6    4.87    0.67
   6  -6  18    6.21    0.77
  18  -6   6    5.51    0.59
 -18  -6   6    5.57    0.84
  -6  -6  18    5.74    0.74
  -6 -18   6    5.51    0.70
  18  -6  -6    6.68    0.57
 -18   6  -6    6.49    0.68
  -6  -6  18    6.04    0.83
  18   6   6    7.00    0.61
   6   6  18    6.90    0.90
   6  18   6    5.73    0.60
  18   6   6    6.43    0.78
   8  -6  18    0.26    0.27
   6 -18   8    0.01    0.20
  -8   6  18   -0.11    0.29
  18   8  -6   -0.06    0.15
 -18   8   6   -0.22    0.35
   8  -6  18    0.28    0.16
  18  -8   6    0.17    0.14
  -6 -18   8    0.17    0.20
  -8  -6  18   -0.27    0.29
  -8  -6  18    0.14    0.20
 -18   8  -6    0.20    0.25
  18  -8  -6    0.11    0.13
  18   8   6    0.26    0.29
   8   6  18    0.22    0.36
   6  18   8    0.16    0.21
 -18  -8   6    0.12    0.38
  18   8   6    0.15    0.13
 -18  10   6    4.73    0.75
  18 -10   6    6.89    0.66
  18  10  -6    6.19    0.66
 -10   6  18    5.02    0.72
  10  -6  18    5.99    0.63
  10  -6  18    5.82    0.75
  -6  18  10    5.68    0.66
   6 -18  10    7.06    0.86
 -10  -6  18    6.14    0.86
  18  10   6    5.43    0.57
  18  10   6    5.35    0.73
  -6 -18  10    7.45    0.86
  18 -10  -6    5.84    0.57
 -18 -10   6    6.04    0.89
 -18  10  -6    6.43    0.65
  10   6  18    6.14    0.87
 -10  -6  18    7.56    0.80
   6  18  10    6.59    0.70
  -6  18  12   -0.09    0.25
  18  12  -6   -0.03    0.17
   6 -18  12   -0.21    0.18
  12  -6  18    0.06    0.23
  12  -6  18    0.06    0.16
 -12   6  18   -0.28    0.29
 -18  12   6   -0.65    0.34
  18 -12   6   -0.05    0.12
  18 -12  -6   -0.16    0.11
 -18 -12   6   -0.56    0.39
   6  18  12   -0.11    0.23
  -6 -18  12   -0.14    0.18
 -12  -6  18   -0.18    0.31
  18  12   6   -0.10    0.13
  18  12   6   -0.13    0.29
 -12  -6  18   -0.26    0.18
  12   6  18    0.05    0.31
   6 -18  14    2.51    0.50
  18  14  -6    4.41    0.60
 -18  14   6    4.50    0.66
 -14   6  18    4.12    0.68
  -6  18  14    4.66    0.67
  14  -6  18    3.79    0.59
  14   6  18    4.77    0.76
 -14  -6  18    5.01    0.67
 -18 -14   6    3.52    0.78
 -14  -6  18    3.27    0.72
   6  18  14    4.03    0.63
  18  14   6    4.64    0.70
  18  14   6    4.51    0.55
  18 -14  -6    4.51    0.52
  16  -6  18    0.10    0.30
   6 -18  16   -0.27    0.26
  18  16  -6   -0.12    0.23
  -6  18  16    0.11    0.34
  18 -16   6    0.20    0.21
  16  -6  18   -0.03    0.17
 -16   6  18   -0.08    0.35
   6  18  16    0.10    0.34
 -16  -6  18    0.13    0.47
  16   6  18   -0.21    0.37
 -18 -16   6    0.19    0.49
  -6 -18  16   -0.05    0.27
  18  16   6   -0.20    0.33
  18  16   6   -0.18    0.17
  18   0   8    0.03    0.10
  -8 -18   0    0.14    0.14
   0   8  18    0.07    0.28
   0  -8  18   -0.03    0.29
 -18   0   8    0.04    0.35
  18   0  -8    0.10    0.12
  18   0   8    0.02    0.20
   8 -18   0    0.13    0.14
  -8 -18   0    0.29    0.25
   0  -8  18    0.10    0.17
   8 -18   2    0.16    0.15
  18   2  -8    0.29    0.13
  18  -2   8    0.38    0.15
  -2   8  18    0.06    0.33
  -8 -18  -2    0.23    0.15
   2  -8  18    0.22    0.20
 -18   2   8   -0.08    0.34
   2  -8  18    0.34    0.32
  18  -2   8    0.27    0.24
  -8 -18   2    0.29    0.18
   8  18   2    0.28    0.20
   2   8  18    0.05    0.30
  18  -2  -8    0.24    0.12
  -2  -8  18    0.26    0.35
  18   2   8    0.18    0.25
  18   2   8    0.10    0.12
   8 -18  -2    0.34    0.15
 -18  -2   8    0.12    0.38
  -2  -8  18    0.06    0.22
   8 -18   4    0.02    0.16
 -18   4   8   -0.27    0.35
  -8 -18  -4    0.08    0.13
  18  -4   8   -0.06    0.11
   4  -8  18    0.35    0.30
  -4   8  18   -0.22    0.30
   4  -8  18    0.09    0.16
  18   4  -8   -0.05    0.12
   8  18   4    0.04    0.18
  18   4   8   -0.14    0.23
   8 -18  -4   -0.03    0.09
 -18  -4   8    0.24    0.39
  18  -4  -8    0.03    0.11
   4   8  18    0.19    0.37
  -4  -8  18   -0.08    0.18
  18   4   8   -0.02    0.10
  -4  -8  18    0.12    0.33
  -8 -18   4    0.23    0.18
   6  -8  18    0.21    0.28
  -6   8  18    0.04    0.32
  18   6  -8   -0.06    0.16
  18  -6   8    0.03    0.14
   8 -18   6    0.36    0.21
   6  -8  18    0.05    0.15
 -18   6   8    0.09    0.39
  18   6   8    0.36    0.28
 -18  -6   8   -0.09    0.40
  -6  -8  18    0.03    0.28
  18  -6  -8    0.05    0.11
   8  18   6    0.25    0.23
   6   8  18    0.12    0.39
  -6  -8  18    0.16    0.22
 -18   6  -8    0.40    0.28
  -8 -18   6    0.19    0.20
  18   6   8    0.14    0.13
  18  -8   8    0.02    0.11
   8  -8  18    0.28    0.18
 -18   8   8    0.00    0.32
  -8   8  18   -0.18    0.26
  18   8  -8    0.03    0.16
   8  -8  18    0.09    0.24
   8 -18   8   -0.13    0.19
   8   8  18   -0.31    0.25
 -18  -8   8    0.47    0.50
   8  18   8   -0.08    0.20
  -8 -18   8    0.14    0.19
  -8  -8  18    0.28    0.33
  -8  -8  18    0.07    0.19
  18   8   8    0.11    0.25
  18   8   8   -0.07    0.10
  18  -8  -8    0.06    0.10
 -18   8  -8    0.15    0.24
  18 -10   8    1.26    0.26
   8 -18  10    1.63    0.36
 -18  10   8    2.41    0.53
  10  -8  18    1.60    0.42
  10  -8  18    1.44    0.28
 -10   8  18    2.49    0.52
  18  10  -8    1.46    0.29
 -10  -8  18    1.66    0.54
 -18 -10   8    2.06    0.60
 -10  -8  18    1.60    0.34
 -18  10  -8    2.42    0.41
  18  10   8    1.55    0.25
   8  18  10    2.33    0.42
  10   8  18    2.07    0.58
  -8 -18  10    1.39    0.36
  18  10   8    2.91    0.53
  18 -12   8    0.06    0.16
  12  -8  18   -0.03    0.15
   8 -18  12   -0.24    0.21
  -8  18  12   -0.08    0.28
  12  -8  18    0.03    0.28
  18  12  -8    0.04    0.17
 -18  12   8    0.31    0.35
 -12   8  18    0.18    0.30
  18  12   8    0.23    0.15
 -12  -8  18    0.12    0.21
 -18 -12   8    0.16    0.51
  18  12   8   -0.01    0.27
   8  18  12    0.08    0.27
 -12  -8  18    0.08    0.39
  18 -12  -8    0.14    0.13
  -8 -18  12    0.43    0.26
  12   8  18    0.00    0.38
  -8  18  14   -0.03    0.30
  18 -14   8   -0.26    0.16
  18  14  -8   -0.22    0.21
   8 -18  14   -0.15    0.25
 -14   8  18   -0.29    0.34
 -18  14   8    0.21    0.34
  14  -8  18   -0.55    0.25
  14  -8  18   -0.02    0.17
  18  14   8   -0.03    0.31
 -18 -14   8    0.02    0.50
   8  18  14    0.02    0.31
  18  14   8   -0.04    0.14
  14   8  18   -0.44    0.35
 -14  -8  18   -0.11    0.19
 -14  -8  18   -0.82    0.41
  -8 -18  14    0.07    0.27
  18  16  -8    0.10    0.23
 -16   8  18    0.08    0.33
   8 -18  16   -0.14    0.28
  18 -16   8    0.18    0.23
  16  -8  18    0.04    0.19
  -8  18  16    0.16    0.31
 -16  -8  18   -0.10    0.42
  16   8  18   -0.23    0.36
  18  16   8   -0.13    0.33
 -16  -8  18    0.46    0.25
  -8 -18  16    0.15    0.27
   8  18  16    0.05    0.36
  18  16   8    0.15    0.17
 -18 -16   8   -0.39    0.42
 -10 -18   0    1.86    0.40
  18   0  10    0.99    0.22
   0  10  18    1.84    0.51
  18   0 -10    1.08    0.21
 -18   0  10    1.39    0.52
   0 -10  18    1.29    0.42
  10 -18   0    0.95    0.24
   0 -10  18    0.51    0.27
  18   0  10    1.87    0.43
  18  -2  10    6.65    0.76
  10 -18   2    6.09    0.69
   2 -10  18    7.31    0.84
  -2  10  18    7.75    0.90
   2 -10  18    8.13    0.88
  18  -2  10    6.75    0.66
  18   2 -10    7.79    0.69
 -18   2  10    7.41    0.96
  10  18   2    7.14    0.69
   2  10  18    7.93    0.95
 -10 -18   2    9.62    0.83
  10 -18  -2    8.65    0.71
 -10 -18   2    6.77    0.74
  -2 -10  18    7.31    0.89
  18  -2 -10    7.32    0.65
  18   2  10    8.16    0.88
 -18  -2  10    5.73    0.91
  18   2  10    7.72    0.66
  -2 -10  18    6.76    0.87
  18  -4  10   -0.09    0.13
   4 -10  18   -0.42    0.27
  -4  10  18   -0.60    0.28
 -18   4  10   -0.02    0.38
  10 -18   4   -0.19    0.16
  18   4 -10   -0.22    0.13
   4 -10  18    0.06    0.18
  18  -4  10   -0.14    0.19
 -18  -4  10   -0.32    0.42
  18  -4 -10   -0.05    0.11
  10 -18  -4    0.01    0.12
  -4 -10  18   -0.11    0.37
  -4 -10  18   -0.06    0.24
  10  18   4    0.02    0.15
  18   4  10    0.05    0.30
   4  10  18   -0.09    0.36
  18   4  10    0.03    0.11
 -10 -18   4   -0.04    0.16
  10  18   4    0.05    0.21
  18  -6  10    5.83    0.66
  -6  10  18    7.01    0.83
   6 -10  18    6.56    0.74
  18   6 -10    5.59    0.67
 -18   6  10    6.15    0.85
  18  -6  10    6.94    0.66
  10 -18   6    7.06    0.77
  10  18   6    6.44    0.62
 -18  -6  10    6.74    1.02
  -6 -10  18    6.72    0.85
  10  18   6    6.47    0.66
  18   6  10    5.06    0.74
 -10 -18   6    6.11    0.74
  -6 -10  18    7.06    0.88
  18  -6 -10    6.22    0.57
  18   6  10    5.59    0.57
   6  10  18    5.47    0.83
 -18   8  10    1.71    0.51
   8 -10  18    1.79    0.33
  10 -18   8    1.51    0.36
  18   8 -10    1.32    0.29
  18  -8  10    1.40    0.27
  -8  10  18    1.66    0.46
  -8 -10  18    1.93    0.50
  -8 -10  18    1.63    0.38
 -18  -8  10    2.42    0.67
  10  18   8    1.92    0.40
  18   8  10    1.43    0.23
   8  10  18    2.60    0.58
 -10 -18   8    1.80    0.36
  18   8  10    2.00    0.51
  18  -8 -10    2.89    0.37
  10 -10  18    4.53    0.63
 -10  10  18    4.77    0.66
  18  10 -10    5.00    0.63
 -18  10  10    6.35    0.78
  10 -18  10    2.70    0.48
  18 -10  10    4.10    0.59
  18  10  10    4.57    0.69
 -10 -18  10    2.88    0.47
  10  10  18    5.98    0.84
  10  18  10    5.02    0.62
 -18 -10  10    3.46    0.78
 -10 -10  18    3.14    0.48
 -10 -10  18    2.84    0.64
  18  10  10    4.96    0.53
 -12  10  18    0.86    0.40
  10 -18  12    0.07    0.30
  18 -12  10    0.21    0.19
  12 -10  18    0.62    0.25
 -18  12  10    0.92    0.42
 -10  18  12    0.09    0.31
  18  12 -10    0.13    0.23
 -12 -10  18    0.26    0.42
 -10 -18  12    0.71    0.29
  10  18  12    0.78    0.36
  18  12  10    0.44    0.17
  12  10  18    0.87    0.43
  18  12  10   -0.28    0.37
 -18 -12  10    0.33    0.58
 -12 -10  18    0.24    0.26
  18 -14  10    1.80    0.36
  10 -18  14    1.94    0.46
  18  14 -10    1.51    0.38
 -14  10  18    2.77    0.57
  14 -10  18    1.42    0.34
 -10  18  14    2.17    0.47
 -18  14  10    2.54    0.51
 -18 -14  10    2.58    0.74
  10  18  14    3.42    0.55
 -14 -10  18    1.77    0.39
 -14 -10  18    2.32    0.65
  18  14  10    2.29    0.53
 -10 -18  14    1.58    0.43
  14  10  18    2.50    0.60
  18  16 -10    0.22    0.25
 -16  10  18    0.46    0.38
  10 -18  16   -0.27    0.27
  16 -10  18    0.13    0.23
 -10  18  16   -0.31    0.31
  18 -16  10    0.16    0.23
 -16 -10  18    0.58    0.27
  18  16  10   -0.01    0.40
  18  16  10    0.18    0.17
  10  18  16    0.37    0.39
 -18 -16  10    0.10    0.54
 -16 -10  18    0.27    0.51
 -10 -18  16   -0.17    0.23
  16  10  18    0.47    0.45
  12  18   0    0.05    0.16
   0 -12  18    0.00    0.20
 -18   0  12    0.52    0.43
 -12 -18   0    0.18    0.28
  18   0  12    0.10    0.13
  12 -18   0   -0.04    0.12
  18   0 -12    0.15    0.13
   0  12  18    0.05    0.36
  18   0  12    0.24    0.30
   2 -12  18    1.03    0.34
  18  -2  12    1.11    0.24
  18  -2  12    1.37    0.40
  -2  12  18    1.91    0.50
  12 -18   2    1.08    0.25
  18   2 -12    0.61    0.22
 -18   2  12    1.43    0.53
 -18  -2  12    1.20    0.57
   2  12  18    1.42    0.49
  12 -18  -2    1.30    0.24
  18   2  12    1.16    0.21
  18   2  12    2.14    0.47
  18  -2 -12    0.98    0.20
  12  18   2    0.92    0.22
 -12 -18   2    1.85    0.44
  -2 -12  18    1.00    0.35
 -18   4  12    0.39    0.41
  18  -4  12    0.16    0.15
  18   4 -12   -0.06    0.15
  12 -18   4    0.19    0.19
  -4  12  18    0.01    0.29
   4 -12  18    0.04    0.20
  18  -4  12    0.09    0.24
  12  18   4   -0.12    0.15
   4  12  18   -0.04    0.33
  -4 -12  18    0.45    0.40
  12 -18  -4   -0.04    0.13
  12  18   4    0.11    0.25
 -12 -18   4    0.10    0.34
  18   4  12    0.05    0.27
 -18  -4  12   -0.15    0.41
  18   4  12   -0.03    0.12
  18  -4 -12    0.13    0.12
  -4 -12  18    0.28    0.25
  18  -6  12   -0.06    0.17
  18   6 -12    0.07    0.17
  18  -6  12   -0.07    0.12
   6 -12  18    0.12    0.22
 -18   6  12   -0.35    0.36
  -6  12  18   -0.20    0.28
  12 -18   6   -0.05    0.19
   6  12  18   -0.26    0.32
  12  18   6   -0.15    0.14
  12  18   6   -0.18    0.21
  -6 -12  18   -0.01    0.18
 -18  -6  12   -0.37    0.46
 -12 -18   6   -0.33    0.19
  -6 -12  18   -0.48    0.33
  18   6  12    0.08    0.14
  18  -6 -12    0.02    0.12
  18   6  12   -0.03    0.30
  18  -8  12   -0.06    0.13
  12 -18   8   -0.11    0.21
   8 -12  18    0.03    0.20
  18   8 -12    0.08    0.18
  -8  12  18    0.26    0.29
  18  -8  12   -0.03    0.22
 -18   8  12    0.22    0.34
   8  12  18   -0.25    0.37
  18   8  12    0.19    0.33
  18   8  12    0.09    0.14
  -8 -12  18    0.17    0.24
 -18  -8  12   -0.13    0.45
  12  18   8   -0.05    0.14
 -12 -18   8    0.04    0.20
  -8 -12  18    0.21    0.35
  12  18   8    0.19    0.27
 -18  10  12    0.64    0.42
 -10  12  18    0.90    0.37
  10 -12  18    0.45    0.26
  18 -10  12    0.39    0.23
  12 -18  10    0.32    0.27
  18  10 -12    0.43    0.25
 -18 -10  12    0.41    0.59
 -10 -12  18    0.34    0.47
 -12 -18  10    0.23    0.25
 -10 -12  18    0.32    0.28
  10  12  18    0.02    0.42
  18  10  12    0.66    0.38
  18  10  12    0.56    0.18
  12  18  10    0.74    0.35
 -18  12  12   -0.02    0.34
  18 -12  12    0.18    0.19
  18  12 -12   -0.07    0.22
 -12  12  18   -0.05    0.33
  12 -18  12   -0.15    0.23
  12 -12  18    0.13    0.20
  18  12  12    0.23    0.34
 -12 -12  18    0.23    0.41
 -18 -12  12    0.04    0.51
  18  12  12    0.13    0.14
 -12 -18  12   -0.11    0.20
 -12 -12  18    0.32    0.26
  12  18  12    0.17    0.31
  12  12  18   -0.12    0.35
  18 -14  12    0.59    0.28
 -18  14  12    0.86    0.42
 -14  12  18    0.59    0.38
  14 -12  18    0.18    0.24
  18  14 -12    0.44    0.29
  12 -18  14    0.53    0.32
 -12  18  14    0.93    0.36
  18  14  12    0.97    0.42
 -12 -18  14    0.28    0.31
 -14 -12  18    0.40    0.29
 -14 -12  18    0.38    0.52
  12  18  14    1.01    0.43
 -18 -14  12    1.20    0.64
  14  12  18    1.08    0.53
  12 -18  16   -0.07    0.29
  16 -12  18    0.00    0.21
 -16  12  18    0.45    0.36
 -12  18  16    0.06    0.30
 -18  16  12    0.19    0.33
  18 -16  12    0.31    0.26
  12  18  16    0.26    0.36
 -16 -12  18    0.22    0.25
  16  12  18   -0.11    0.37
  18  16  12    0.16    0.36
 -16 -12  18   -0.28    0.49
 -18 -16  12    0.33    0.59
 -12 -18  16    0.02    0.24
 -14 -18   0    0.77    0.41
  14 -18   0    0.50    0.21
  18   0  14    0.43    0.38
 -18   0  14    0.67    0.45
  14  18   0    0.57    0.23
   0 -14  18    0.63    0.31
   0  14  18    1.48    0.48
  18   0 -14    0.38    0.18
  18   0  14    0.52    0.18
  18  -2  14    6.81    0.79
 -14 -18  -2    6.84    0.80
  14 -18   2    6.51    0.72
  -2  14  18    5.53    0.78
 -18   2  14    4.49    0.76
  18  -2  14    6.06    0.64
  18   2 -14    4.74    0.62
  18   2  14    5.25    0.78
  18   2  14    5.64    0.60
 -18  -2  14    6.75    1.02
  14  18   2    6.06    0.67
 -14 -18   2    7.34    0.84
   2  14  18    6.19    0.83
  14 -18  -2    5.16    0.60
  18  -2 -14    5.22    0.57
  14 -18   4    0.83    0.29
  18  -4  14    1.07    0.24
  18   4 -14    0.88    0.25
 -18   4  14    1.20    0.50
   4 -14  18    1.33    0.38
  14  18  -4    0.91    0.26
  18  -4  14    1.43    0.41
  -4  14  18    1.21    0.42
  18   4  14    1.12    0.23
  14 -18  -4    1.38    0.25
  -4 -14  18    0.57    0.32
  18   4  14    1.92    0.50
  14  18   4    1.80    0.41
 -14 -18   4    1.61    0.50
  18  -4 -14    1.24    0.22
 -18  -4  14    1.46    0.59
  14  18   4    0.80    0.24
   4  14  18    1.36    0.47
 -18   6  14    4.72    0.75
  18   6 -14    4.49    0.62
  -6  14  18    5.43    0.74
   6 -14  18    2.57    0.48
  18  -6  14    4.32    0.61
  18   6  14    4.56    0.72
  -6 -14  18    2.63    0.51
  18   6  14    4.55    0.52
   6  14  18    5.23    0.77
 -18  -6  14    3.21    0.76
 -14 -18   6    3.65    0.71
  14  18   6    4.25    0.57
  14  18   6    4.19    0.60
  -8  14  18   -0.23    0.26
  14 -18   8   -0.28    0.20
  18   8 -14   -0.07    0.19
   8 -14  18   -0.25    0.22
  18  -8  14   -0.10    0.15
  18   8  14   -0.44    0.35
 -14 -18   8    0.25    0.25
 -18  -8  14   -0.17    0.54
   8  14  18   -0.09    0.35
  -8 -14  18   -0.03    0.23
  14  18   8   -0.19    0.25
  18   8  14   -0.01    0.12
  14  18   8   -0.19    0.16
  18  10 -14    1.45    0.35
 -18  10  14    2.00    0.57
  18 -10  14    1.62    0.35
 -10  14  18    2.68    0.54
  14 -18  10    2.09    0.42
  10 -14  18    2.28    0.43
 -14 -18  10    1.72    0.39
  14  18  10    3.10    0.53
 -10 -14  18    1.23    0.39
 -18 -10  14    2.24    0.76
  18  10  14    2.72    0.58
  10  14  18    3.32    0.64
  12 -14  18    0.60    0.30
  14 -18  12    0.20    0.28
 -18  12  14    0.58    0.44
  18  12 -14    0.16    0.24
 -12  14  18    0.61    0.40
  18 -12  14    0.46    0.27
 -14 -18  12    0.65    0.33
  18  12  14    0.84    0.48
  12  14  18    1.11    0.47
  14  18  12    0.92    0.42
 -18 -12  14    0.06    0.67
 -12 -14  18    0.42    0.33
 -14  14  18    3.79    0.60
  14 -14  18    1.91    0.43
  18 -14  14    1.55    0.40
  14 -18  14    2.44    0.48
 -14 -18  14    2.00    0.46
  14  14  18    4.35    0.74
  18  14  14    4.04    0.68
 -14 -14  18    1.92    0.46
 -18 -14  14    2.09    0.78
 -14 -14  18    4.04    0.77
  14  18  14    3.56    0.63
  16 -14  18   -0.27    0.19
  14 -18  16   -0.51    0.22
  18 -16  14   -0.24    0.22
 -14  18  16    0.14    0.34
 -18  16  14   -0.27    0.30
 -16  14  18   -0.07    0.34
 -18 -16  14   -0.28    0.24
  16  14  18    0.91    0.48
 -16 -14  18   -0.24    0.27
 -18 -16  14   -0.69    0.51
  14  18  16    0.01    0.36
 -14 -18  16   -0.01    0.25
 -16 -14  18   -0.06    0.52
  18  16  14   -0.55    0.35
  16 -18   0    0.07    0.17
  18   0 -16    0.00    0.16
  18   0  16   -0.18    0.30
  18   0  16    0.31    0.17
 -18   0  16    0.18    0.45
   0  16  18    0.07    0.39
   0 -16  18   -0.21    0.24
 -16 -18   0    0.31    0.39
  16  18   0    0.10    0.18
  18  -2  16    0.18    0.18
 -18   2  16   -0.27    0.44
  18   2 -16    0.10    0.16
  16  18  -2    0.25    0.20
  -2  16  18    0.52    0.41
  18  -2  16    0.33    0.34
 -16 -18  -2    0.41    0.38
   2 -16  18    0.07    0.29
  16 -18   2    0.32    0.21
  16  18   2    0.11    0.20
  18   2  16    0.16    0.16
  16 -18  -2    0.24    0.19
 -16 -18   2    0.46    0.44
   2  16  18    0.58    0.43
  -2 -16  18   -0.13    0.27
 -18  -2  16   -0.02    0.45
  18   2  16    0.53    0.41
  18  -4  16    0.01    0.29
  16  18  -4    0.15    0.20
  16 -18   4    0.20    0.20
  18   4 -16    0.10    0.18
  18  -4  16    0.16    0.18
   4 -16  18   -0.13    0.24
  -4  16  18    0.26    0.35
 -18   4  16   -0.39    0.42
  18   4  16   -0.03    0.37
  18   4  16    0.18    0.14
  16  18   4    0.06    0.19
  -4 -16  18    0.09    0.26
 -16 -18   4   -0.14    0.40
   4  16  18    0.03    0.38
  16 -18  -4    0.00    0.13
 -18  -4  16    0.09    0.44
  -6  16  18   -0.20    0.30
  16  18  -6   -0.04    0.21
   6 -16  18   -0.09    0.25
 -18   6  16    0.03    0.40
  18  -6  16    0.05    0.28
  18  -6  16    0.02    0.17
  18   6 -16   -0.02    0.19
  16 -18   6    0.11    0.20
   6  16  18   -0.50    0.35
  18   6  16   -0.10    0.36
  -6 -16  18   -0.16    0.24
 -18  -6  16   -0.21    0.44
  16  18   6    0.05    0.17
 -16 -18   6   -0.41    0.46
  16  18   6    0.00    0.28
  18   6  16    0.04    0.14
   8 -16  18    0.15    0.30
  -8  16  18    0.16    0.34
 -18   8  16   -0.15    0.33
  18  -8  16    0.37    0.21
  18   8 -16   -0.02    0.22
  16 -18   8    0.03    0.22
  16  18   8   -0.01    0.16
  -8 -16  18    0.08    0.26
  18   8  16    0.25    0.15
  16  18   8    0.70    0.35
  18   8  16   -0.11    0.39
 -18  -8  16    0.56    0.54
   8  16  18   -0.05    0.41
  18 -10  16    0.04    0.21
  18  10 -16    0.12    0.22
  10 -16  18    0.30    0.29
  16 -18  10    0.27    0.27
 -10  16  18    0.20    0.34
 -18  10  16    0.23    0.38
 -16 -18  10    0.17    0.27
  18  10  16    0.14    0.41
 -18 -10  16   -0.11    0.53
  10  16  18   -0.10    0.44
  16  18  10    0.01    0.33
 -10 -16  18    0.22    0.28
 -18  12  16    0.28    0.36
  18 -12  16   -0.09    0.18
  12 -16  18    0.26    0.27
 -12  16  18    0.48    0.37
  16 -18  12    0.06    0.26
  12  16  18   -0.04    0.38
 -18 -12  16    0.48    0.60
 -12 -16  18    0.06    0.24
  16  18  12    0.09    0.34
  18  12  16    0.25    0.42
 -16 -18  12   -0.05    0.23
 -18  14  16    0.55    0.36
  18 -14  16   -0.26    0.22
  14 -16  18   -0.23    0.22
  16 -18  14   -0.08    0.25
 -14  16  18    0.22    0.35
  18  14  16   -0.13    0.37
  14  16  18   -0.07    0.42
 -18 -14  16    0.23    0.28
  16  18  14   -0.21    0.33
 -16 -18  14   -0.21    0.24
 -14 -16  18   -0.05    0.28
 -18 -14  16   -0.68    0.55
  16 -16  18   -0.16    0.26
 -18  16  16    0.96    0.41
  16 -18  16    0.10    0.28
  18 -16  16    0.34    0.30
 -16  16  18    0.64    0.41
 -16 -18  16    0.22    0.31
 -18 -16  16   -0.09    0.33
  16  16  18   -0.36    0.40
  16  18  16    0.37    0.41
 -16 -16  18    0.25    0.27
  18  16  16   -0.01    0.45
 -18 -18   0    0.16    0.41
 -18   0  18   -0.50    0.42
   0 -18  18   -0.11    0.28
   0  18  18   -0.23    0.36
  18 -18   0   -0.31    0.16
  18   0  18   -0.01    0.38
  18   0  18   -0.23    0.14
  18  18   0    0.18    0.21
 -18 -18  -2    4.67    0.73
  18   2 -18    4.52    0.63
  18  -2  18    3.88    0.66
 -18   2  18    4.11    0.77
  18  18  -2    2.52    0.42
  -2  18  18    4.31    0.72
   2 -18  18    2.86    0.54
  18  -2  18    4.20    0.57
  18 -18   2    2.76    0.43
  18 -18  -2    5.20    0.62
 -18  -2  18    2.39    0.79
   2  18  18    4.99    0.74
 -18 -18   2    4.72    0.78
  18   2  18    4.20    0.72
  18   2  18    4.50    0.54
  -2 -18  18    2.61    0.53
 -18 -18  -4   -0.13    0.40
  18  -4  18   -0.43    0.30
  18  -4  18   -0.18    0.13
 -18   4  18   -0.70    0.41
  18 -18   4   -0.44    0.17
  -4  18  18   -0.21    0.34
   4 -18  18   -0.20    0.25
  18   4 -18    0.10    0.19
  18  18  -4   -0.32    0.18
 -18 -18   4   -0.72    0.39
  -4 -18  18   -0.45    0.22
   4  18  18   -0.17    0.38
  18   4  18   -0.77    0.32
  18   4  18   -0.14    0.14
 -18  -4  18   -1.06    0.47
  18  18   4   -0.15    0.18
  18  -6  18    3.58    0.59
  18  18  -6    1.68    0.39
 -18   6  18    3.15    0.66
  18  -6  18    1.91    0.35
  -6  18  18    3.65    0.62
   6 -18  18    2.04    0.50
  18   6 -18    1.80    0.37
  18 -18   6    1.92    0.41
 -18 -18   6    2.87    0.72
  -6 -18  18    1.75    0.46
   6  18  18    3.35    0.65
  18   6  18    2.60    0.63
 -18  -6  18    3.60    0.81
  18  18   6    1.97    0.35
  18  -8  18   -0.02    0.19
  18 -18   8   -0.17    0.22
 -18   8  18   -0.29    0.36
  18  18  -8   -0.06    0.23
  -8  18  18   -0.01    0.35
   8 -18  18   -0.13    0.26
  -8 -18  18   -0.23    0.25
 -18  -8  18   -0.27    0.45
 -18 -18   8   -0.77    0.49
  18   8  18   -0.34    0.39
   8  18  18   -0.25    0.39
  18  18   8    0.31    0.36
  18  18   8   -0.29    0.17
  18 -18  10    1.52    0.40
  10 -18  18    1.49    0.46
  18 -10  18    1.35    0.35
 -10 -18  18    1.76    0.48
 -18 -10  18    1.39    0.72
  10  18  18    3.59    0.64
  18  18  10    3.07    0.58
  18 -18  12   -0.32    0.24
  18 -12  18   -0.35    0.19
  12 -18  18   -0.23    0.24
 -18  12  18   -0.34    0.34
 -12  18  18   -0.05    0.37
 -12 -18  18   -0.31    0.31
 -18 -12  18   -0.24    0.22
  12  18  18    0.11    0.41
 -18 -18  12   -0.01    0.22
 -18 -12  18   -0.60    0.55
  18  12  18   -0.31    0.35
  18  18  12    0.06    0.36
  18 -18  14    1.35    0.45
  18 -14  18    1.48    0.42
  14 -18  18    1.55    0.46
 -14  18  18    3.21    0.57
 -14 -18  18    1.12    0.46
 -18 -14  18    1.51    0.43
  14  18  18    3.19    0.69
 -18 -18  14    2.32    0.50
 -18 -14  18    2.71    0.83
  18  14  18    3.59    0.72
  18  18  14    3.06    0.62
  18 -16  18   -0.16    0.29
  18 -18  16   -0.21    0.27
 -18  16  18    0.59    0.38
  16 -18  18   -0.01    0.28
 -16  18  18    0.40    0.38
 -16 -18  18   -0.42    0.30
  16  18  18    0.18    0.43
 -18 -16  18    0.32    0.33
 -18 -18  16    0.17    0.31
  18  16  18   -0.09    0.43
  18  18  16    0.09    0.41
  18 -18  18    1.34    0.46
 -18 -18  18    1.92    0.49
  18  18  18    3.55    0.71
 -19  -1  -1   -0.12    0.27
  19   1  -1   -0.03    0.09
   1 -19   1    0.01    0.15
 -19   1   1    0.05    0.29
  -1 -19  -1    0.11    0.16
   1  -1  19   -0.23    0.32
   1  -1  19    0.05    0.09
  19  -1   1   -0.01    0.09
  -1   1  19   -0.28    0.28
   1 -19  -1   -0.06    0.13
 -19   1  -1   -0.16    0.26
  -1 -19   1   -0.11    0.12
  -1  -1  19   -0.12    0.35
   1   1  19   -0.21    0.28
  19  -1  -1   -0.09    0.09
  -1  -1  19   -0.01    0.10
 -19  -1   1   -0.03    0.29
  19   1   1   -0.04    0.10
   3  -1  19    0.67    0.15
  -3   1  19    0.77    0.41
   1 -19   3    0.67    0.22
 -19  -3  -1    0.54    0.34
  19   3  -1    0.97    0.19
   3  -1  19    0.77    0.46
 -19   3   1    0.74    0.33
  19  -3   1    0.94    0.19
  -1 -19  -3    0.72    0.20
   3   1  19    0.51    0.38
 -19   3  -1    0.58    0.34
  -1 -19   3    0.58    0.23
   1 -19  -3    0.54    0.18
  19  -3  -1    0.59    0.16
  -3  -1  19    0.39    0.16
  19   3   1    0.57    0.17
 -19  -3   1    1.08    0.40
  -3  -1  19    0.53    0.40
 -19  -5  -1   -0.10    0.29
  -1 -19  -5    0.05    0.11
  -5   1  19   -0.31    0.28
  19  -5   1   -0.04    0.10
  19   5  -1   -0.09    0.10
   5  -1  19    0.01    0.09
   1 -19   5    0.19    0.20
   5  -1  19   -0.03    0.29
 -19   5   1   -0.16    0.27
  19   5   1   -0.04    0.10
 -19  -5   1   -0.16    0.27
 -19   5  -1   -0.05    0.26
  -1 -19   5    0.03    0.16
  -5  -1  19   -0.27    0.24
   5   1  19   -0.44    0.27
  -5  -1  19    0.02    0.13
   1 -19  -5   -0.02    0.12
   5   1  19   -0.07    0.08
  19  -5  -1   -0.01    0.10
  19  -7   1    0.46    0.16
   7  -1  19    0.20    0.13
  -7   1  19    0.29    0.37
  19   7  -1    0.11    0.15
 -19   7   1    0.57    0.36
   7  -1  19    0.52    0.39
 -19  -7  -1    0.64    0.41
   1 -19   7    0.23    0.23
  19   7   1    0.18    0.14
   7   1  19   -0.04    0.42
   7   1  19    0.27    0.13
  -1 -19   7    0.32    0.23
  19  -7  -1    0.48    0.16
 -19  -7   1    0.30    0.36
 -19   7  -1    0.56    0.32
  -7  -1  19    0.04    0.34
  19   9  -1   -0.14    0.12
  19  -9   1   -0.14    0.13
 -19  -9  -1   -0.43    0.28
  -1  19   9   -0.19    0.21
 -19   9   1   -0.45    0.29
  -9   1  19   -0.21    0.28
   9  -1  19   -0.04    0.12
   1 -19   9   -0.04    0.21
   9  -1  19   -0.18    0.26
  -9  -1  19   -0.51    0.32
   9   1  19   -0.22    0.31
  19   9   1   -0.23    0.12
   1  19   9   -0.17    0.18
  19  -9  -1   -0.05    0.11
 -19  -9   1    0.05    0.39
  -1 -19   9   -0.03    0.18
 -19   9  -1   -0.18    0.30
 -11   1  19    0.53    0.38
  -1  19  11    0.90    0.33
  19  11  -1    0.52    0.21
   1 -19  11    0.61    0.31
  11  -1  19    0.43    0.18
  19 -11   1    0.65    0.19
 -19  11   1    0.84    0.39
  11  -1  19    0.70    0.39
 -19 -11  -1    1.14    0.49
  11   1  19    1.43    0.51
  -1 -19  11    0.82    0.30
 -19  11  -1    0.97    0.39
 -19 -11   1    0.68    0.41
   1  19  11    0.81    0.33
 -11  -1  19    0.50    0.42
  19 -11  -1    0.57    0.19
  11   1  19    0.66    0.18
  13  -1  19   -0.52    0.30
  -1  19  13    0.04    0.33
  19  13  -1   -0.26    0.13
   1 -19  13   -0.06    0.24
 -13   1  19   -0.53    0.27
 -19 -13  -1   -0.33    0.37
  19 -13   1   -0.24    0.13
  13  -1  19   -0.08    0.12
  13   1  19   -0.24    0.11
  19 -13  -1   -0.26    0.12
  13   1  19   -0.50    0.24
  19  13   1   -0.04    0.16
   1  19  13   -0.17    0.26
  -1 -19  13    0.07    0.23
 -13  -1  19   -0.46    0.36
 -19 -13   1   -0.20    0.35
  -1  19  15    0.07    0.34
 -19 -15  -1   -0.07    0.37
  15  -1  19   -0.27    0.31
   1 -19  15   -0.05    0.24
  19  15  -1   -0.03    0.18
 -15   1  19   -0.17    0.32
  19 -15   1   -0.15    0.15
  15  -1  19   -0.21    0.12
 -19 -15   1   -0.02    0.43
  15   1  19   -0.18    0.35
   1  19  15   -0.08    0.29
 -15  -1  19   -0.19    0.39
  15   1  19   -0.04    0.13
  19 -15  -1    0.01    0.16
  -1 -19  15   -0.03    0.23
  19  15   1   -0.16    0.16
  -1  19  17   -0.22    0.36
 -17   1  19   -0.33    0.36
  17  -1  19   -0.28    0.32
 -19 -17  -1   -0.68    0.37
   1 -19  17   -0.55    0.24
  19 -17   1   -0.32    0.16
  17  -1  19   -0.21    0.13
  19  17  -1   -0.35    0.16
 -17  -1  19   -0.78    0.44
  -1 -19  17    0.08    0.31
  17   1  19   -0.18    0.35
   1  19  17   -0.44    0.33
 -19 -17   1   -0.76    0.34
  19 -17  -1   -0.18    0.15
  19  17   1   -0.24    0.14
   1  -3  19    0.58    0.41
  -1   3  19    0.88    0.41
   3 -19   1    0.65    0.22
  19  -1   3    0.37    0.16
  19   1  -3    0.66    0.17
  -3 -19  -1    0.61    0.20
   1  -3  19    0.50    0.15
 -19  -1  -3    1.31    0.38
 -19   1   3    0.94    0.40
   3 -19  -1    0.76    0.21
   1   3  19    0.89    0.41
 -19   1  -3    0.22    0.26
  -1  -3  19    0.96    0.45
  -1  -3  19    0.38    0.16
  19  -1  -3    0.54    0.16
  -3 -19   1    0.46    0.20
  19   1   3    0.55    0.17
 -19  -1   3    0.72    0.35
   3  -3  19    0.03    0.11
   3  -3  19   -0.24    0.27
  -3 -19  -3    0.12    0.14
  -3   3  19   -0.18    0.25
 -19   3   3   -0.04    0.27
  19  -3   3    0.01    0.10
 -19  -3  -3   -0.15    0.26
  19   3  -3   -0.03    0.09
   3 -19   3    0.06    0.16
  19   3   3    0.00    0.10
  -3 -19   3    0.04    0.14
 -19   3  -3   -0.39    0.21
   3   3  19   -0.35    0.26
  -3  -3  19    0.02    0.13
   3 -19  -3   -0.02    0.12
  19  -3  -3    0.03    0.10
  -3  -3  19   -0.37    0.32
 -19  -3   3    0.28    0.33
 -19  -5  -3   -0.04    0.27
   5  -3  19    0.15    0.13
  19   5  -3    0.06    0.13
   3 -19   5    0.12    0.19
  -5   3  19    0.14    0.29
  19  -5   3    0.08    0.13
   5  -3  19   -0.16    0.30
  -3 -19  -5    0.06    0.14
 -19   5   3    0.29    0.34
   5   3  19   -0.33    0.31
   3 -19  -5    0.07    0.13
  -5  -3  19    0.27    0.18
 -19   5  -3    0.13    0.26
  19  -5  -3    0.04    0.11
  -5  -3  19   -0.16    0.29
  19   5   3    0.04    0.12
  -3 -19   5    0.15    0.17
 -19  -5   3    0.19    0.33
   7  -3  19    0.01    0.31
 -19  -7  -3   -0.01    0.34
  19  -7   3   -0.02    0.12
 -19   7   3   -0.04    0.35
   3 -19   7    0.18    0.22
   7  -3  19    0.05    0.11
  19   7  -3   -0.30    0.13
  -7   3  19   -0.07    0.28
  -3 -19   7    0.09    0.20
  19   7   3    0.12    0.12
 -19   7  -3    0.16    0.27
  -7  -3  19    0.19    0.19
  19  -7  -3    0.01    0.11
 -19  -7   3    0.09    0.33
  -7  -3  19   -0.37    0.26
   7   3  19   -0.47    0.26
   3  19   7    0.15    0.20
   9  -3  19   -0.13    0.25
  19   9  -3   -0.05    0.11
 -19  -9  -3   -0.41    0.32
   9  -3  19   -0.19    0.12
  -9   3  19   -0.52    0.27
  19  -9   3   -0.14    0.11
 -19   9   3   -0.60    0.34
   3 -19   9   -0.06    0.18
  19   9   3   -0.10    0.13
  -3 -19   9    0.02    0.20
  19  -9  -3   -0.16    0.10
   3  19   9   -0.29    0.20
   9   3  19   -0.24    0.32
 -19   9  -3   -0.22    0.26
  -9  -3  19   -0.13    0.32
 -19  -9   3   -0.13    0.33
  -9  -3  19   -0.20    0.18
   3 -19  11   -0.09    0.17
  -3  19  11    0.02    0.26
 -19 -11  -3   -0.71    0.36
  19 -11   3   -0.05    0.13
 -11   3  19   -0.24    0.30
  11  -3  19    0.01    0.32
  19  11  -3   -0.07    0.15
  19  11   3   -0.23    0.12
  11   3  19   -0.46    0.29
  19 -11  -3   -0.06    0.12
 -19  11  -3   -0.40    0.28
  -3 -19  11   -0.06    0.19
 -19 -11   3   -0.06    0.41
   3  19  11    0.03    0.26
 -11  -3  19   -0.24    0.34
 -11  -3  19   -0.13    0.17
  -3  19  13   -0.29    0.27
   3 -19  13   -0.20    0.24
  13  -3  19   -0.22    0.11
  19  13  -3   -0.01    0.15
 -13   3  19   -0.69    0.29
  13  -3  19   -0.13    0.28
  19 -13   3   -0.24    0.13
  13   3  19   -0.34    0.35
  13   3  19   -0.18    0.10
 -19 -13   3   -0.54    0.39
  -3 -19  13    0.03    0.23
  19  13   3   -0.30    0.13
   3  19  13   -0.26    0.26
 -13  -3  19   -0.23    0.17
 -13  -3  19   -0.54    0.31
  15  -3  19   -0.08    0.13
  15  -3  19   -0.15    0.30
   3 -19  15   -0.16    0.24
 -15   3  19   -0.30    0.30
  19 -15   3   -0.01    0.15
  19  15  -3   -0.14    0.16
  -3  19  15    0.02    0.31
 -19 -15  -3   -0.37    0.33
  19  15   3   -0.07    0.16
 -19 -15   3   -0.10    0.42
 -15  -3  19    0.09    0.42
   3  19  15   -0.53    0.28
  19 -15  -3   -0.04    0.15
  -3 -19  15   -0.20    0.24
  15   3  19   -0.25    0.11
  15   3  19   -0.38    0.31
  -3  19  17   -0.42    0.32
   3 -19  17   -0.21    0.28
  19  17  -3   -0.14    0.18
 -19 -17  -3   -0.41    0.36
  19 -17   3   -0.16    0.19
  17  -3  19   -0.27    0.14
 -17   3  19   -0.35    0.37
  17  -3  19   -0.47    0.28
  17   3 -19   -0.38    0.19
  19  17   3   -0.34    0.16
 -17  -3  19   -0.68    0.38
  17   3  19   -0.32    0.12
  17   3  19   -0.49    0.37
  19 -17  -3   -0.41    0.16
   3  19  17   -0.41    0.34
  -3 -19  17   -0.29    0.25
 -19 -17   3   -0.63    0.38
   1  -5  19   -0.22    0.28
  19  -1   5   -0.01    0.11
 -19   1   5   -0.06    0.32
  19   1  -5   -0.08    0.10
   1  -5  19    0.00    0.13
   5 -19   1   -0.05    0.14
  -1   5  19   -0.33    0.27
 -19  -1  -5   -0.48    0.26
  -5 -19  -1   -0.07    0.12
  -5 -19   1   -0.05    0.12
  19  -1  -5   -0.01    0.10
   1   5  19    0.05    0.32
   5 -19  -1    0.00    0.12
  -1  -5  19    0.08    0.16
 -19   1  -5   -0.37    0.25
  -1  -5  19   -0.35    0.34
  19   1   5    0.06    0.11
 -19  -1   5    0.18    0.31
 -19  -3  -5   -0.02    0.33
 -19   3   5   -0.19    0.35
  19   3  -5   -0.03    0.11
   5 -19   3   -0.01    0.17
  -5 -19  -3    0.10    0.14
   3  -5  19   -0.08    0.28
  19  -3   5    0.07    0.12
   3  -5  19    0.21    0.15
  -3   5  19    0.30    0.33
 -19  -3   5    0.10    0.34
   3   5  19    0.01    0.35
  -3  -5  19    0.05    0.16
 -19   3  -5    0.02    0.25
  -3  -5  19    0.12    0.36
   5 -19  -3    0.04    0.13
  19  -3  -5    0.00    0.11
  19   3   5    0.13    0.12
  -5 -19   3    0.12    0.16
   5 -19   5   -0.12    0.14
   5  -5  19   -0.07    0.11
  19  -5   5   -0.11    0.10
  -5 -19  -5   -0.16    0.13
  -5   5  19   -0.31    0.24
   5  -5  19    0.02    0.31
 -19   5  -5   -0.14    0.23
  -5  -5  19   -0.46    0.24
   5  19   5   -0.13    0.15
  19  -5  -5   -0.01    0.10
   5   5  19   -0.70    0.30
  -5  -5  19   -0.07    0.17
 -19  -5   5   -0.09    0.35
  -5 -19   5    0.02    0.16
  19   5   5   -0.04    0.10
  19   7  -5   -0.15    0.12
   7  -5  19   -0.08    0.28
  19  -7   5   -0.18    0.10
  -7   5  19   -0.18    0.25
   5 -19   7   -0.12    0.20
   7  -5  19    0.04    0.13
 -19   7   5   -0.19    0.37
   5  19   7   -0.06    0.18
 -19   7  -5   -0.09    0.25
  -7  -5  19    0.06    0.18
  -7  -5  19   -0.06    0.33
  19  -7  -5    0.05    0.10
 -19  -7   5    0.22    0.43
  -5 -19   7    0.03    0.18
  19   7   5    0.01    0.11
   7   5  19   -0.46    0.35
   9  -5  19   -0.31    0.12
  19   9  -5   -0.09    0.15
  -9   5  19   -0.49    0.26
   9  -5  19   -0.21    0.25
   5 -19   9   -0.41    0.18
  19  -9   5   -0.18    0.13
 -19  -9   5    0.29    0.44
  19   9   5   -0.03    0.13
   9   5  19   -0.23    0.33
  -5 -19   9   -0.13    0.17
  -9  -5  19   -0.03    0.17
   5  19   9   -0.19    0.19
  -9  -5  19   -0.76    0.31
  19  -9  -5   -0.03    0.11
 -19   9  -5   -0.15    0.25
  19 -11   5   -0.23    0.13
 -11   5  19   -0.42    0.26
  19  11  -5   -0.14    0.15
  11  -5  19   -0.07    0.29
   5 -19  11   -0.12    0.21
 -19  11   5   -0.48    0.33
  11  -5  19   -0.23    0.14
  19 -11  -5    0.04    0.11
 -11  -5  19   -0.15    0.36
 -19 -11   5   -0.17    0.40
  11   5  19   -0.14    0.35
 -11  -5  19    0.02    0.17
  -5 -19  11   -0.13    0.20
   5  19  11    0.07    0.26
  13  -5  19   -0.44    0.27
   5 -19  13   -0.54    0.22
  19  13  -5   -0.09    0.16
 -13   5  19   -0.36    0.29
  -5  19  13   -0.31    0.25
  19 -13   5   -0.19    0.12
  13  -5  19   -0.12    0.14
  -5 -19  13    0.08    0.23
 -13  -5  19   -0.08    0.18
 -19 -13   5   -0.58    0.40
 -13  -5  19   -0.54    0.37
  13   5  19   -0.60    0.31
   5  19  13   -0.20    0.26
  19 -13  -5   -0.08    0.12
  15  -5  19    0.15    0.31
  -5  19  15    0.23    0.34
  19 -15   5    0.22    0.20
  15  -5  19    0.11    0.18
   5 -19  15    0.04    0.30
 -15   5  19    0.41    0.37
  19  15  -5   -0.03    0.22
 -15  -5  19    0.21    0.22
 -19 -15   5   -0.03    0.48
  -5 -19  15    0.24    0.30
  19 -15  -5    0.11    0.15
   5  19  15    0.40    0.37
 -15  -5  19    0.49    0.47
  15   5  19    0.06    0.44
  19  15   5   -0.08    0.18
  17  -5  19   -0.10    0.16
  19  17  -5   -0.24    0.22
  17  -5  19   -0.53    0.30
 -17   5  19   -0.21    0.39
  19 -17   5   -0.25    0.17
   5 -19  17   -0.67    0.30
  -5  19  17    0.02    0.35
   5  19  17   -0.15    0.36
 -19 -17   5   -0.37    0.45
  19  17   5   -0.24    0.16
 -17  -5  19   -0.03    0.48
  17   5  19   -0.44    0.32
  -5 -19  17    0.11    0.29
   7 -19   1    0.07    0.18
   1  -7  19    0.22    0.19
  -7 -19  -1    0.31    0.19
 -19   1   7   -0.10    0.42
   1  -7  19    0.45    0.35
  19  -1   7    0.28    0.15
  19   1  -7    0.47    0.16
  -1   7  19    0.68    0.37
  -1  -7  19    0.40    0.22
   7 -19  -1    0.10    0.18
  19   1   7    0.43    0.16
  19  -1  -7    0.35    0.15
  -7 -19   1    0.19    0.17
   1   7  19    0.44    0.41
  -1  -7  19    0.49    0.40
 -19  -1   7   -0.01    0.45
  19   3  -7   -0.23    0.14
  19  -3   7    0.09    0.13
 -19   3   7    0.23    0.38
  -3   7  19    0.12    0.34
   7 -19   3   -0.16    0.14
   3  -7  19    0.26    0.34
   3  -7  19    0.02    0.15
  -7 -19  -3    0.09    0.14
  19   3   7    0.10    0.28
  -3  -7  19   -0.02    0.33
   7 -19  -3    0.07    0.15
  -3  -7  19    0.05    0.19
  -7 -19   3   -0.02    0.17
  19   3   7    0.22    0.13
 -19  -3   7    0.04    0.39
   3   7  19   -0.20    0.32
  19  -3  -7    0.14    0.12
   7 -19   5   -0.28    0.16
  -7 -19  -5   -0.18    0.12
  19  -5   7   -0.09    0.12
  -5   7  19   -0.05    0.33
   5  -7  19    0.07    0.27
  19   5  -7   -0.18    0.13
   5  -7  19    0.06    0.15
 -19   5   7   -0.04    0.34
 -19   5  -7   -0.23    0.27
 -19  -5   7   -0.13    0.43
   7  19   5   -0.13    0.19
  -7 -19   5   -0.04    0.17
  19  -5  -7    0.03    0.11
  -5  -7  19    0.06    0.23
  -5  -7  19   -0.13    0.30
  19   5   7    0.23    0.29
  19   5   7    0.06    0.12
   5   7  19   -0.33    0.28
  -7   7  19   -0.36    0.22
 -19   7   7    0.04    0.33
  19  -7   7   -0.07    0.11
  19   7  -7    0.00    0.13
   7  -7  19   -0.09    0.14
  -7  -7  19   -0.13    0.30
  -7  -7  19   -0.16    0.20
   7   7  19   -0.58    0.34
 -19  -7   7   -0.29    0.42
  19  -7  -7   -0.09    0.10
  -7 -19   7   -0.13    0.19
   7  19   7   -0.05    0.19
 -19   7  -7   -0.54    0.23
  19   7   7   -0.14    0.09
  19   7   7   -0.21    0.24
  19  -9   7    0.07    0.16
  19   9  -7    0.00    0.15
  -9   7  19   -0.31    0.26
   9  -7  19   -0.07    0.17
   9  -7  19   -0.28    0.29
   7 -19   9   -0.34    0.23
 -19   9   7   -0.21    0.39
  -9  -7  19   -0.19    0.19
  -9  -7  19   -0.22    0.35
 -19   9  -7    0.13    0.26
 -19  -9   7   -0.40    0.41
   9   7  19   -0.10    0.33
  19   9   7    0.03    0.29
  19  -9  -7    0.07    0.13
  -7 -19   9    0.05    0.19
   7  19   9    0.03    0.25
  19   9   7   -0.03    0.13
 -11   7  19   -0.58    0.24
  19 -11   7   -0.08    0.14
 -19  11   7   -0.01    0.37
   7 -19  11   -0.43    0.21
  19  11  -7   -0.19    0.15
  11  -7  19   -0.22    0.25
   7  19  11   -0.21    0.20
  -7 -19  11   -0.11    0.21
  19  11   7   -0.15    0.11
 -11  -7  19   -0.16    0.36
 -11  -7  19   -0.07    0.20
  11   7  19   -0.18    0.33
 -19 -11   7   -0.15    0.43
  19 -11  -7   -0.06    0.12
 -13   7  19   -0.69    0.30
  13  -7  19   -0.22    0.29
  19 -13   7   -0.13    0.15
  -7  19  13    0.10    0.32
  13  -7  19   -0.28    0.17
 -19  13   7    0.15    0.37
   7 -19  13   -0.35    0.20
  19  13  -7   -0.17    0.20
  19  13   7   -0.26    0.25
  13   7  19   -0.29    0.34
  19  13   7   -0.37    0.15
 -13  -7  19   -0.38    0.40
  19 -13  -7   -0.07    0.13
 -13  -7  19   -0.26    0.20
  -7 -19  13    0.06    0.21
   7  19  13   -0.48    0.26
 -19 -13   7   -0.50    0.45
  19  15  -7   -0.21    0.20
  15  -7  19   -0.16    0.30
   7 -19  15   -0.31    0.27
  -7  19  15   -0.17    0.30
  15  -7  19   -0.21    0.17
 -15   7  19    0.36    0.35
  19 -15   7    0.16    0.20
  15   7  19   -0.10    0.41
 -15  -7  19    0.06    0.24
  -7 -19  15   -0.13    0.28
  19  15   7   -0.26    0.17
 -15  -7  19    0.17    0.47
   7  19  15    0.04    0.32
  19  15   7   -0.46    0.33
 -19 -15   7   -0.92    0.37
 -17   7  19    0.02    0.35
   7 -19  17   -0.43    0.25
  17  -7  19   -0.27    0.32
  19 -17   7   -0.11    0.22
  -7  19  17    0.22    0.36
  17  -7  19   -0.03    0.18
  19  17  -7   -0.10    0.19
  17   7  19   -0.41    0.36
  19  17   7   -0.11    0.33
 -19 -17   7   -0.48    0.48
 -17  -7  19   -0.12    0.50
  19  17   7   -0.16    0.19
  -7 -19  17    0.24    0.30
   7  19  17    0.14    0.39
  19   1  -9   -0.24    0.10
   9 -19   1   -0.15    0.14
   1  -9  19   -0.03    0.33
   1  -9  19   -0.07    0.19
  -9 -19  -1   -0.22    0.12
  -1   9  19   -0.30    0.29
  19  -1   9   -0.18    0.09
 -19   1   9   -0.20    0.36
  19  -1   9   -0.11    0.20
  19  -1  -9   -0.14    0.10
  19   1   9   -0.10    0.27
  -1  -9  19   -0.15    0.19
  19   1   9   -0.10    0.12
  -1  -9  19   -0.25    0.32
 -19  -1   9    0.08    0.37
  -9 -19   1   -0.04    0.16
   9 -19  -1   -0.14    0.12
   1   9  19   -0.19    0.35
   3  -9  19    0.11    0.19
  -9 -19  -3   -0.15    0.13
 -19   3   9   -0.02    0.38
  19   3  -9   -0.24    0.11
  19  -3   9    0.20    0.23
  19  -3   9   -0.20    0.11
  -3   9  19   -0.28    0.24
   9 -19   3   -0.22    0.14
   3  -9  19    0.00    0.28
  -3  -9  19   -0.03    0.20
  -9 -19   3   -0.27    0.16
  19   3   9   -0.26    0.25
   9 -19  -3   -0.12    0.11
   9  19   3   -0.30    0.17
   3   9  19   -0.43    0.31
  19  -3  -9   -0.11    0.10
  19   3   9   -0.10    0.11
 -19  -3   9   -0.49    0.42
  -3  -9  19    0.22    0.38
   5  -9  19    0.17    0.19
 -19   5   9   -0.30    0.34
   9 -19   5   -0.22    0.15
   5  -9  19    0.06    0.28
  -5   9  19   -0.36    0.20
   5   9  19   -0.63    0.34
  19   5   9   -0.39    0.28
  -5  -9  19   -0.02    0.20
   9  19   5    0.03    0.21
  -9 -19   5   -0.18    0.14
 -19  -5   9   -0.40    0.42
  19  -5  -9    0.03    0.12
  19   5   9   -0.02    0.11
  -5  -9  19   -0.26    0.34
 -19   7   9    0.16    0.34
  19   7  -9    0.13    0.19
   7  -9  19    0.19    0.20
  19  -7   9    0.08    0.12
   9 -19   7   -0.26    0.18
   7  -9  19   -0.08    0.30
  -7   9  19    0.11    0.33
  -7  -9  19   -0.38    0.29
   9  19   7    0.14    0.25
  19   7   9   -0.06    0.28
   7   9  19   -0.46    0.38
  19   7   9    0.02    0.13
  -9 -19   7   -0.32    0.18
  -7  -9  19   -0.17    0.19
  19  -7  -9   -0.02    0.11
 -19  -7   9   -0.63    0.44
 -19   9   9   -0.56    0.33
  19  -9   9   -0.27    0.12
  -9   9  19   -0.03    0.29
   9  -9  19   -0.23    0.12
  19   9  -9   -0.17    0.17
   9 -19   9   -0.15    0.19
 -19   9  -9   -0.22    0.25
  -9  -9  19   -0.17    0.19
  19   9   9   -0.35    0.29
 -19  -9   9   -0.31    0.42
  -9 -19   9   -0.06    0.18
  19  -9  -9   -0.05    0.11
   9   9  19   -0.54    0.31
   9  19   9    0.07    0.23
  19   9   9    0.08    0.13
  -9  -9  19   -0.69    0.35
  19  11  -9    0.01    0.19
 -19  11   9   -0.05    0.36
  11  -9  19   -0.13    0.19
   9 -19  11   -0.43    0.22
  19 -11   9   -0.11    0.15
 -11   9  19   -0.32    0.31
   9  19  11   -0.12    0.26
  19  11   9   -0.43    0.27
  -9 -19  11    0.20    0.26
 -19 -11   9   -0.67    0.47
 -11  -9  19   -0.21    0.38
  19  11   9   -0.08    0.13
 -11  -9  19   -0.12    0.20
  11   9  19    0.13    0.38
  19  13  -9   -0.17    0.22
 -19  13   9   -0.63    0.33
   9 -19  13   -0.15    0.21
 -13   9  19   -0.15    0.30
  19 -13   9   -0.05    0.19
  13  -9  19    0.03    0.20
  19  13   9   -0.57    0.27
  19  13   9    0.08    0.17
  -9 -19  13    0.00    0.23
 -19 -13   9   -0.78    0.48
 -13  -9  19    0.19    0.39
 -13  -9  19   -0.14    0.22
  13   9  19   -0.26    0.40
   9  19  13    0.06    0.28
  15  -9  19   -0.15    0.17
 -19  15   9    0.19    0.35
  -9  19  15   -0.30    0.29
  19 -15   9   -0.04    0.19
   9 -19  15   -0.40    0.22
 -15   9  19   -0.08    0.32
  19  15  -9   -0.29    0.20
   9  19  15   -0.28    0.31
 -15  -9  19    0.04    0.25
 -19 -15   9   -0.50    0.54
  19  15   9   -0.47    0.30
  19  15   9   -0.39    0.15
  15   9  19   -0.52    0.32
 -15  -9  19    0.13    0.44
  -9 -19  15   -0.53    0.25
   9 -19  17   -0.30    0.26
  17  -9  19    0.05    0.19
 -17   9  19    0.10    0.34
  -9  19  17   -0.04    0.33
  19 -17   9   -0.02    0.23
  19  17  -9   -0.13    0.24
  19  17   9   -0.20    0.36
  -9 -19  17    0.21    0.28
   9  19  17   -0.16    0.38
  17   9  19   -0.25    0.39
 -17  -9  19   -0.07    0.43
  19  17   9   -0.15    0.18
 -19 -17   9   -0.19    0.48
 -17  -9  19   -0.14    0.23
  11 -19   1    0.69    0.22
 -19   1  11    0.71    0.43
 -11 -19  -1    1.02    0.37
  19   1 -11    0.27    0.19
  -1  11  19    1.10    0.44
  19  -1  11    0.97    0.40
  19  -1  11    0.63    0.19
   1 -11  19    0.42    0.26
  19  -1 -11    0.35    0.18
  11 -19  -1    0.61    0.21
 -11 -19   1    0.73    0.23
  -1 -11  19    0.84    0.43
  -1 -11  19    0.76    0.31
   1  11  19    1.08    0.49
  19   1  11    0.78    0.20
 -19  -1  11    0.46    0.42
  19   1  11    1.19    0.44
  19   3 -11   -0.12    0.15
 -19   3  11   -0.49    0.36
  -3  11  19   -0.03    0.32
  19  -3  11   -0.21    0.24
  11 -19   3   -0.24    0.17
   3 -11  19   -0.15    0.18
  19  -3  11   -0.11    0.11
   3  11  19   -0.08    0.34
  19   3  11   -0.27    0.28
  19  -3 -11   -0.03    0.12
  19   3  11   -0.09    0.11
  -3 -11  19   -0.49    0.31
  11 -19  -3    0.13    0.15
 -19  -3  11   -0.23    0.47
 -11 -19   3   -0.24    0.16
  -3 -11  19    0.02    0.20
  11  19   3   -0.21    0.20
  11 -19   5   -0.07    0.15
  19  -5  11   -0.09    0.22
  19  -5  11    0.05    0.14
  -5  11  19   -0.25    0.30
  19   5 -11   -0.13    0.12
   5 -11  19    0.05    0.17
 -19   5  11    0.18    0.39
  11  19   5   -0.10    0.15
  -5 -11  19    0.19    0.24
  11  19   5   -0.27    0.23
 -11 -19   5   -0.18    0.15
   5  11  19   -0.29    0.38
  19  -5 -11   -0.13    0.11
  19   5  11   -0.26    0.29
  -5 -11  19    0.06    0.32
 -19  -5  11   -0.24    0.48
  19   5  11   -0.12    0.11
 -19   7  11   -0.36    0.35
  11 -19   7   -0.24    0.17
  19   7 -11   -0.09    0.16
   7 -11  19   -0.18    0.17
  19  -7  11   -0.16    0.13
  -7  11  19   -0.39    0.25
  19   7  11   -0.10    0.12
  -7 -11  19   -0.08    0.19
  19   7  11   -0.40    0.27
  11  19   7   -0.12    0.15
  -7 -11  19   -0.09    0.33
   7  11  19   -0.21    0.33
 -11 -19   7   -0.19    0.19
  19  -7 -11   -0.09    0.12
  11  19   7   -0.17    0.20
 -19  -7  11   -0.88    0.48
  -9  11  19   -0.40    0.26
  11 -19   9   -0.08    0.21
  19  -9  11   -0.17    0.15
  19   9 -11    0.20    0.20
   9 -11  19   -0.01    0.21
 -19   9  11   -0.14    0.37
  11  19   9   -0.20    0.26
  -9 -11  19   -0.38    0.41
   9  11  19   -0.14    0.34
  19   9  11   -0.09    0.12
  -9 -11  19   -0.02    0.26
  19   9  11   -0.41    0.25
 -19  -9  11   -0.98    0.46
 -11 -19   9    0.00    0.22
 -19   9 -11    0.36    0.29
  11 -11  19   -0.24    0.20
 -19  11  11    0.04    0.33
  19 -11  11    0.03    0.16
  11 -19  11   -0.23    0.22
 -11  11  19   -0.58    0.30
  19  11  11   -0.45    0.31
  11  11  19   -0.43    0.33
 -11 -11  19   -0.40    0.22
 -11 -19  11   -0.37    0.22
  11  19  11   -0.19    0.26
 -11 -11  19   -0.07    0.38
  19  11  11   -0.17    0.12
 -19 -11  11   -0.52    0.49
  11 -19  13   -0.21    0.22
 -19  13  11   -0.58    0.34
  13 -11  19   -0.39    0.17
  19 -13  11   -0.02    0.20
  19  13 -11   -0.25    0.21
 -13  11  19   -0.34    0.32
  19  13  11   -0.20    0.31
  13  11  19   -0.47    0.33
 -11 -19  13   -0.25    0.19
 -13 -11  19   -0.01    0.40
 -13 -11  19   -0.21    0.24
  11  19  13   -0.03    0.33
  19  13  11   -0.06    0.14
 -19  15  11   -0.25    0.31
  15 -11  19   -0.29    0.21
  11 -19  15   -0.04    0.27
  19 -15  11    0.03    0.23
  19  15 -11    0.19    0.24
 -15  11  19    0.15    0.33
  19  15  11   -0.39    0.33
 -19 -15  11   -0.73    0.49
 -15 -11  19   -0.27    0.39
 -11 -19  15   -0.51    0.25
 -15 -11  19   -0.07    0.26
  15  11  19    0.15    0.41
  11  19  15    0.02    0.33
  19  15  11   -0.16    0.16
  19 -17  11   -0.17    0.23
 -11  19  17   -0.01    0.32
  11 -19  17    0.18    0.30
 -17  11  19   -0.33    0.35
  17 -11  19   -0.33    0.20
 -19 -17  11   -0.57    0.59
 -11 -19  17   -0.25    0.25
  17  11  19   -0.09    0.43
  11  19  17   -0.38    0.33
  19  17  11   -0.21    0.36
 -17 -11  19    0.09    0.46
 -19   1  13    0.23    0.42
  13 -19   1   -0.09    0.15
 -13 -19  -1    0.00    0.29
  19  -1  13   -0.32    0.12
   1 -13  19   -0.24    0.19
  19  -1  13   -0.45    0.29
  -1  13  19    0.05    0.35
  19  -1 -13   -0.20    0.13
  13 -19  -1   -0.19    0.14
 -19  -1  13    0.16    0.41
 -13 -19   1   -0.43    0.28
  13  19   1   -0.37    0.16
   1  13  19   -0.30    0.35
  19   1  13   -0.16    0.13
  19   1  13   -0.44    0.25
  -1 -13  19    0.05    0.24
 -19   3  13   -0.26    0.35
  13 -19   3   -0.17    0.16
  19   3 -13   -0.21    0.13
  -3  13  19   -0.06    0.32
  19  -3  13   -0.34    0.24
   3 -13  19   -0.23    0.19
  19  -3  13   -0.30    0.14
  19   3  13   -0.04    0.14
  19  -3 -13   -0.24    0.12
  19   3  13   -0.25    0.28
  -3 -13  19   -0.05    0.22
  13 -19  -3   -0.02    0.15
 -19  -3  13   -0.66    0.44
  13  19   3   -0.27    0.15
  19   5 -13   -0.05    0.17
   5 -13  19   -0.05    0.22
  19  -5  13   -0.35    0.24
  19  -5  13   -0.27    0.14
  13 -19   5   -0.20    0.16
 -19   5  13   -0.68    0.36
  -5  13  19    0.01    0.29
  19   5  13   -0.37    0.32
  13  19   5   -0.29    0.16
  -5 -13  19   -0.15    0.23
  13  19   5   -0.25    0.22
  19   5  13   -0.03    0.13
 -19  -5  13   -0.35    0.48
  19  -5 -13   -0.09    0.14
 -13 -19   5   -0.22    0.18
   5  13  19   -0.84    0.36
  19   7 -13    0.02    0.19
  -7  13  19   -0.13    0.31
  19  -7  13   -0.12    0.15
  13 -19   7   -0.19    0.19
 -19   7  13   -0.07    0.37
   7 -13  19   -0.14    0.19
  19  -7  13   -0.33    0.24
 -19  -7  13   -0.58    0.52
  -7 -13  19   -0.11    0.23
  19   7  13   -0.67    0.29
 -13 -19   7   -0.35    0.21
  19   7  13   -0.04    0.13
   7  13  19   -0.44    0.39
  13  19   7   -0.11    0.26
  13  19   7   -0.25    0.15
  19  -9  13    0.01    0.18
   9 -13  19    0.18    0.24
  13 -19   9   -0.21    0.18
 -19   9  13   -0.31    0.40
  19   9 -13   -0.43    0.16
  -9  13  19   -0.46    0.29
  -9 -13  19   -0.08    0.23
 -13 -19   9    0.06    0.22
   9  13  19   -0.30    0.35
 -19  -9  13   -0.02    0.53
  13  19   9   -0.04    0.28
  19   9  13    0.05    0.14
  13 -19  11   -0.30    0.24
  19  11 -13   -0.26    0.20
 -11  13  19   -0.39    0.28
 -19  11  13   -0.05    0.38
  11 -13  19   -0.50    0.21
  19 -11  13   -0.18    0.16
 -19 -11  13   -1.05    0.54
  19  11  13   -0.13    0.14
  11  13  19   -0.46    0.33
 -11 -13  19   -0.11    0.20
  19  11  13   -0.73    0.31
 -13 -19  11   -0.29    0.21
  13  19  11   -0.37    0.29
 -11 -13  19   -0.49    0.37
  13 -13  19   -0.50    0.19
  19  13 -13   -0.28    0.20
 -13  13  19   -0.23    0.33
 -19  13  13   -0.19    0.31
  19 -13  13   -0.29    0.16
  13 -19  13   -0.22    0.22
 -13 -13  19   -0.28    0.21
  13  13  19   -0.40    0.32
 -13 -19  13   -0.05    0.24
  13  19  13   -0.28    0.30
 -19 -13  13   -1.04    0.51
 -13 -13  19   -0.16    0.43
  15 -13  19   -0.28    0.22
  13 -19  15   -0.35    0.26
 -15  13  19    0.09    0.34
 -19  15  13    0.17    0.34
  19 -15  13    0.02    0.23
 -15 -13  19    0.18    0.27
  19  15  13   -0.56    0.38
 -13 -19  15   -0.52    0.20
 -15 -13  19   -0.01    0.44
  15  13  19   -0.09    0.43
  13  19  15   -0.48    0.34
  17 -13  19    0.00    0.24
  19 -17  13   -0.13    0.28
  13 -19  17   -0.11    0.33
 -17  13  19   -0.02    0.37
  13  19  17   -0.05    0.37
 -17 -13  19   -0.01    0.27
  19  17  13   -0.79    0.35
  17  13  19    0.10    0.46
 -13 -19  17    0.04    0.30
 -17 -13  19   -0.26    0.55
  -1  15  19   -0.15    0.32
 -15 -19  -1    0.05    0.35
   1 -15  19   -0.05    0.26
  15  19  -1    0.00    0.20
  19   1 -15    0.00    0.16
  15 -19   1   -0.22    0.15
  19  -1  15   -0.12    0.14
 -19   1  15   -0.54    0.43
  19  -1  15   -0.08    0.31
  19   1  15   -0.51    0.27
   1  15  19   -0.29    0.36
  -1 -15  19   -0.20    0.27
 -15 -19   1   -0.10    0.34
  19  -1 -15   -0.32    0.14
 -19  -1  15    0.20    0.42
  19   1  15   -0.13    0.12
  -3  15  19   -0.39    0.31
 -19   3  15   -0.51    0.41
  15  19  -3   -0.04    0.19
  15 -19   3   -0.23    0.18
   3 -15  19   -0.03    0.26
  19  -3  15   -0.15    0.15
  19  -3  15   -0.31    0.24
  19   3 -15   -0.05    0.17
  -3 -15  19   -0.17    0.22
 -19  -3  15   -0.53    0.45
 -15 -19   3   -0.03    0.39
  15  19   3   -0.19    0.17
  15 -19  -3   -0.12    0.13
   3  15  19   -0.26    0.38
  19   3  15   -0.25    0.30
  19   3  15   -0.05    0.12
  19   5 -15    0.10    0.18
  19  -5  15   -0.09    0.16
  19  -5  15    0.28    0.31
  -5  15  19   -0.16    0.36
   5 -15  19    0.18    0.26
 -19   5  15    0.40    0.46
  15 -19   5    0.20    0.23
  19   5  15    0.29    0.17
  -5 -15  19    0.18    0.30
  15  19   5   -0.10    0.31
 -19  -5  15    0.41    0.56
  19   5  15    0.07    0.39
   5  15  19    0.19    0.45
  15  19   5    0.15    0.19
  19   7 -15   -0.14    0.20
   7 -15  19   -0.07    0.25
  19  -7  15   -0.30    0.25
  15 -19   7   -0.37    0.17
 -19   7  15   -0.26    0.34
  19  -7  15    0.05    0.17
  -7  15  19   -0.14    0.37
 -15 -19   7   -0.09    0.24
  -7 -15  19   -0.33    0.24
   7  15  19   -0.39    0.34
 -19  -7  15    0.14    0.60
  19   7  15   -0.18    0.38
  19   7  15   -0.07    0.14
  15  19   7   -0.21    0.28
  15  19   7   -0.02    0.17
  15 -19   9    0.02    0.23
 -19   9  15   -0.16    0.35
  -9  15  19   -0.41    0.34
  19  -9  15   -0.23    0.16
  19   9 -15   -0.22    0.20
   9 -15  19   -0.30    0.23
 -19  -9  15   -0.31    0.50
   9  15  19   -0.12    0.41
  -9 -15  19   -0.42    0.25
  19   9  15   -0.09    0.14
 -15 -19   9   -0.12    0.21
  15  19   9   -0.29    0.30
  19   9  15   -0.37    0.34
  15 -19  11   -0.15    0.24
  19 -11  15   -0.02    0.17
 -19  11  15    0.01    0.37
  11 -15  19    0.00    0.28
 -11  15  19   -0.45    0.28
  19  11 -15   -0.22    0.22
  15  19  11   -0.01    0.32
  19  11  15   -0.57    0.27
 -19 -11  15    0.28    0.64
  11  15  19    0.19    0.41
 -15 -19  11   -0.04    0.26
 -11 -15  19   -0.49    0.24
  13 -15  19   -0.30    0.23
  15 -19  13   -0.17    0.23
 -13  15  19   -0.19    0.35
 -19  13  15    0.15    0.33
  19 -13  15   -0.25    0.19
  15  19  13   -0.73    0.34
 -15 -19  13    0.13    0.27
 -13 -15  19   -0.54    0.25
 -19 -13  15   -0.52    0.57
  13  15  19   -0.82    0.37
  19  13  15   -0.25    0.37
  15 -15  19   -0.49    0.23
 -19  15  15    0.09    0.32
  19 -15  15   -0.47    0.22
 -15  15  19   -0.21    0.35
  15 -19  15   -0.49    0.25
 -15 -19  15   -0.24    0.30
  15  19  15   -0.13    0.37
 -15 -15  19   -0.44    0.26
 -19 -15  15   -0.55    0.24
  15  15  19   -0.18    0.43
  19  15  15   -0.37    0.37
  19 -17  15   -0.44    0.21
  15 -19  17   -0.15    0.24
 -17  15  19   -0.08    0.34
  17 -15  19   -0.45    0.22
 -19 -17  15   -0.17    0.26
  19  17  15    0.27    0.44
  17  15  19   -0.57    0.41
  15  19  17   -0.48    0.38
 -15 -19  17   -0.05    0.25
  -1  17  19   -0.46    0.40
 -19   1  17   -0.12    0.39
  19  -1  17   -0.37    0.15
  17 -19   1   -0.27    0.16
  17  19  -1   -0.09    0.19
   1 -17  19   -0.04    0.30
  19   1 -17   -0.24    0.18
  19  -1  17   -0.50    0.34
 -17 -19  -1   -0.52    0.33
  -1 -17  19   -0.26    0.25
 -17 -19   1   -0.53    0.41
  19   1  17   -0.48    0.37
  17 -19  -1   -0.23    0.16
   1  17  19   -0.45    0.38
  19   1  17   -0.27    0.15
  17  19   1   -0.33    0.19
 -19  -1  17   -0.60    0.45
   3 -17  19   -0.13    0.25
 -17 -19  -3    0.02    0.36
 -19   3  17   -0.31    0.40
  17 -19   3   -0.25    0.18
  19  -3  17   -0.18    0.16
  19   3 -17   -0.04    0.18
  17  19  -3   -0.50    0.19
  -3  17  19   -0.08    0.34
  19  -3  17   -0.66    0.27
  19   3  17   -0.24    0.14
  -3 -17  19    0.07    0.30
  19   3  17   -0.66    0.34
  17  19   3   -0.20    0.20
  17 -19  -3   -0.17    0.16
  19  -5  17   -0.07    0.19
  17  19  -5   -0.29    0.19
  19   5 -17   -0.21    0.19
   5 -17  19   -0.36    0.22
  -5  17  19   -0.06    0.34
  17 -19   5   -0.23    0.19
 -19   5  17   -0.27    0.39
  17  19   5   -0.45    0.17
 -19  -5  17    0.20    0.50
  19   5  17   -0.13    0.15
  -5 -17  19   -0.18    0.26
   5  17  19   -0.66    0.40
 -19   7  17   -0.25    0.33
  19   7 -17   -0.14    0.21
  19  -7  17   -0.66    0.31
  -7  17  19    0.13    0.37
   7 -17  19   -0.32    0.24
  17 -19   7   -0.11    0.23
  19  -7  17   -0.04    0.18
  19   7  17   -0.46    0.46
 -19  -7  17   -0.03    0.54
   7  17  19   -0.15    0.42
  17  19   7   -0.40    0.33
  -7 -17  19    0.12    0.29
  17  19   7   -0.05    0.20
  19  -9  17    0.19    0.22
   9 -17  19    0.20    0.30
  17 -19   9   -0.04    0.26
  19   9 -17   -0.36    0.23
 -19   9  17    0.38    0.38
  -9  17  19    0.03    0.35
  19   9  17   -0.34    0.43
 -19  -9  17    0.06    0.55
  17  19   9    0.01    0.34
   9  17  19    0.08    0.42
  -9 -17  19    0.21    0.26
  19 -11  17   -0.36    0.17
  11 -17  19   -0.41    0.26
 -11  17  19   -0.11    0.29
  17 -19  11   -0.48    0.25
 -19  11  17   -0.02    0.35
 -17 -19  11   -0.35    0.25
  17  19  11   -0.59    0.34
 -19 -11  17   -0.97    0.50
  11  17  19   -0.11    0.41
 -11 -17  19    0.03    0.28
  19  11  17   -0.78    0.38
 -13  17  19    0.11    0.33
  19 -13  17   -0.19    0.24
  17 -19  13   -0.13    0.29
 -19  13  17    0.52    0.41
  13 -17  19   -0.34    0.28
  17  19  13    0.06    0.40
 -13 -17  19   -0.12    0.25
  13  17  19   -0.02    0.42
  19  13  17   -0.70    0.40
 -19 -13  17   -0.51    0.54
 -19 -13  17   -0.25    0.29
 -17 -19  13    0.01    0.28
  17 -19  15   -0.64    0.24
 -19  15  17    0.17    0.37
  15 -17  19   -0.34    0.26
  19 -15  17   -0.18    0.25
 -15  17  19   -0.33    0.33
 -17 -19  15   -0.16    0.29
  15  17  19   -0.48    0.39
 -19 -15  17   -1.24    0.55
  17  19  15   -0.45    0.38
 -15 -17  19   -0.05    0.26
  19  15  17   -0.72    0.39
 -19 -15  17    0.10    0.27
  17 -17  19   -0.11    0.28
 -19  17  17    0.44    0.36
  17 -19  17   -0.53    0.24
  19 -17  17   -0.45    0.23
 -17  17  19    0.52    0.40
 -17 -19  17   -0.10    0.29
 -19 -17  17   -0.48    0.27
  17  17  19   -0.38    0.44
  17  19  17   -0.06    0.41
 -17 -17  19   -0.07    0.29
  19  17  17   -0.66    0.38
 -19 -19  -1   -0.17    0.37
  19 -19   1   -0.20    0.17
  19  -1  19   -0.48    0.30
 -19   1  19    0.09    0.40
  19  19  -1   -0.39    0.18
  -1  19  19   -0.21    0.36
   1 -19  19   -0.07    0.28
  19  -1  19   -0.17    0.16
  -1 -19  19   -0.14    0.27
 -19 -19   1   -0.20    0.41
 -19  -1  19    0.10    0.47
   1  19  19   -0.18    0.37
  19   1  19    0.08    0.41
  19   1  19   -0.09    0.15
  19 -19  -1   -0.08    0.16
  19  19   1   -0.09    0.20
 -19 -19  -3   -0.18    0.35
  19 -19   3   -0.26    0.18
  19  -3  19    0.01    0.35
 -19   3  19   -0.12    0.38
  19  19  -3   -0.02    0.21
  -3  19  19   -0.19    0.36
   3 -19  19    0.02    0.31
  19  -3  19    0.00    0.17
  -3 -19  19   -0.24    0.27
 -19 -19   3   -0.42    0.42
 -19  -3  19    0.01    0.51
   3  19  19   -0.14    0.42
  19   3  19    0.03    0.38
  19   3  19   -0.12    0.14
  19 -19  -3   -0.13    0.16
  19  19   3   -0.12    0.20
 -19 -19  -5   -0.01    0.37
  19  -5  19   -0.36    0.32
  19  19  -5   -0.16    0.21
 -19   5  19   -0.29    0.35
  19  -5  19   -0.03    0.18
  -5  19  19   -0.01    0.35
   5 -19  19   -0.10    0.29
  19   5 -19   -0.29    0.19
  19 -19   5   -0.19    0.20
 -19 -19   5   -0.69    0.45
  -5 -19  19   -0.09    0.27
   5  19  19   -0.43    0.39
  19   5  19   -0.20    0.42
 -19  -5  19   -0.40    0.48
  19  19   5   -0.13    0.19
  19 -19   7   -0.15    0.20
 -19   7  19   -0.32    0.39
  19  19  -7   -0.19    0.22
  -7  19  19   -0.16    0.35
   7 -19  19   -0.33    0.28
  19  -7  19   -0.07    0.19
 -19  -7  19   -0.77    0.48
  -7 -19  19   -0.28    0.26
  19   7  19   -0.21    0.40
   7  19  19   -0.22    0.37
  19  19   7   -0.01    0.20
  19 -19   9   -0.14    0.21
 -19   9  19   -0.04    0.36
   9 -19  19   -0.46    0.31
  -9  19  19   -0.02    0.36
  19  -9  19   -0.26    0.17
  -9 -19  19   -0.49    0.30
 -19  -9  19   -0.63    0.43
   9  19  19   -0.20    0.42
  19   9  19   -0.12    0.45
  19 -19  11   -0.47    0.20
  19 -11  19   -0.21    0.20
  11 -19  19   -0.55    0.28
 -19  11  19    0.24    0.38
 -11  19  19    0.36    0.37
 -11 -19  19   -0.68    0.29
 -19 -11  19   -0.24    0.27
  11  19  19   -0.21    0.41
 -19 -19  11   -0.42    0.23
 -19 -11  19   -0.61    0.46
  19  11  19   -0.28    0.37
  19  19  11   -0.40    0.35
  19 -13  19   -0.44    0.19
  19 -19  13   -0.32    0.24
  13 -19  19   -0.48    0.29
 -19  13  19    0.60    0.40
 -13  19  19   -0.11    0.34
 -19 -13  19   -0.22    0.25
  13  19  19    0.00    0.44
 -19 -13  19   -0.21    0.48
 -19 -19  13   -0.19    0.27
  19  13  19   -0.20    0.45
  19 -19  15   -0.12    0.31
  19 -15  19   -0.03    0.27
 -19  15  19    0.63    0.42
  15 -19  19   -0.47    0.29
 -15 -19  19   -0.36    0.30
  15  19  19    0.26    0.42
 -19 -19  15   -0.29    0.24
 -19 -15  19   -0.27    0.26
  19  15  19   -0.75    0.38
  19  19  15   -0.05    0.39
  19 -19  17   -0.11    0.26
  19 -17  19   -0.67    0.24
 -19  17  19    0.47    0.38
  17 -19  19   -0.66    0.31
 -17 -19  19   -0.48    0.31
  17  19  19   -0.41    0.41
 -19 -19  17   -0.15    0.27
 -19 -17  19   -0.16    0.29
  19  17  19   -0.58    0.41
  19  19  17   -0.63    0.40
  19 -19  19   -0.38    0.29
 -19 -19  19   -0.43    0.31
  19  19  19   -0.21    0.48
 -20   0   0   53.10    3.19
   0 -20   0   52.60    2.98
   0   0  20   48.15    3.34
  20   0   0   48.18    2.83
   0 -20  -2    0.36    0.19
   0 -20   2    0.42    0.23
   2   0  20   -0.40    0.40
  20  -2   0    0.16    0.15
  20   2   0   -0.05    0.15
 -20   2   0   -0.27    0.31
  -2   0  20   -0.31    0.42
 -20  -2   0    0.70    0.42
  20   4   0   90.41    5.10
   4   0  20   92.27    5.80
 -20  -4   0   93.17    5.62
 -20   4   0   95.29    5.50
  -4   0  20   97.72    5.75
   0 -20  -4  105.82    5.18
   0 -20   4  100.02    5.32
  20  -4   0   92.14    5.09
   6   0  20   -0.21    0.37
  -6   0  20    0.33    0.43
   6   0  20    0.21    0.13
   0 -20   6    0.39    0.23
 -20   6   0   -0.30    0.32
  20  -6   0    0.23    0.15
 -20  -6   0   -0.01    0.37
  20   6   0    0.27    0.15
  -8   0  20   54.29    3.80
 -20   8   0   63.36    3.68
   8   0  20   61.69    3.32
   8   0  20   61.64    3.96
 -20  -8   0   62.02    3.89
  20  -8   0   63.00    3.42
  20   8   0   63.25    3.44
   0 -20   8   62.22    3.68
  10   0  20    0.21    0.39
  10   0  20    0.20    0.13
   0 -20  10    0.13    0.26
 -10   0  20    0.11    0.33
 -20 -10   0   -0.15    0.48
  20 -10   0    0.25    0.15
  20  10   0    0.20    0.15
 -20 -12   0   66.62    4.19
  12   0  20   63.82    4.16
  20  12   0   62.10    3.68
   0 -20  12   68.91    4.03
   0  20  12   68.18    3.95
  12   0  20   67.75    3.61
 -20  12   0   71.28    3.95
 -12   0  20   64.20    4.10
  20 -12   0   63.03    3.66
   0  20  14    0.38    0.34
 -20 -14   0    0.16    0.42
   0 -20  14    0.05    0.28
  20  14   0    0.14    0.18
  20 -14   0    0.21    0.18
  14   0  20   -0.08    0.36
  14   0  20    0.51    0.17
 -14   0  20    0.44    0.42
   0 -20  16   47.78    3.20
   0  20  16   50.79    3.17
 -20 -16   0   47.13    3.24
  20  16   0   45.70    2.87
  20 -16   0   51.50    2.89
  16   0  20   48.23    3.26
  16   0  20   49.92    2.81
  20 -18   0    0.08    0.20
  18   0  20    0.37    0.39
 -20 -18   0   -0.02    0.44
 -18   0  20    0.20    0.41
   0 -20  18   -0.06    0.33
  18   0  20    0.16    0.17
   0  20  18    0.46    0.43
  20  18   0   -0.35    0.19
   0  -2  20    0.18    0.36
  -2 -20   0   -0.01    0.19
   0  -2  20    0.28    0.13
 -20   0  -2   -0.11    0.35
  20   0   2    0.26    0.16
   0   2  20    0.10    0.40
 -20   0   2   -0.45    0.34
   2 -20   0    0.15    0.21
  20   0  -2    0.10    0.15
  -2   2  20    1.28    0.53
  20   2  -2    1.07    0.22
   2  -2  20    1.09    0.53
 -20   2   2    1.57    0.46
  -2 -20  -2    1.71    0.28
   2 -20   2    1.15    0.30
  20  -2   2    1.11    0.22
 -20  -2  -2    1.65    0.48
   2  -2  20    0.91    0.20
  20  -2  -2    0.88    0.22
 -20  -2   2    1.64    0.51
 -20   2  -2    1.45    0.42
  20   2   2    0.86    0.22
  -2  -2  20    1.33    0.23
  -2 -20   2    1.19    0.28
   2   2  20    1.66    0.58
  -2  -2  20    1.53    0.54
   2 -20  -2    1.13    0.26
  -4   2  20    0.75    0.42
  20   4  -2    0.70    0.19
   4  -2  20    0.57    0.40
   2 -20   4    0.02    0.23
   4  -2  20    0.48    0.16
 -20   4   2   -0.29    0.40
  20  -4   2    0.72    0.19
  -2 -20  -4    0.30    0.19
 -20  -4  -2   -0.13    0.45
  -4  -2  20    0.63    0.43
 -20   4  -2   -0.23    0.40
  20  -4  -2    0.43    0.16
   2 -20  -4   -0.13    0.19
  -2 -20   4    0.05    0.25
   4   2  20    0.33    0.48
 -20  -4   2   -0.47    0.46
  20   4   2    0.39    0.17
   6  -2  20    0.87    0.49
  20  -6   2    1.02    0.21
  20   6  -2    0.86    0.21
   6  -2  20    0.66    0.18
   2 -20   6    1.04    0.31
  -6   2  20    0.99    0.44
 -20  -6  -2    0.55    0.48
 -20   6   2    0.53    0.38
  20   6   2    0.71    0.21
 -20   6  -2    1.21    0.41
  -2 -20   6    0.79    0.29
   6   2  20    1.34    0.54
  20  -6  -2    0.93    0.21
  -6  -2  20    1.39    0.51
 -20  -6   2    1.61    0.51
 -20  -8  -2    0.39    0.48
   8  -2  20    0.60    0.17
  20   8  -2    0.49    0.18
   8  -2  20    1.03    0.45
  -8   2  20    1.12    0.44
 -20   8   2   -0.36    0.39
  20  -8   2    0.48    0.17
   2 -20   8   -0.35    0.29
  20   8   2    0.59    0.17
  -8  -2  20    0.91    0.41
  20  -8  -2    0.53    0.17
  -2 -20   8   -0.18    0.28
 -20  -8   2   -0.55    0.54
   8   2  20    0.96    0.48
 -20 -10  -2   -0.20    0.43
  20 -10   2    0.25    0.16
 -20  10   2   -0.20    0.39
  10  -2  20    0.58    0.40
   2 -20  10    0.07    0.26
 -10   2  20    0.08    0.37
  20  10  -2    0.42    0.19
  10  -2  20    0.20    0.15
 -20  10  -2    0.50    0.40
  10   2  20    0.90    0.44
  20 -10  -2    0.21    0.16
 -20 -10   2    0.48    0.48
  20  10   2    0.28    0.18
  -2 -20  10    0.17    0.25
 -10  -2  20    0.41    0.37
   2  20  10    0.17    0.29
   2 -20  12    0.35    0.35
 -20 -12  -2    0.76    0.56
  12  -2  20    0.53    0.18
  20  12  -2    0.51    0.21
  12  -2  20    0.63    0.41
 -20  12   2    0.56    0.45
 -12   2  20    0.84    0.42
  20 -12   2    0.41    0.18
  20 -12  -2    0.64    0.20
   2  20  12    0.26    0.39
 -20 -12   2   -0.03    0.59
  20  12   2    0.55    0.21
 -12  -2  20    0.85    0.45
  -2 -20  12    0.27    0.30
  12   2  20    1.27    0.52
  20  14  -2    0.87    0.25
   2 -20  14    0.89    0.37
  14  -2  20    1.15    0.50
  14  -2  20    1.25    0.24
 -20 -14  -2    1.81    0.59
  20 -14   2    1.35    0.28
  -2  20  14    2.29    0.50
 -14   2  20    1.89    0.54
  14   2  20    1.41    0.56
  20 -14  -2    1.09    0.25
  20  14   2    1.26    0.27
   2  20  14    2.27    0.51
 -14  -2  20    1.18    0.52
 -20 -14   2    2.16    0.64
  -2 -20  14    1.19    0.36
  20  16  -2    0.39    0.23
  20 -16   2    0.79    0.25
  16  -2  20    1.32    0.44
  16  -2  20    0.83    0.22
 -20 -16  -2    0.28    0.51
 -16   2  20    0.88    0.49
   2 -20  16    0.09    0.37
  -2  20  16    0.16    0.44
  16   2  20    0.48    0.18
  -2 -20  16   -0.31    0.30
 -20 -16   2   -0.17    0.58
  16   2  20    1.43    0.52
  20 -16  -2    0.60    0.22
 -16  -2  20    1.10    0.52
  20  16   2    0.59    0.22
   2  20  16   -0.24    0.43
   2 -20  18   -0.19    0.32
  -2  20  18   -0.11    0.37
  20 -18   2    0.04    0.21
  18  -2  20   -0.02    0.18
  20  18  -2    0.07    0.22
  18  -2  20   -0.01    0.34
 -18   2  20    0.37    0.42
 -20 -18  -2    0.36    0.42
 -20 -18   2   -0.29    0.45
   2  20  18    0.00    0.40
 -18  -2  20    0.67    0.48
  18   2  20    0.02    0.17
  20 -18  -2    0.04    0.18
  20  18   2   -0.06    0.21
  -2 -20  18    0.17    0.31
  18   2  20    0.52    0.42
 -20   0  -4   97.64    5.49
   0   4  20   97.99    5.72
  20   0   4   95.52    5.04
   4 -20   0  100.69    5.17
   0  -4  20   88.65    5.03
  -4 -20   0   88.83    5.12
 -20   0   4  100.54    5.55
   0  -4  20   79.15    5.56
  20   0  -4   98.79    5.04
 -20   2   4    0.64    0.44
   2  -4  20   -0.01    0.47
   4 -20   2    0.66    0.23
 -20  -2  -4    0.48    0.37
  -4 -20  -2    0.67    0.21
   2  -4  20    0.37    0.20
  20  -2   4    0.59    0.18
  20   2  -4    0.45    0.18
  -2   4  20    0.81    0.51
  -2  -4  20    0.27    0.48
  -2  -4  20    0.47    0.23
 -20  -2   4    0.64    0.48
   2   4  20    0.67    0.49
   4 -20  -2    0.47    0.20
  20   2   4    0.28    0.15
  -4 -20   2    0.80    0.23
 -20   2  -4    0.93    0.40
  20  -2  -4    0.36    0.17
   4  -4  20   53.38    3.58
   4 -20   4   58.97    3.31
  -4 -20  -4   51.65    3.10
  20  -4   4   54.35    3.08
  20   4  -4   58.17    3.11
  -4   4  20   59.51    3.60
 -20   4   4   54.32    3.39
 -20  -4  -4   57.91    3.50
   4  -4  20   51.14    3.04
 -20   4  -4   56.11    3.34
  -4  -4  20   54.37    3.18
  -4  -4  20   47.74    3.48
 -20  -4   4   54.55    3.49
  -4 -20   4   53.43    3.25
  20  -4  -4   53.15    3.04
   4 -20  -4   59.46    3.13
  20   4   4   51.90    3.06
   4   4  20   60.07    3.73
   6  -4  20    0.25    0.18
  20   6  -4    0.63    0.19
  -6   4  20    0.67    0.46
   6  -4  20    0.01    0.38
 -20  -6  -4    0.58    0.42
   4 -20   6    0.73    0.27
  20  -6   4    0.37    0.16
 -20   6   4    0.88    0.44
 -20   6  -4    0.51    0.36
  -6  -4  20   -0.18    0.21
  -4 -20   6    0.52    0.25
  -6  -4  20    0.63    0.44
  20   6   4    0.56    0.19
  20  -6  -4    0.31    0.15
   6   4  20    0.94    0.49
 -20  -6   4    0.45    0.49
   8  -4  20  105.25    5.57
  20  -8   4  107.59    5.62
 -20  -8  -4  103.09    6.18
  -8   4  20  105.30    6.18
   4 -20   8  107.46    5.89
   8  -4  20  103.89    6.19
 -20   8   4  111.62    6.04
  20   8  -4  103.34    5.62
  20  -8  -4  105.35    5.56
 -20   8  -4  112.11    5.97
  -8  -4  20   95.83    6.14
  20   8   4   97.88    5.57
  -8  -4  20  100.41    5.73
   8   4  20   98.20    6.28
 -20  -8   4  112.55    6.27
  -4 -20   8  113.08    5.91
   4 -20  10    0.17    0.27
  10  -4  20    0.20    0.15
 -10   4  20    0.04    0.35
  20 -10   4    0.41    0.18
  20  10  -4    0.46    0.20
  10  -4  20    0.40    0.38
 -20 -10  -4    0.08    0.36
 -20  10   4    0.28    0.39
  10   4  20    0.58    0.43
 -20 -10   4    0.24    0.51
   4  20  10    0.35    0.29
  -4 -20  10    0.29    0.23
  20 -10  -4    0.20    0.16
  20  10   4    0.00    0.15
 -10  -4  20    0.18    0.22
 -10  -4  20    0.55    0.40
 -20  10  -4   -0.14    0.30
  20 -12   4   39.94    2.35
   4 -20  12   37.32    2.62
 -20 -12  -4   33.25    2.60
  20  12  -4   42.17    2.39
  12  -4  20   37.01    2.27
  12  -4  20   39.01    2.63
 -20  12   4   40.44    2.50
 -12   4  20   38.13    2.62
 -20 -12   4   36.16    2.70
 -12  -4  20   36.07    2.63
   4  20  12   40.12    2.48
  -4 -20  12   41.76    2.65
  20  12   4   38.63    2.30
  20 -12  -4   38.57    2.26
  12   4  20   40.02    2.78
 -12  -4  20   36.23    2.38
  -4  20  14    0.30    0.32
  14  -4  20   -0.07    0.32
  20 -14   4    0.41    0.19
  20  14  -4    0.10    0.22
   4 -20  14    0.02    0.27
  14  -4  20    0.22    0.17
 -20 -14  -4    0.58    0.38
 -14   4  20    0.39    0.38
  -4 -20  14    0.35    0.28
  20  14   4    0.40    0.20
  20 -14  -4    0.34    0.17
 -14  -4  20    0.30    0.43
   4  20  14    0.71    0.37
 -20 -14   4    0.10    0.44
 -14  -4  20    0.25    0.21
  14   4  20    0.07    0.46
  20  16  -4   61.43    3.46
  16  -4  20   53.89    3.30
  -4  20  16   63.04    3.68
 -16   4  20   56.94    3.71
  20 -16   4   56.46    3.39
 -20 -16  -4   57.54    3.74
   4 -20  16   55.81    3.70
  16  -4  20   60.34    3.72
  16   4  20   56.84    3.82
 -16  -4  20   53.18    3.74
  -4 -20  16   59.82    3.71
 -20 -16   4   61.43    3.86
  20  16   4   53.27    3.30
  20 -16  -4   61.48    3.32
   4  20  16   64.28    3.70
  18  -4  20   -0.03    0.17
  18  -4  20    0.20    0.36
   4 -20  18   -0.32    0.27
  -4  20  18    0.36    0.40
 -20 -18  -4    0.34    0.42
  20  18  -4    0.23    0.25
  20 -18   4    0.12    0.20
 -18   4  20    0.35    0.41
 -18  -4  20    0.23    0.45
  20  18   4    0.14    0.20
   4  20  18    0.20    0.40
 -20 -18   4   -0.18    0.48
  -4 -20  18    0.16    0.29
  18   4  20    0.32    0.46
   0  -6  20    0.89    0.45
   6 -20   0    0.05    0.17
 -20   0   6   -0.05    0.36
  20   0   6    0.17    0.14
   0  -6  20    0.21    0.20
  20   0  -6    0.19    0.15
 -20   0  -6   -0.50    0.29
   0   6  20    0.59    0.44
  -6 -20   0   -0.06    0.18
  -2   6  20    1.37    0.50
   2  -6  20    1.47    0.52
   2  -6  20    0.89    0.24
 -20   2   6    1.23    0.46
  20  -2   6    0.89    0.22
  -6 -20  -2    0.83    0.23
  20   2  -6    0.97    0.22
 -20  -2  -6    1.49    0.43
   6 -20   2    0.86    0.26
   6 -20  -2    0.94    0.24
 -20   2  -6    1.10    0.41
 -20  -2   6    1.27    0.50
  -2  -6  20    0.97    0.49
  -2  -6  20    1.02    0.28
  -6 -20   2    0.86    0.26
  20   2   6    0.86    0.23
   2   6  20    1.46    0.55
  20  -2  -6    0.81    0.21
  20   4  -6    0.60    0.19
  -4   6  20    1.10    0.45
  -6 -20  -4    0.58    0.21
   4  -6  20    0.60    0.22
   4  -6  20    0.44    0.42
 -20   4   6    0.50    0.44
  20  -4   6    0.42    0.16
   6 -20   4    0.16    0.23
  -4  -6  20    0.43    0.24
  -4  -6  20    0.89    0.43
  -6 -20   4    0.47    0.28
   4   6  20    0.90    0.52
 -20  -4   6    0.20    0.51
 -20   4  -6    0.22    0.37
   6 -20  -4    0.55    0.20
  20   4   6    0.52    0.19
  20  -4  -6    0.39    0.18
   6  -6  20   -0.04    0.17
   6  -6  20   -0.20    0.31
  20   6  -6    0.17    0.16
  20  -6   6   -0.04    0.13
 -20   6   6    0.18    0.40
   6 -20   6    0.12    0.20
  -6   6  20    0.01    0.36
   6   6  20    0.27    0.38
 -20   6  -6   -0.22    0.28
  20  -6  -6   -0.25    0.14
 -20  -6   6   -0.44    0.40
  -6  -6  20    0.37    0.39
  -6  -6  20    0.06    0.23
  -6 -20   6   -0.07    0.20
 -20   8   6    0.98    0.45
   8  -6  20    0.59    0.35
  -8   6  20    1.06    0.45
  20   8  -6    0.63    0.21
   8  -6  20    0.46    0.20
   6 -20   8   -0.02    0.27
  20  -8   6    0.46    0.18
  20   8   6    0.13    0.17
 -20  -8   6   -0.31    0.57
  20  -8  -6    0.53    0.17
  -8  -6  20    0.71    0.25
   8   6  20    0.58    0.45
   6  20   8   -0.04    0.27
  -8  -6  20    0.87    0.45
  -6 -20   8   -0.06    0.26
  20  10  -6    0.64    0.23
  10  -6  20    1.09    0.41
  10  -6  20    0.68    0.23
 -10   6  20    1.00    0.44
 -20  10   6    1.61    0.49
   6 -20  10    0.99    0.35
  20 -10   6    0.95    0.23
 -10  -6  20    1.59    0.51
 -10  -6  20    0.68    0.27
  10   6  20    1.36    0.54
  20  10   6    0.52    0.20
 -20  10  -6    1.10    0.40
   6  20  10    0.32    0.36
 -20 -10   6    0.83    0.62
  -6 -20  10    0.81    0.33
  20 -10  -6    0.90    0.21
   6 -20  12    0.24    0.32
 -20  12   6   -0.13    0.38
  20  12  -6    0.26    0.23
  12  -6  20    0.64    0.22
 -12   6  20    0.41    0.36
  12  -6  20    1.10    0.42
  20 -12   6    0.48    0.21
  -6 -20  12    0.01    0.30
 -12  -6  20    0.28    0.23
 -20 -12   6   -0.90    0.56
  20 -12  -6    0.32    0.16
 -12  -6  20    0.29    0.45
   6  20  12    0.10    0.33
  20  12   6    0.48    0.20
  12   6  20    0.59    0.47
   6 -20  14   -0.12    0.29
  14  -6  20   -0.15    0.17
  14  -6  20   -0.11    0.30
  20 -14   6    0.16    0.18
 -20  14   6   -0.12    0.33
  20  14  -6   -0.15    0.21
 -14   6  20   -0.25    0.30
 -14  -6  20    0.27    0.42
 -20 -14   6   -0.73    0.53
   6  20  14   -0.77    0.32
 -14  -6  20    0.17    0.22
  14   6  20   -0.18    0.41
  20 -14  -6   -0.04    0.14
  -6 -20  14   -0.17    0.21
  20  14   6   -0.25    0.17
  16  -6  20    0.36    0.21
  20  16  -6    0.32    0.24
  20 -16   6    0.49    0.25
   6 -20  16   -0.01    0.34
  -6  20  16   -0.26    0.38
  16  -6  20    0.58    0.37
 -16   6  20    0.63    0.42
  -6 -20  16   -0.29    0.31
  20  16   6    0.30    0.21
 -16  -6  20    1.19    0.54
 -20 -16   6   -1.20    0.58
 -16  -6  20    0.44    0.25
   6  20  16   -0.28    0.38
  16   6  20    1.35    0.52
   6 -20  18    0.25    0.35
  20  18  -6    0.20    0.25
  -6  20  18   -0.20    0.35
  18  -6  20    0.48    0.36
  18  -6  20    0.15    0.22
  20 -18   6    0.26    0.25
 -18   6  20    0.24    0.38
 -20 -18   6   -0.49    0.55
   6  20  18    0.10    0.46
 -18  -6  20    0.38    0.52
  20  18   6    0.44    0.23
  18   6  20    0.58    0.48
  -6 -20  18    0.19    0.33
   0   8  20   68.50    4.17
   0  -8  20   65.87    4.08
  -8 -20   0   64.03    3.67
  20   0   8   66.97    3.61
   0  -8  20   66.46    3.79
 -20   0   8   58.16    3.97
   8 -20   0   67.45    3.70
  20   0  -8   63.83    3.58
  20  -2   8    0.46    0.18
   2  -8  20   -0.38    0.47
  -2   8  20    0.03    0.42
   8 -20   2    0.59    0.22
 -20   2   8    1.17    0.48
  -8 -20  -2    0.71    0.21
  20   2  -8    0.36    0.18
   2  -8  20   -0.17    0.24
  20   2   8    0.68    0.34
 -20  -2   8    1.35    0.52
   8 -20  -2    0.71    0.20
  20  -2  -8    0.33    0.18
   2   8  20   -0.32    0.46
  -2  -8  20    0.13    0.45
  -2  -8  20    0.49    0.30
  -8 -20   2    0.90    0.25
  20   2   8    0.35    0.18
  20  -4   8  106.05    5.86
  -4   8  20  110.20    6.47
  -8 -20  -4  105.67    5.85
   8 -20   4  112.86    6.05
   4  -8  20  106.32    5.95
  20   4  -8  113.68    5.88
 -20   4   8  108.53    6.36
   4  -8  20  114.46    6.46
 -20  -4   8  103.81    6.45
 -20   4  -8  114.36    6.30
   4   8  20  121.55    6.68
  20   4   8  111.25    5.84
  -4  -8  20   98.87    6.03
   8 -20  -4  123.30    5.88
  -8 -20   4  105.04    5.99
  -4  -8  20  113.06    6.50
  20  -4  -8  109.49    5.81
  20   4   8  107.52    6.40
   6  -8  20   -0.12    0.35
   8 -20   6    0.61    0.25
  20  -6   8    0.32    0.17
  -6   8  20   -0.19    0.39
  20   6  -8    0.38    0.18
 -20   6   8    1.25    0.49
   6  -8  20    0.02    0.23
  -8 -20  -6    0.70    0.20
   8  20   6   -0.22    0.25
  -6  -8  20    0.09    0.37
 -20   6  -8    0.58    0.32
  20   6   8    0.92    0.38
  20   6   8    0.11    0.17
  -6  -8  20   -0.46    0.23
 -20  -6   8    0.62    0.54
   6   8  20    0.20    0.43
  20  -6  -8    0.11    0.16
  -8 -20   6    0.84    0.28
   8  -8  20   86.37    4.90
 -20   8   8   86.44    4.88
   8 -20   8   83.48    4.75
  20   8  -8   81.00    4.52
  -8   8  20   82.99    4.96
  20  -8   8   78.78    4.50
   8  -8  20   81.36    4.55
  -8 -20   8   78.70    4.69
  20  -8  -8   84.10    4.42
   8  20   8   78.79    4.70
  20   8   8   84.53    4.99
  -8  -8  20   80.01    4.71
   8   8  20   80.75    5.09
  -8  -8  20   74.72    4.92
 -20   8  -8   85.85    4.75
 -20  -8   8   84.36    5.09
  20   8   8   85.34    4.46
 -20  10   8    0.56    0.37
  20  10  -8    0.49    0.22
  10  -8  20    0.69    0.39
 -10   8  20    0.03    0.38
  20 -10   8    0.42    0.19
  10  -8  20    0.32    0.22
   8 -20  10    0.37    0.27
  20 -10  -8    0.15    0.15
  20  10   8   -0.09    0.14
 -10  -8  20    0.24    0.28
 -10  -8  20    0.45    0.41
 -20 -10   8    0.00    0.50
  20  10   8    0.53    0.39
  -8 -20  10    0.22    0.26
   8  20  10    0.22    0.31
  10   8  20    0.42    0.46
 -12   8  20   63.62    4.13
  12  -8  20   66.05    3.83
  20  12  -8   71.08    3.89
 -20  12   8   71.58    4.09
  20 -12   8   63.61    3.82
   8 -20  12   62.77    4.06
  -8 -20  12   68.30    4.10
  20 -12  -8   73.53    3.72
   8  20  12   67.99    4.03
  20  12   8   69.40    3.75
  20  12   8   69.55    4.22
 -20 -12   8   64.46    4.31
 -12  -8  20   61.72    4.17
 -12  -8  20   62.70    3.94
  12   8  20   76.57    4.42
  20  14  -8   -0.06    0.21
  14  -8  20    0.15    0.20
  20 -14   8    0.08    0.20
 -14   8  20    0.44    0.37
   8 -20  14    0.29    0.32
 -20  14   8    0.60    0.38
  20  14   8    0.13    0.35
  -8 -20  14    0.21    0.29
  14   8  20   -0.07    0.42
   8  20  14    0.23    0.37
 -14  -8  20    0.25    0.26
  20  14   8    0.05    0.19
 -20 -14   8   -1.02    0.57
 -14  -8  20    0.43    0.43
 -16   8  20   42.78    2.88
  16  -8  20   41.06    2.63
  20  16  -8   42.86    2.71
   8 -20  16   40.23    2.92
  20 -16   8   43.82    2.72
 -16  -8  20   42.76    3.00
   8  20  16   49.57    2.92
  20  16   8   44.90    2.90
 -20 -16   8   40.33    3.00
  20  16   8   42.25    2.54
  -8 -20  16   40.23    2.89
  16   8  20   43.57    3.06
  18  -8  20   -0.04    0.20
  20  18  -8    0.02    0.24
 -18   8  20    0.19    0.41
  -8  20  18    0.92    0.42
  20 -18   8    0.17    0.23
   8 -20  18    0.04    0.30
   8  20  18   -0.23    0.37
 -20 -18   8   -1.30    0.59
  -8 -20  18    0.10    0.27
 -18  -8  20    0.78    0.59
  20  18   8   -0.15    0.34
  18   8  20    0.13    0.44
 -18  -8  20   -0.31    0.24
  20  18   8    0.18    0.20
  20   0 -10    0.06    0.15
   0 -10  20    0.51    0.26
  20   0  10    0.10    0.14
 -10 -20   0    0.33    0.21
 -20   0  10    0.33    0.42
   0 -10  20    0.00    0.36
  20   0  10    0.04    0.28
  10 -20   0    0.20    0.16
   0  10  20   -0.08    0.35
 -10 -20  -2    0.15    0.16
  20  -2  10    0.21    0.30
   2 -10  20    0.40    0.40
   2 -10  20    0.38    0.26
  -2  10  20    0.46    0.39
  10 -20   2    0.43    0.21
  20  -2  10    0.32    0.17
  20   2 -10    0.22    0.15
 -20   2  10    0.14    0.44
  20   2  10    0.91    0.40
 -20  -2  10    0.58    0.51
  20   2  10    0.19    0.17
  -2 -10  20    0.63    0.42
   2  10  20    0.04    0.42
  -2 -10  20    0.31    0.24
 -10 -20   2    0.47    0.21
  20  -2 -10   -0.01    0.16
  10 -20  -2    0.21    0.16
  10 -20   4    0.31    0.24
  -4  10  20    0.30    0.38
 -10 -20  -4    0.21    0.17
   4 -10  20    0.12    0.22
 -20   4  10    0.06    0.43
  20  -4  10    0.51    0.19
  20   4 -10    0.39    0.19
  -4 -10  20    0.60    0.43
 -20  -4  10    0.53    0.49
  20   4  10    0.27    0.31
  20   4  10    0.41    0.18
 -10 -20   4    0.25    0.22
   4  10  20    0.24    0.42
  -4 -10  20    0.67    0.30
  10  20   4    0.03    0.24
  20  -4 -10    0.11    0.15
  10 -20   6    0.88    0.29
  -6  10  20    1.16    0.43
  20   6 -10    0.95    0.25
  20  -6  10    0.92    0.23
 -20   6  10    1.11    0.49
   6 -10  20    0.39    0.28
  10  20   6    0.67    0.34
  20   6  10    1.01    0.41
  20   6  10    0.42    0.21
  -6 -10  20    1.13    0.51
   6  10  20    1.42    0.54
 -20  -6  10    1.53    0.60
 -10 -20   6    0.79    0.30
  20  -6 -10    0.43    0.20
  -6 -10  20    0.91    0.33
  20  -8  10    0.50    0.20
 -20   8  10    0.08    0.38
  20   8 -10    0.29    0.21
  10 -20   8    0.15    0.27
  -8  10  20    0.24    0.38
   8 -10  20    0.53    0.25
  20   8  10    0.21    0.18
  20   8  10    0.34    0.34
   8  10  20    0.48    0.42
  -8 -10  20    0.27    0.25
  10  20   8    0.24    0.30
  20  -8 -10    0.15    0.15
 -20  -8  10   -0.07    0.49
 -20   8 -10    0.18    0.32
  -8 -10  20    0.35    0.46
 -10 -20   8    0.35    0.28
 -20  10  10    1.63    0.53
 -10  10  20    1.43    0.47
  20 -10  10    0.88    0.26
  10 -20  10    0.74    0.32
  20  10 -10    0.50    0.27
  10 -10  20    0.36    0.27
  10  10  20    1.26    0.51
 -10 -20  10    0.57    0.31
 -10 -10  20    0.69    0.31
  10  20  10    0.40    0.37
 -20 -10  10    1.83    0.74
 -10 -10  20    1.51    0.48
  20  10  10    0.41    0.22
  20  10  10    1.19    0.44
  20  12 -10    0.44    0.27
 -20  12  10    0.57    0.46
  10 -20  12    0.09    0.30
  20 -12  10    0.14    0.19
  12 -10  20    0.53    0.26
 -12  10  20    1.07    0.43
 -12 -10  20    0.41    0.28
  12  10  20   -0.05    0.41
  20  12  10    0.33    0.20
 -12 -10  20    0.93    0.48
 -10 -20  12   -0.07    0.27
  20  12  10    0.95    0.44
 -20 -12  10    0.08    0.58
  10  20  12    0.78    0.42
  14 -10  20    0.80    0.30
  10 -20  14    0.54    0.33
  20 -14  10    0.70    0.27
 -20  14  10    0.92    0.45
 -14  10  20    1.34    0.47
  20  14 -10    1.00    0.30
 -20 -14  10    0.37    0.60
 -14 -10  20    0.83    0.31
 -14 -10  20    0.60    0.49
 -10 -20  14    0.48    0.31
  10  20  14    0.32    0.41
  14  10  20    1.17    0.54
  20  14  10    0.42    0.22
  20  14  10    1.17    0.46
 -16  10  20    0.92    0.41
  10 -20  16    0.34    0.39
  20  16 -10    0.62    0.28
  20 -16  10    0.13    0.26
  16 -10  20    0.65    0.26
 -10 -20  16   -0.16    0.30
  20  16  10    0.37    0.43
 -20 -16  10   -0.98    0.63
 -16 -10  20    1.09    0.55
  10  20  16   -0.10    0.41
  16  10  20    1.19    0.51
  20  16  10    0.45    0.21
 -16 -10  20    0.43    0.29
  20 -18  10    0.05    0.25
  18 -10  20   -0.34    0.18
  10 -20  18    0.19    0.32
 -18  10  20    0.10    0.38
 -10 -20  18   -0.14    0.28
  18  10  20    0.18    0.42
  20  18  10   -0.08    0.35
  10  20  18   -0.55    0.40
 -18 -10  20    0.13    0.49
 -18 -10  20   -0.11    0.26
  12 -20   0   72.09    3.76
  20   0  12   65.93    3.66
  20   0 -12   67.83    3.65
   0 -12  20   57.35    3.87
  20   0  12   66.87    4.05
 -20   0  12   63.27    4.09
  20  -2  12    0.45    0.19
  12 -20   2    0.60    0.22
  20   2 -12    0.55    0.20
  -2  12  20   -0.20    0.44
 -20   2  12    0.86    0.48
   2 -12  20   -0.40    0.27
  20  -2  12    0.75    0.34
  20   2  12    1.60    0.44
 -20  -2  12    1.16    0.57
  12 -20  -2    0.98    0.22
 -12 -20   2    0.80    0.25
  -2 -12  20   -0.07    0.24
   2  12  20   -0.04    0.42
  20  -2 -12    0.36    0.18
  20   2  12    0.86    0.22
  -4  12  20   42.09    2.73
  12 -20   4   39.95    2.48
  20  -4  12   38.00    2.53
  20   4 -12   38.83    2.35
  20  -4  12   37.44    2.34
   4 -12  20   39.71    2.59
 -20   4  12   39.34    2.68
  20   4  12   40.37    2.70
 -12 -20   4   38.60    2.45
  12  20   4   37.90    2.45
 -20  -4  12   37.87    2.74
   4  12  20   41.07    2.81
  -4 -12  20   36.29    2.58
  20  -4 -12   37.78    2.28
  20   4  12   41.27    2.33
  20   6 -12    0.27    0.20
   6 -12  20   -0.04    0.29
  20  -6  12    0.50    0.20
  20  -6  12    0.87    0.33
 -20   6  12    0.28    0.47
  -6  12  20   -0.20    0.39
  12 -20   6    0.51    0.26
  -6 -12  20   -0.50    0.28
  20   6  12    0.29    0.18
  20  -6 -12    0.13    0.17
   6  12  20    0.18    0.44
 -20  -6  12    0.44    0.49
  12  20   6    0.26    0.30
  20   6  12    0.58    0.37
 -12 -20   6    0.24    0.22
  -6 -12  20    0.87    0.44
  12  20   6    0.50    0.21
   8 -12  20   71.00    4.10
  20  -8  12   66.33    3.91
  -8  12  20   70.10    4.28
  20   8 -12   71.86    3.96
  12 -20   8   68.83    4.10
 -20   8  12   69.64    4.25
 -12 -20   8   65.25    4.04
 -20  -8  12   65.19    4.39
   8  12  20   78.51    4.50
  12  20   8   68.12    4.10
  -8 -12  20   72.62    4.32
  -8 -12  20   68.52    4.18
  20   8  12   69.60    3.81
  20   8  12   67.04    4.33
  10 -12  20    0.46    0.32
  20  10 -12    0.46    0.27
 -10  12  20    0.26    0.41
 -20  10  12    0.92    0.48
  12 -20  10    0.82    0.33
  20 -10  12    0.30    0.22
  20  10  12    0.73    0.44
  12  20  10    0.44    0.38
 -10 -12  20    0.16    0.31
 -10 -12  20    0.98    0.48
  20  10  12    0.36    0.21
  10  12  20    1.15    0.55
 -20 -10  12    0.67    0.64
 -12 -20  10    0.52    0.28
 -12  12  20   27.99    2.03
  12 -20  12   25.67    2.05
 -20  12  12   30.43    2.04
  20  12 -12   27.16    1.91
  20 -12  12   26.99    1.89
  12 -12  20   24.31    1.91
 -12 -20  12   24.58    2.01
  12  20  12   27.90    1.96
  12  12  20   30.01    2.23
 -12 -12  20   26.62    2.04
 -20 -12  12   27.70    2.29
  20  12  12   30.19    1.78
  20  12  12   29.30    2.13
 -12 -12  20   28.25    2.11
  12 -20  14    0.21    0.27
 -14  12  20    0.23    0.31
  20  14 -12    0.24    0.26
  14 -12  20    0.11    0.25
 -20  14  12    0.71    0.40
  20 -14  12    0.17    0.22
 -12 -20  14    0.58    0.32
  20  14  12    0.05    0.18
  14  12  20    0.19    0.44
 -14 -12  20    0.44    0.46
 -14 -12  20    0.33    0.29
  20  14  12    0.26    0.40
  12  20  14    0.20    0.40
 -20 -14  12    0.02    0.63
  16 -12  20   39.45    2.65
  12 -20  16   36.18    2.79
  20  16 -12   42.85    2.69
  20 -16  12   38.64    2.66
 -16  12  20   40.63    2.77
  12  20  16   43.19    2.78
 -16 -12  20   37.70    2.69
  16  12  20   47.56    3.03
 -12 -20  16   39.24    2.83
 -16 -12  20   37.46    2.86
 -20 -16  12   42.68    3.03
  20  16  12   43.50    2.85
  20 -18  12    0.26    0.28
  18 -12  20    0.43    0.27
 -18  12  20    0.54    0.38
  12 -20  18   -0.01    0.26
 -18 -12  20   -0.33    0.26
 -12 -20  18    0.21    0.31
  20  18  12    0.25    0.40
 -18 -12  20    0.46    0.51
  12  20  18    0.37    0.44
  18  12  20    0.08    0.43
  20   0  14    0.13    0.16
 -20   0  14    0.09    0.49
  20   0  14    0.21    0.34
  20   0 -14    0.21    0.17
  14  20   0    0.13    0.19
   0 -14  20    0.00    0.26
   0  14  20   -0.39    0.43
  14 -20   0    0.26    0.21
  20   2 -14    1.12    0.27
 -20   2  14    1.36    0.63
  20  -2  14    2.30    0.51
  -2  14  20    1.66    0.57
   2 -14  20    1.22    0.39
  14 -20   2    1.36    0.32
  20  -2  14    1.29    0.27
 -14 -20  -2    2.16    0.48
  14 -20  -2    1.24    0.28
  -2 -14  20    0.90    0.36
  20  -2 -14    1.04    0.24
  14  20   2    1.19    0.30
  20   2  14    2.08    0.52
   2  14  20    1.36    0.55
 -20  -2  14    1.26    0.56
  20   2  14    1.33    0.26
  20   4 -14    0.26    0.21
  -4  14  20    0.34    0.41
   4 -14  20    0.30    0.30
  20  -4  14    0.00    0.27
 -20   4  14    0.21    0.46
  20  -4  14    0.21    0.18
  14 -20   4    0.16    0.23
  -4 -14  20    0.56    0.32
  20   4  14    0.38    0.18
   4  14  20   -0.18    0.41
  14  20   4    0.42    0.21
  20   4  14    0.35    0.39
 -20  -4  14   -0.11    0.46
  20  -6  14    0.16    0.17
   6 -14  20   -0.60    0.25
 -20   6  14   -0.11    0.38
  -6  14  20   -0.20    0.31
  20   6 -14   -0.20    0.19
  14 -20   6   -0.17    0.21
  20  -6  14   -0.04    0.25
  20   6  14   -0.30    0.15
   6  14  20    0.10    0.43
 -20  -6  14    0.30    0.50
  14  20   6   -0.12    0.17
 -14 -20   6   -0.03    0.20
  -6 -14  20    0.19    0.27
  20   6  14   -0.18    0.32
  20  -8  14    0.41    0.22
  14 -20   8    0.03    0.27
   8 -14  20   -0.01    0.31
  20   8 -14    0.09    0.22
  20  -8  14    0.17    0.31
  -8  14  20    0.81    0.40
 -20   8  14    0.30    0.45
  20   8  14    0.24    0.37
  -8 -14  20    0.49    0.30
 -14 -20   8    0.20    0.24
 -20  -8  14   -0.50    0.49
   8  14  20    0.47    0.41
  20   8  14    0.03    0.16
  14  20   8    0.10    0.32
 -10  14  20    1.16    0.47
  14 -20  10    0.49    0.31
  20  10 -14    0.90    0.31
  20 -10  14    0.74    0.27
  10 -14  20    0.38    0.33
 -20  10  14    0.92    0.47
  10  14  20    0.95    0.51
 -10 -14  20    0.86    0.35
  14  20  10    0.26    0.39
  20  10  14    0.99    0.45
 -20 -10  14    1.71    0.75
  20  10  14    0.20    0.22
 -14 -20  10    0.93    0.32
  20  12 -14    0.06    0.22
  20 -12  14    0.03    0.22
  12 -14  20    0.36    0.30
 -12  14  20    0.62    0.40
 -20  12  14    0.53    0.40
  14 -20  12   -0.01    0.30
 -20 -12  14    0.52    0.67
  20  12  14    0.47    0.44
  12  14  20    0.31    0.47
  14  20  12   -0.07    0.35
 -14 -20  12    0.23    0.30
 -12 -14  20    0.27    0.29
  14 -20  14   -0.13    0.25
 -14  14  20   -0.05    0.37
  20 -14  14   -0.09    0.23
  20  14 -14   -0.19    0.23
 -20  14  14    0.41    0.37
  14 -14  20   -0.37    0.21
  14  20  14   -0.31    0.37
 -14 -14  20    0.07    0.29
 -20 -14  14   -0.56    0.57
  14  14  20    0.22    0.42
  20  14  14    0.44    0.42
 -14 -20  14   -0.15    0.19
 -20  16  14    1.36    0.42
  14 -20  16   -0.29    0.31
  20 -16  14    0.13    0.26
 -16  14  20    1.25    0.45
  16 -14  20    0.39    0.30
  14  20  16    0.07    0.41
  20  16  14    0.22    0.44
  16  14  20    1.26    0.55
 -20 -16  14   -0.27    0.63
 -14 -20  16    0.07    0.32
 -16 -14  20    0.32    0.30
  14 -20  18    0.09    0.32
 -18  14  20    0.49    0.41
  18 -14  20    0.12    0.29
  20 -18  14    0.44    0.35
  20  18  14    0.79    0.48
  14  20  18    0.84    0.54
  18  14  20    0.90    0.53
 -18 -14  20    0.51    0.36
 -14 -20  18    0.28    0.33
 -20 -18  14    0.48    0.35
 -18 -14  20    1.38    0.66
 -20   0  16   46.93    3.32
   0 -16  20   48.28    3.26
   0  16  20   52.72    3.37
  16  20   0   46.36    2.94
  16 -20   0   54.26    2.99
 -16 -20   0   51.91    3.22
  20   0  16   48.24    3.25
  20   0  16   49.56    2.89
  20   0 -16   49.20    2.89
  16  20  -2    0.53    0.25
   2 -16  20   -0.02    0.41
  20  -2  16    1.49    0.44
  -2  16  20    0.48    0.50
  20   2 -16    0.51    0.21
  20  -2  16    0.70    0.23
 -16 -20  -2    0.69    0.49
 -20   2  16    0.54    0.47
  16 -20   2    0.84    0.27
  20   2  16    0.97    0.24
   2  16  20   -0.03    0.50
  16 -20  -2    0.97    0.26
 -20  -2  16    0.35    0.56
  -2 -16  20    0.39    0.41
  16  20   2    0.32    0.24
  20   2  16    1.03    0.45
  20  -4  16   58.68    3.71
 -20   4  16   60.20    3.83
  20   4 -16   55.38    3.41
  16 -20   4   59.92    3.54
   4 -16  20   53.90    3.72
  -4  16  20   64.59    3.84
  20  -4  16   57.48    3.41
 -20  -4  16   58.98    3.95
  20   4  16   61.89    3.37
  16  20   4   60.34    3.44
   4  16  20   68.58    3.97
  -4 -16  20   59.39    3.77
  20   4  16   58.34    3.86
  -6  16  20    0.17    0.44
  20  -6  16    1.04    0.38
  20   6 -16    0.32    0.25
   6 -16  20   -0.46    0.30
  20  -6  16    0.40    0.22
  16 -20   6    0.49    0.29
 -20   6  16    0.79    0.46
 -20  -6  16    1.44    0.67
  16  20   6    0.44    0.24
  -6 -16  20   -0.34    0.30
  20   6  16    0.38    0.19
  20   6  16    0.96    0.48
   6  16  20    0.18    0.50
  16  20   6    0.59    0.38
  -8  16  20   44.53    2.90
  20  -8  16   39.23    2.63
  20   8 -16   41.09    2.68
  16 -20   8   46.06    2.85
   8 -16  20   45.82    2.99
 -20   8  16   43.62    2.91
  20   8  16   43.69    3.04
 -16 -20   8   45.37    2.84
   8  16  20   48.13    3.07
  -8 -16  20   41.26    2.93
  20   8  16   43.18    2.53
 -20  -8  16   41.20    3.08
  16  20   8   42.96    2.80
  20 -10  16    0.50    0.24
  16 -20  10    0.15    0.30
 -10  16  20    0.48    0.43
  20  10 -16    0.50    0.27
 -20  10  16    0.21    0.36
  10 -16  20    0.22    0.35
  16  20  10    0.31    0.38
  20  10  16    0.92    0.47
 -10 -16  20    0.04    0.35
  10  16  20    0.24    0.48
 -16 -20  10    0.48    0.29
 -20 -10  16    1.43    0.71
  20 -12  16   34.99    2.57
  12 -16  20   39.32    2.79
 -12  16  20   43.23    2.78
 -20  12  16   43.80    2.78
  16 -20  12   36.98    2.72
 -16 -20  12   41.01    2.77
 -12 -16  20   37.19    2.80
  20  12  16   43.58    2.93
 -20 -12  16   38.79    2.98
  12  16  20   47.91    3.00
  16  20  12   42.10    2.74
  16 -20  14    0.24    0.36
  14 -16  20   -0.01    0.33
  20 -14  16    0.47    0.28
 -14  16  20    0.46    0.42
 -20  14  16    0.86    0.43
  14  16  20    0.23    0.51
  16  20  14    0.26    0.42
  20  14  16    1.08    0.51
 -20 -14  16    0.28    0.66
 -14 -16  20    0.05    0.33
 -16 -20  14    0.35    0.30
 -16  16  20   31.90    2.20
  20 -16  16   28.09    2.17
  16 -20  16   28.68    2.29
 -20  16  16   32.35    2.18
  16 -16  20   28.37    2.23
  16  20  16   31.06    2.25
 -20 -16  16   27.41    2.22
 -16 -16  20   27.31    2.23
  16  16  20   31.77    2.38
  20  16  16   31.85    2.33
 -16 -20  16   27.67    2.25
  16 -20  18   -0.22    0.27
 -18  16  20    1.01    0.44
  18 -16  20    0.13    0.30
  20 -18  16    0.18    0.28
 -16 -20  18   -0.08    0.29
 -20 -18  16    0.19    0.32
  20  18  16    0.90    0.50
  16  20  18   -0.11    0.45
 -18 -16  20    0.11    0.32
  18  16  20    0.01    0.47
  18  20   0    0.01    0.22
  20   0  18    0.23    0.36
   0 -18  20    0.24    0.33
   0  18  20   -0.38    0.42
  18 -20   0    0.07    0.19
 -18 -20   0    0.05    0.43
  20   0  18    0.27    0.19
 -20   0  18    0.15    0.47
  20  -2  18    0.18    0.36
 -20   2  18    0.63    0.47
 -18 -20  -2   -0.16    0.37
  -2  18  20   -0.16    0.42
  18 -20   2    0.08    0.19
  20  -2  18   -0.08    0.16
  18  20  -2   -0.03    0.22
   2 -18  20   -0.11    0.32
 -20  -2  18    0.10    0.50
  20   2  18   -0.06    0.18
 -18 -20   2   -0.13    0.44
   2  18  20   -0.12    0.41
  18 -20  -2    0.01    0.17
  -2 -18  20    0.20    0.31
  18  20   2    0.12    0.22
  20   2  18    0.26    0.41
  20   4 -18   -0.04    0.22
 -18 -20  -4    0.11    0.38
  20  -4  18    0.31    0.21
  -4  18  20    0.01    0.42
   4 -18  20   -0.07    0.33
  20  -4  18    0.10    0.32
  18 -20   4    0.12    0.21
  18  20  -4    0.06    0.22
 -20   4  18    0.43    0.40
  18  20   4    0.07    0.20
 -20  -4  18    0.28    0.55
  20   4  18    0.33    0.43
  -4 -18  20    0.25    0.31
   4  18  20    0.03    0.42
  20   4  18    0.00    0.16
   6 -18  20    0.18    0.36
 -20   6  18    0.41    0.43
  20   6 -18    0.16    0.22
  -6  18  20    0.39    0.42
  20  -6  18    0.38    0.22
  20  -6  18    0.14    0.32
  18 -20   6    0.11    0.24
  20   6  18    0.27    0.45
   6  18  20    0.43    0.46
 -20  -6  18    0.41    0.57
  18  20   6    0.20    0.23
  -6 -18  20    0.25    0.34
  -8  18  20    0.61    0.41
  18 -20   8    0.03    0.22
 -20   8  18    0.32    0.42
   8 -18  20   -0.25    0.32
  20   8 -18    0.19    0.24
  20  -8  18   -0.02    0.21
  18  20   8   -0.35    0.33
 -20  -8  18   -0.02    0.63
  20   8  18    0.04    0.39
   8  18  20    0.68    0.50
  -8 -18  20    0.25    0.33
  20 -10  18    0.08    0.22
 -10  18  20    0.24    0.36
  18 -20  10    0.18    0.29
 -20  10  18    0.22    0.38
  10 -18  20   -0.35    0.30
 -10 -18  20   -0.02    0.29
 -20 -10  18   -0.93    0.45
  18  20  10   -0.74    0.35
  20  10  18   -0.17    0.39
 -18 -20  10   -0.18    0.26
  10  18  20    0.05    0.44
  18 -20  12    0.25    0.32
  12 -18  20   -0.08    0.35
  20 -12  18   -0.17    0.24
 -12  18  20    0.07    0.36
 -20  12  18    0.93    0.41
 -20 -12  18    0.08    0.27
  20  12  18   -0.08    0.40
 -12 -18  20   -0.11    0.27
 -20 -12  18    0.53    0.62
  18  20  12   -0.05    0.38
  12  18  20   -0.03    0.41
 -18 -20  12   -0.11    0.30
 -14  18  20    1.27    0.45
  18 -20  14    0.70    0.40
  20 -14  18    0.58    0.32
 -20  14  18    1.35    0.46
  14 -18  20    0.54    0.40
 -20 -14  18    0.38    0.58
 -14 -18  20    0.80    0.41
  18  20  14    0.61    0.51
  20  14  18    1.63    0.59
 -20 -14  18    0.26    0.32
  14  18  20    0.72    0.49
 -18 -20  14    0.44    0.34
 -16  18  20    1.06    0.43
  16 -18  20    0.14    0.35
 -20  16  18    1.14    0.44
  18 -20  16    0.30    0.35
  20 -16  18    0.05    0.30
  18  20  16    0.23    0.46
  20  16  18    0.14    0.48
 -20 -16  18    0.20    0.32
  16  18  20    0.33    0.49
 -18 -20  16    0.00    0.31
 -16 -18  20    0.41    0.35
  20 -18  18   -0.19    0.28
  18 -18  20   -0.41    0.30
  18 -20  18    0.00    0.33
 -18  18  20    0.66    0.42
 -18 -18  20   -0.30    0.28
 -18 -20  18   -0.10    0.32
  18  18  20   -0.10    0.46
  18  20  18   -0.52    0.41
 -20 -18  18   -0.18    0.31
  20  18  18   -0.06    0.43
 -20 -20   0   44.32    2.93
 -20   0  20   40.74    2.95
   0 -20  20   38.55    2.90
   0  20  20   42.21    2.88
  20 -20   0   43.49    2.62
  20   0  20   39.68    2.91
  20   0  20   40.28    2.49
  20  20   0   42.36    2.63
 -20 -20  -2    0.32    0.49
  20  -2  20    0.34    0.41
  20  20  -2    0.39    0.26
 -20   2  20    0.75    0.49
  20  -2  20    0.36    0.21
  -2  20  20   -0.33    0.47
   2 -20  20   -0.12    0.39
  20 -20   2    0.26    0.25
   2  20  20    0.13    0.50
 -20 -20   2   -0.35    0.57
  -2 -20  20   -0.03    0.35
  20   2  20    0.53    0.51
  20   2  20    0.46    0.21
 -20  -2  20    0.58    0.50
  20  20   2    0.19    0.25
 -20 -20  -4   24.68    2.00
  20  -4  20   26.61    1.79
 -20   4  20   25.61    2.07
  20  20  -4   25.06    1.86
  -4  20  20   26.45    2.03
   4 -20  20   24.81    2.15
  20  -4  20   23.80    1.96
  20 -20   4   26.14    1.88
   4  20  20   28.95    2.11
 -20  -4  20   25.54    2.16
  20   4  20   28.41    2.21
  -4 -20  20   26.97    2.15
  20  20   4   26.41    1.81
 -20 -20  -6    1.06    0.47
  20 -20   6    0.39    0.28
 -20   6  20    0.87    0.50
  20  20  -6    0.25    0.27
  -6  20  20    0.43    0.47
   6 -20  20    0.14    0.44
  20  -6  20    0.11    0.20
 -20  -6  20    0.84    0.60
  -6 -20  20   -0.12    0.35
  20   6  20    0.90    0.56
   6  20  20    0.09    0.53
  20  20   6    0.26    0.23
  20 -20   8   39.38    2.65
 -20   8  20   38.87    2.75
   8 -20  20   36.80    2.85
  -8  20  20   41.23    2.71
  20  -8  20   35.84    2.49
  -8 -20  20   35.22    2.76
 -20  -8  20   39.60    2.95
   8  20  20   47.92    2.90
  20   8  20   40.53    2.96
  20 -10  20    0.47    0.26
  20 -20  10    0.42    0.31
 -20  10  20    1.62    0.50
  10 -20  20    0.06    0.39
 -10  20  20    0.59    0.46
 -10 -20  20    0.05    0.36
  10  20  20    0.73    0.54
 -20 -10  20    0.27    0.29
 -20 -10  20    0.52    0.61
  20  10  20    1.40    0.60
  20  20  10    0.64    0.47
  20 -12  20   17.15    1.55
  20 -20  12   18.50    1.68
  12 -20  20   17.54    1.78
 -20  12  20   21.52    1.69
 -12 -20  20   17.95    1.76
 -20 -12  20   18.91    1.68
  12  20  20   19.42    1.71
 -20 -12  20   19.77    1.91
 -20 -20  12   21.81    1.78
  20  12  20   19.53    1.82
  20  20  12   19.76    1.65
  20 -14  20    0.23    0.29
  20 -20  14    0.04    0.31
  14 -20  20   -0.63    0.30
 -20  14  20    0.70    0.40
 -14 -20  20    0.00    0.35
 -20 -14  20    0.31    0.32
  14  20  20    0.24    0.49
 -20 -14  20    0.87    0.67
 -20 -20  14   -0.11    0.31
  20  14  20    0.63    0.54
  20  20  14    0.03    0.42
  20 -20  16   22.12    1.94
  20 -16  20   19.62    1.83
 -20  16  20   24.29    1.86
  16 -20  20   20.30    1.97
 -16 -20  20   21.21    1.98
  16  20  20   25.13    1.98
 -20 -20  16   21.04    1.94
 -20 -16  20   21.23    1.91
  20  16  20   24.82    2.05
  20  20  16   22.85    1.89
  20 -18  20   -0.03    0.30
  20 -20  18   -0.12    0.27
  18 -20  20   -0.02    0.31
 -18 -20  20    0.27    0.35
  18  20  20   -0.01    0.48
 -20 -18  20   -0.23    0.23
 -20 -20  18    0.17    0.32
  20  18  20    0.64    0.49
  20  20  18    0.09    0.46
 -21  -1  -1   -0.07    0.32
   1 -21   1   -0.14    0.15
  21  -1   1   -0.09    0.11
 -21   1   1   -0.39    0.27
  -1 -21  -1   -0.06    0.14
  -1   1  21   -0.46    0.37
  21   1  -1   -0.01    0.13
   1  -1  21   -0.15    0.35
  -1 -21   1   -0.12    0.17
 -21  -1   1    0.15    0.34
   1 -21  -1   -0.08    0.14
   1   1  21   -0.20    0.33
  21  -1  -1   -0.07    0.10
 -21   1  -1   -0.08    0.32
  -1  -1  21   -0.38    0.37
  21   1   1   -0.08    0.11
  21   3  -1    0.09    0.13
   1 -21   3   -0.13    0.17
   3  -1  21    0.05    0.41
  -1 -21  -3    0.02    0.16
 -21   3   1   -0.51    0.25
  21  -3   1   -0.06    0.14
  -3   1  21   -0.30    0.35
 -21  -3  -1    0.27    0.34
   3   1  21    0.06    0.39
   1 -21  -3   -0.13    0.12
  -3  -1  21   -0.03    0.37
  21   3   1    0.05    0.12
  -1 -21   3   -0.17    0.16
 -21  -3   1   -0.05    0.31
 -21   3  -1   -0.03    0.29
  21  -3  -1   -0.08    0.11
  21   5  -1   -0.04    0.12
 -21   5   1   -0.36    0.27
   5  -1  21   -0.34    0.37
 -21  -5  -1   -0.14    0.27
  -5   1  21   -0.30    0.30
   1 -21   5   -0.32    0.16
  21  -5   1   -0.12    0.12
  21  -5  -1   -0.07    0.11
   5   1  21   -0.42    0.34
 -21   5  -1   -0.57    0.28
  21   5   1   -0.09    0.13
  -1 -21   5   -0.13    0.17
  -5  -1  21   -0.22    0.31
 -21  -5   1   -0.24    0.30
 -21  -7  -1   -0.35    0.32
  -7   1  21   -0.30    0.33
  21  -7   1   -0.03    0.11
  21   7  -1   -0.04    0.12
   7  -1  21   -0.10    0.11
 -21   7   1   -0.46    0.31
   7  -1  21   -0.23    0.38
   1 -21   7   -0.17    0.19
  -1 -21   7   -0.24    0.19
 -21   7  -1   -0.43    0.28
 -21  -7   1   -0.22    0.34
  21   7   1   -0.02    0.13
  21  -7  -1   -0.11    0.13
   7   1  21   -0.53    0.29
  -7  -1  21   -0.16    0.33
  -9   1  21   -0.18    0.32
   9  -1  21    0.03    0.12
   9  -1  21   -0.40    0.34
  21   9  -1    0.04    0.16
   1 -21   9   -0.31    0.23
  21  -9   1    0.09    0.14
 -21  -9  -1   -0.22    0.38
 -21   9   1    0.20    0.36
  -9  -1  21   -0.12    0.38
  -1 -21   9   -0.42    0.21
  21  -9  -1   -0.23    0.11
 -21   9  -1   -0.03    0.35
  21   9   1   -0.06    0.15
   9   1  21    0.01    0.36
 -21  -9   1   -0.47    0.37
 -11   1  21    0.00    0.38
 -21  11   1   -0.27    0.38
  21  11  -1    0.22    0.17
  21 -11   1    0.13    0.16
  11  -1  21   -0.08    0.13
 -21 -11  -1    0.09    0.43
   1 -21  11    0.13    0.29
  11  -1  21    0.15    0.43
 -11  -1  21   -0.03    0.41
  21  11   1   -0.07    0.17
 -21  11  -1   -0.35    0.37
  -1 -21  11    0.20    0.28
  11   1  21   -0.19    0.42
  21 -11  -1    0.00    0.14
 -21 -11   1    0.06    0.46
  13  -1  21   -0.39    0.31
  13  -1  21   -0.06    0.13
 -21 -13  -1    0.07    0.36
  21  13  -1   -0.10    0.16
  21 -13   1   -0.09    0.13
 -13   1  21    0.04    0.36
   1 -21  13   -0.20    0.27
  21 -13  -1   -0.16    0.13
  -1 -21  13   -0.19    0.23
 -21 -13   1    0.31    0.43
  21  13   1   -0.17    0.14
  13   1  21   -0.63    0.34
 -13  -1  21   -0.39    0.33
  15  -1  21   -0.47    0.34
   1 -21  15   -0.16    0.25
  21 -15   1   -0.11    0.16
  21  15  -1   -0.41    0.17
 -15   1  21   -0.28    0.37
  -1  21  15   -0.58    0.30
 -21 -15  -1   -0.52    0.40
  -1 -21  15   -0.02    0.28
  15   1  21   -0.43    0.38
 -21 -15   1   -0.42    0.43
 -15  -1  21   -0.58    0.38
  21  15   1   -0.37    0.17
   1  21  15   -0.28    0.33
  21 -15  -1   -0.22    0.14
  17  -1  21    0.11    0.37
 -17   1  21   -0.09    0.41
  21  17  -1   -0.27    0.20
  21 -17   1   -0.14    0.17
   1 -21  17   -0.16    0.27
  -1  21  17   -0.22    0.36
  17  -1  21   -0.14    0.16
 -21 -17  -1   -0.13    0.38
  17   1  21   -0.12    0.14
  17   1  21    0.09    0.40
  21 -17  -1   -0.21    0.14
  21  17   1   -0.32    0.20
   1  21  17    0.18    0.39
 -21 -17   1   -0.27    0.41
 -17  -1  21    0.10    0.44
  -1 -21  17   -0.09    0.30
  -1  21  19   -0.27    0.40
  19  -1  21   -0.36    0.16
  19  -1  21   -0.71    0.37
 -19   1  21   -0.27    0.35
  21 -19   1   -0.05    0.19
 -21 -19  -1   -0.48    0.45
   1 -21  19   -0.46    0.28
  21  19  -1   -0.06    0.23
  21 -19  -1   -0.22    0.18
  19   1  21   -0.75    0.38
 -19  -1  21   -0.03    0.47
  -1 -21  19    0.02    0.34
 -21 -19   1   -0.70    0.45
  21  19   1   -0.37    0.20
   1  21  19   -0.46    0.39
   1  -3  21   -0.07    0.11
 -21  -1  -3   -0.16    0.28
  21  -1   3    0.08    0.13
  21   1  -3   -0.05    0.11
  -1   3  21   -0.37    0.34
  -3 -21  -1   -0.05    0.14
 -21   1   3    0.06    0.33
   1  -3  21   -0.34    0.31
   3 -21   1   -0.09    0.16
 -21  -1   3    0.06    0.33
  21   1   3    0.03    0.11
  -1  -3  21    0.05    0.14
  -1  -3  21   -0.40    0.34
  21  -1  -3    0.07    0.13
   3 -21  -1   -0.11    0.13
  -3 -21   1   -0.15    0.15
   1   3  21   -0.08    0.35
 -21   1  -3    0.13    0.35
  -3   3  21   -0.34    0.35
   3 -21   3   -0.12    0.17
 -21   3   3    0.00    0.36
   3  -3  21   -0.07    0.12
  -3 -21  -3   -0.14    0.15
  21   3  -3   -0.14    0.12
 -21  -3  -3   -0.13    0.28
   3  -3  21   -0.02    0.36
  21  -3   3   -0.18    0.10
 -21  -3   3   -0.31    0.35
  21   3   3    0.01    0.11
  -3 -21   3   -0.12    0.16
  21  -3  -3   -0.03    0.12
   3 -21  -3   -0.12    0.11
  -3  -3  21   -0.42    0.39
   3   3  21   -0.50    0.34
 -21   3  -3   -0.10    0.29
   3 -21   5   -0.03    0.20
  21   5  -3   -0.12    0.11
 -21  -5  -3   -0.15    0.30
 -21   5   3   -0.11    0.36
   5  -3  21   -0.02    0.11
  -5   3  21   -0.26    0.35
   5  -3  21   -0.29    0.32
  21  -5   3   -0.15    0.13
 -21  -5   3   -0.11    0.36
   5   3  21   -0.31    0.38
  21  -5  -3   -0.08    0.12
 -21   5  -3   -0.39    0.28
  -5  -3  21   -0.32    0.35
  21   5   3    0.05    0.14
  -3 -21   5   -0.32    0.18
  21   7  -3   -0.27    0.12
 -21  -7  -3   -0.20    0.32
 -21   7   3   -0.30    0.36
  -7   3  21   -0.26    0.31
   7  -3  21   -0.07    0.37
   3 -21   7   -0.12    0.22
   7  -3  21    0.02    0.13
  21  -7   3   -0.15    0.11
   7   3  21   -0.03    0.45
  21   7   3   -0.08    0.12
  21  -7  -3   -0.10    0.12
  -3 -21   7   -0.28    0.18
 -21   7  -3    0.02    0.32
  -7  -3  21   -0.33    0.32
 -21  -7   3   -0.65    0.36
   9  -3  21    0.39    0.17
 -21  -9  -3    0.71    0.45
  -9   3  21    0.42    0.38
   3 -21   9    0.27    0.26
   9  -3  21    0.76    0.44
  21  -9   3    0.28    0.17
 -21   9   3    0.77    0.43
  21   9  -3    0.52    0.21
   9   3  21    0.43    0.45
  -3 -21   9    0.27    0.29
 -21  -9   3    0.58    0.51
  21   9   3    0.22    0.17
  21  -9  -3    0.24    0.17
  -9  -3  21    0.17    0.39
 -21   9  -3   -0.13    0.34
  21 -11   3    0.27    0.18
 -21 -11  -3    0.56    0.46
   3 -21  11    0.39    0.31
 -21  11   3    0.12    0.43
  11  -3  21    0.47    0.18
  11  -3  21    0.73    0.46
 -11   3  21    0.31    0.37
  21  11  -3    0.45    0.22
 -21 -11   3    0.70    0.53
  21 -11  -3    0.55    0.19
 -21  11  -3    0.39    0.35
  -3 -21  11    0.39    0.28
  21  11   3    0.55    0.20
 -11  -3  21    0.55    0.47
  11   3  21    0.68    0.52
  21 -13   3   -0.11    0.14
  13  -3  21   -0.63    0.31
 -21 -13  -3    0.01    0.40
  13  -3  21   -0.13    0.13
 -13   3  21   -0.47    0.32
   3 -21  13   -0.03    0.28
  21  13   3   -0.03    0.16
  13   3  21   -0.65    0.34
  21 -13  -3   -0.06    0.14
 -21 -13   3   -0.13    0.44
   3  21  13   -0.06    0.27
  -3 -21  13   -0.50    0.22
 -13  -3  21   -0.06    0.37
  21  15  -3   -0.12    0.21
  21 -15   3    0.02    0.19
 -21 -15  -3    0.27    0.44
 -15   3  21    0.02    0.35
   3 -21  15    0.13    0.28
  15  -3  21   -0.06    0.39
  15  -3  21   -0.12    0.14
   3  21  15   -0.24    0.35
  21  15   3   -0.05    0.18
 -15  -3  21    0.17    0.45
  21 -15  -3    0.06    0.17
  15   3  21   -0.04    0.45
 -21 -15   3   -0.63    0.45
  -3 -21  15    0.03    0.26
 -17   3  21   -0.15    0.33
 -21 -17  -3   -0.26    0.36
  21  17  -3   -0.07    0.24
   3 -21  17   -0.23    0.28
  21 -17   3   -0.16    0.16
  17  -3  21   -0.05    0.36
  -3  21  17   -0.49    0.35
  17  -3  21   -0.22    0.16
 -17  -3  21   -0.54    0.40
  17   3  21   -0.22    0.35
 -21 -17   3   -0.53    0.46
  21 -17  -3   -0.16    0.16
  21  17   3   -0.33    0.19
   3  21  17   -0.24    0.35
  -3 -21  17   -0.19    0.27
  19  -3  21   -0.21    0.19
  -3  21  19   -0.04    0.42
 -19   3  21   -0.47    0.40
  19  -3  21   -0.20    0.38
  21 -19   3    0.02    0.21
   3 -21  19   -0.02    0.33
  21  19  -3   -0.36    0.23
 -21 -19  -3   -0.36    0.41
   3  21  19   -0.43    0.39
  -3 -21  19   -0.63    0.23
  19   3  21   -0.04    0.45
  21  19   3   -0.33    0.19
 -19  -3  21    0.19    0.51
 -21 -19   3   -0.64    0.50
  21  -1   5   -0.13    0.11
  -5 -21  -1   -0.02    0.17
   1  -5  21   -0.11    0.32
  21   1  -5    0.11    0.13
  -1   5  21   -0.51    0.30
 -21   1   5    0.07    0.38
   1  -5  21    0.01    0.15
 -21  -1  -5   -0.09    0.26
   5 -21   1   -0.02    0.13
  21   1   5   -0.21    0.11
 -21   1  -5   -0.17    0.28
  -1  -5  21   -0.26    0.33
  21  -1  -5   -0.05    0.12
   1   5  21   -0.10    0.36
  -5 -21   1   -0.17    0.15
   5 -21  -1    0.06    0.17
  -1  -5  21   -0.19    0.14
 -21  -1   5   -0.10    0.37
 -21  -3  -5    0.01    0.34
  21  -3   5   -0.03    0.11
  -3   5  21   -0.45    0.32
   3  -5  21   -0.06    0.32
 -21   3   5   -0.45    0.36
   5 -21   3   -0.08    0.17
  -5 -21  -3   -0.15    0.16
  21   3  -5   -0.05    0.12
   3  -5  21    0.14    0.15
  -3  -5  21   -0.16    0.16
 -21   3  -5    0.18    0.30
  -5 -21   3    0.07    0.17
  21  -3  -5   -0.03    0.11
  -3  -5  21   -0.25    0.34
   3   5  21   -0.39    0.37
   5 -21  -3   -0.01    0.14
 -21  -3   5    0.01    0.40
  21   3   5   -0.06    0.13
 -21   5   5   -0.49    0.32
   5  -5  21   -0.28    0.32
  21  -5   5   -0.24    0.09
  -5   5  21   -0.38    0.28
  21   5  -5   -0.07    0.14
  -5 -21  -5   -0.06    0.15
   5  -5  21   -0.02    0.12
 -21  -5  -5   -0.45    0.26
   5 -21   5   -0.04    0.20
   5   5  21   -0.21    0.32
  21  -5  -5    0.01    0.12
 -21   5  -5   -0.51    0.28
  -5 -21   5   -0.26    0.19
 -21  -5   5   -0.27    0.42
  21   5   5   -0.13    0.10
  -5  -5  21   -0.17    0.37
 -21  -7  -5    0.20    0.37
  -7   5  21   -0.25    0.28
 -21   7   5   -0.39    0.38
   5 -21   7   -0.17    0.18
   7  -5  21   -0.34    0.33
   7  -5  21   -0.17    0.12
  21   7  -5   -0.03    0.15
  21  -7   5   -0.04    0.13
   7   5  21   -0.36    0.31
  21  -7  -5   -0.21    0.12
  -7  -5  21   -0.17    0.36
  21   7   5   -0.17    0.12
 -21   7  -5   -0.21    0.27
 -21  -7   5   -0.21    0.42
  -5 -21   7   -0.39    0.17
  -7  -5  21   -0.21    0.19
  21   9  -5    0.01    0.17
   9  -5  21   -0.11    0.13
  21  -9   5   -0.11    0.14
   9  -5  21   -0.34    0.31
  -9   5  21    0.03    0.31
 -21  -9  -5   -0.13    0.34
   5 -21   9   -0.04    0.21
 -21   9   5   -0.37    0.36
   9   5  21   -0.23    0.39
 -21  -9   5   -0.22    0.49
  -5 -21   9   -0.17    0.21
 -21   9  -5   -0.50    0.27
  21   9   5   -0.06    0.14
  -9  -5  21   -0.10    0.19
  -9  -5  21   -0.33    0.36
  21  -9  -5   -0.07    0.12
  11  -5  21   -0.10    0.15
 -21  11   5   -0.32    0.40
 -11   5  21   -0.09    0.33
  21  11  -5   -0.24    0.19
   5 -21  11   -0.10    0.28
 -21 -11  -5   -0.20    0.34
  11  -5  21    0.17    0.34
  21 -11   5    0.06    0.17
  11   5  21   -0.47    0.47
 -21 -11   5    0.02    0.48
   5  21  11    0.24    0.29
  -5 -21  11    0.08    0.26
  21  11   5   -0.13    0.15
 -11  -5  21   -0.09    0.19
 -11  -5  21   -0.43    0.34
  21 -11  -5    0.05    0.15
   5 -21  13   -0.25    0.26
 -21  13   5   -0.41    0.35
 -21 -13  -5    0.43    0.40
 -13   5  21   -0.41    0.31
  13  -5  21   -0.20    0.13
  21 -13   5    0.02    0.16
  13  -5  21   -0.44    0.31
  21  13  -5   -0.48    0.18
 -21 -13   5   -0.82    0.41
  -5 -21  13   -0.27    0.25
 -13  -5  21    0.31    0.41
  21  13   5   -0.07    0.17
   5  21  13   -0.44    0.25
  21 -13  -5   -0.21    0.14
 -13  -5  21   -0.46    0.18
  13   5  21   -0.64    0.42
   5 -21  15   -0.04    0.29
  21 -15   5   -0.03    0.18
  15  -5  21   -0.28    0.14
  21  15  -5   -0.18    0.18
 -21 -15  -5   -0.02    0.38
 -15   5  21    0.16    0.38
  15  -5  21   -0.44    0.33
  15   5  21    0.07    0.43
   5  21  15   -0.38    0.33
  21  15   5   -0.21    0.17
 -21 -15   5   -0.14    0.52
  -5 -21  15    0.22    0.28
  21 -15  -5   -0.24    0.14
 -15  -5  21   -0.15    0.42
  17  -5  21   -0.15    0.17
  17  -5  21    0.05    0.36
  21 -17   5    0.15    0.22
  21  17  -5    0.01    0.21
   5 -21  17   -0.15    0.28
 -17   5  21    0.58    0.41
 -21 -17  -5    0.57    0.43
  17   5  21   -0.04    0.42
   5  21  17    0.28    0.37
 -17  -5  21    0.02    0.50
  -5 -21  17   -0.39    0.29
 -21 -17   5   -0.51    0.48
  21  17   5   -0.12    0.18
  19  -5  21   -0.63    0.35
  21 -19   5   -0.24    0.18
  19  -5  21   -0.12    0.19
  21  19  -5   -0.05    0.26
  -5  21  19   -0.07    0.39
   5 -21  19    0.01    0.34
 -19   5  21   -0.11    0.39
 -21 -19  -5    0.06    0.42
   5  21  19   -0.19    0.40
 -21 -19   5   -0.64    0.60
  21  19   5   -0.21    0.21
  -5 -21  19   -0.13    0.26
  19   5  21   -0.58    0.39
 -19  -5  21   -0.10    0.46
  21   1  -7   -0.19    0.12
 -21  -1  -7   -0.20    0.33
   7 -21   1   -0.14    0.13
   1  -7  21   -0.13    0.34
   1  -7  21   -0.15    0.17
  -7 -21  -1   -0.06    0.14
  21  -1   7   -0.10    0.12
  -1   7  21   -0.21    0.35
 -21   1   7   -0.21    0.41
   7 -21  -1   -0.18    0.14
  -7 -21   1   -0.14    0.17
  21   1   7   -0.04    0.13
  -1  -7  21   -0.14    0.19
   1   7  21   -0.28    0.33
 -21  -1   7   -0.14    0.43
 -21   1  -7   -0.09    0.28
  21  -1  -7   -0.12    0.13
  -7 -21  -3   -0.26    0.17
  21   3  -7   -0.10    0.14
   3  -7  21   -0.09    0.15
  21  -3   7   -0.26    0.12
 -21   3   7   -0.63    0.39
  -3   7  21   -0.44    0.33
   7 -21   3   -0.11    0.17
   3  -7  21   -0.20    0.31
  -3  -7  21   -0.36    0.38
  -7 -21   3    0.00    0.17
 -21   3  -7   -0.11    0.25
   3   7  21   -0.30    0.43
  21  -3  -7   -0.06    0.13
 -21  -3   7   -0.06    0.40
   7 -21  -3   -0.07    0.13
  21   3   7   -0.22    0.11
  -3  -7  21   -0.08    0.19
   5  -7  21    0.07    0.17
  21  -5   7   -0.14    0.13
  -5   7  21   -0.25    0.31
   7 -21   5   -0.08    0.19
  21   5  -7   -0.13    0.13
  -7 -21  -5   -0.11    0.15
   5  -7  21   -0.34    0.32
 -21   5   7   -0.08    0.40
   5   7  21   -0.12    0.35
  -5  -7  21   -0.07    0.18
  -5  -7  21   -0.34    0.37
  21  -5  -7   -0.16    0.13
  21   5   7   -0.12    0.13
  -7 -21   5   -0.15    0.20
 -21   5  -7   -0.54    0.26
 -21  -5   7   -0.68    0.44
 -21   7   7   -0.20    0.42
   7  -7  21    0.04    0.16
   7 -21   7   -0.32    0.19
   7  -7  21   -0.15    0.28
  -7   7  21   -0.24    0.31
  21   7  -7   -0.13    0.15
  21  -7   7   -0.10    0.15
  21  -7  -7   -0.14    0.13
  -7  -7  21   -0.27    0.15
 -21  -7   7   -0.60    0.41
  -7 -21   7    0.06    0.21
   7   7  21   -0.33    0.39
  21   7   7   -0.10    0.13
 -21   7  -7   -0.12    0.28
  -7  -7  21   -0.39    0.37
 -21   9   7   -0.20    0.39
  21   9  -7   -0.17    0.16
   9  -7  21   -0.18    0.30
   9  -7  21   -0.11    0.13
  -9   7  21   -0.08    0.31
   7 -21   9   -0.09    0.23
  21  -9   7   -0.10    0.14
 -21   9  -7   -0.01    0.30
  -9  -7  21    0.02    0.36
  -7 -21   9   -0.26    0.21
   9   7  21   -0.48    0.32
  21  -9  -7   -0.06    0.13
 -21  -9   7   -0.16    0.45
  -9  -7  21    0.09    0.22
  21   9   7    0.03    0.15
  21 -11   7    0.71    0.24
  11  -7  21    0.59    0.23
  21  11  -7    0.38    0.25
 -21  11   7    0.18    0.47
  11  -7  21    0.80    0.42
   7 -21  11    0.75    0.36
 -11   7  21    1.02    0.43
 -11  -7  21    0.77    0.30
  21 -11  -7    0.86    0.21
 -21 -11   7    0.96    0.62
  -7 -21  11    0.81    0.34
  11   7  21    0.21    0.48
 -11  -7  21    0.45    0.45
   7  21  11    0.96    0.37
  21  11   7    0.67    0.22
   7 -21  13    0.12    0.28
  13  -7  21    0.11    0.20
  13  -7  21   -0.52    0.32
 -13   7  21    0.07    0.37
 -21  13   7   -0.41    0.39
  21 -13   7    0.11    0.20
  21  13  -7   -0.09    0.21
  21  13   7    0.07    0.18
  -7 -21  13   -0.02    0.26
 -13  -7  21    0.00    0.24
 -13  -7  21    0.55    0.49
   7  21  13   -0.27    0.30
  21 -13  -7    0.03    0.17
  13   7  21   -0.06    0.44
 -21 -13   7   -0.80    0.51
 -15   7  21    0.23    0.37
   7 -21  15   -0.22    0.29
  21  15  -7    0.05    0.23
  15  -7  21   -0.03    0.17
  21 -15   7    0.06    0.22
   7  21  15   -0.25    0.33
  21  15   7   -0.05    0.17
 -15  -7  21    0.12    0.42
  -7 -21  15    0.03    0.26
  15   7  21   -0.75    0.38
 -21 -15   7   -0.16    0.59
 -15  -7  21   -0.06    0.24
   7 -21  17   -0.19    0.26
  21  17  -7   -0.36    0.20
  17  -7  21   -0.18    0.16
  21 -17   7    0.04    0.22
 -17   7  21    0.08    0.34
  21  17   7   -0.10    0.18
   7  21  17   -0.34    0.37
 -21 -17   7   -1.19    0.50
  -7 -21  17   -0.41    0.27
 -17  -7  21   -0.24    0.41
  17   7  21    0.10    0.43
 -17  -7  21   -0.17    0.20
  21 -19   7   -0.04    0.25
 -19   7  21    0.32    0.41
   7 -21  19    0.14    0.35
  21  19  -7   -0.43    0.25
  19  -7  21    0.00    0.21
   7  21  19   -0.30    0.42
  -7 -21  19    0.21    0.34
 -19  -7  21   -0.10    0.24
  19   7  21   -0.64    0.43
  21  19   7   -0.31    0.19
 -19  -7  21    0.87    0.60
  21  -1   9    0.01    0.14
   1  -9  21    0.04    0.37
   1  -9  21   -0.26    0.17
  -9 -21  -1   -0.12    0.14
  -1   9  21   -0.59    0.29
   9 -21   1    0.04    0.17
 -21   1   9   -0.10    0.42
  21   1  -9    0.04    0.14
  21   1   9   -0.07    0.12
   1   9  21   -0.31    0.33
  21   1   9    0.21    0.29
   9 -21  -1   -0.06    0.16
  -1  -9  21    0.10    0.36
  -1  -9  21   -0.23    0.21
  -9 -21   1   -0.09    0.18
 -21  -1   9   -0.39    0.43
  21  -1  -9   -0.03    0.13
   3  -9  21    0.42    0.25
   9 -21   3    0.57    0.25
  21  -3   9    0.32    0.18
  -3   9  21    0.08    0.41
  -9 -21  -3    0.22    0.20
   3  -9  21    0.46    0.43
 -21   3   9    0.39    0.50
  21   3  -9    0.37    0.19
   9 -21  -3    0.57    0.20
  -9 -21   3    0.48    0.25
  -3  -9  21   -0.07    0.25
  -3  -9  21    0.42    0.44
   3   9  21    0.38    0.44
  21   3   9    0.30    0.34
  21   3   9    0.06    0.17
  21  -3  -9    0.24    0.16
 -21  -3   9    0.80    0.51
   5  -9  21    0.08    0.20
  21  -5   9   -0.03    0.14
   5  -9  21   -0.37    0.29
 -21   5   9    0.04    0.38
   9 -21   5   -0.22    0.15
  -9 -21  -5    0.00    0.13
  -5   9  21   -0.17    0.34
  21   5  -9   -0.07    0.14
 -21   5  -9    0.09    0.28
   5   9  21   -0.37    0.32
  21   5   9    0.04    0.28
  -5  -9  21   -0.43    0.21
 -21  -5   9   -0.72    0.47
  21   5   9   -0.19    0.12
  -9 -21   5   -0.18    0.18
  -5  -9  21   -0.08    0.41
  21  -5  -9   -0.14    0.12
  21  -7   9    0.01    0.14
  21   7  -9   -0.16    0.18
   7  -9  21   -0.02    0.19
   9 -21   7   -0.07    0.19
  -7   9  21   -0.37    0.36
 -21   7   9   -0.38    0.41
 -21   7  -9   -0.49    0.27
  -7  -9  21    0.11    0.41
  -7  -9  21   -0.20    0.24
  21   7   9   -0.11    0.14
   7   9  21   -0.39    0.31
  -9 -21   7    0.06    0.20
  21  -7  -9   -0.13    0.12
  21   7   9   -0.50    0.31
 -21  -7   9   -0.48    0.47
   9 -21   9   -0.51    0.19
  -9   9  21   -0.10    0.33
  21   9  -9   -0.40    0.17
   9  -9  21   -0.22    0.18
  21  -9   9    0.01    0.16
 -21   9   9   -0.46    0.41
  -9  -9  21    0.04    0.24
   9  21   9   -0.29    0.21
  21   9   9   -0.22    0.13
  -9 -21   9   -0.20    0.22
  21   9   9   -0.11    0.33
   9   9  21    0.01    0.41
 -21  -9   9   -0.50    0.50
  -9  -9  21    0.01    0.37
 -21   9  -9   -0.25    0.30
  21  -9  -9   -0.17    0.12
 -21  11   9   -0.18    0.46
  21 -11   9    0.67    0.24
  11  -9  21    0.32    0.26
 -11   9  21    0.87    0.46
  21  11  -9    0.49    0.28
   9 -21  11    0.52    0.35
  21  11   9    0.38    0.20
   9  21  11    0.75    0.38
 -11  -9  21    0.29    0.30
 -11  -9  21    0.93    0.49
  -9 -21  11    0.60    0.32
  21  11   9    1.04    0.49
  11   9  21    0.30    0.55
 -21 -11   9    0.32    0.63
 -21  13   9   -0.51    0.36
  13  -9  21   -0.07    0.17
  21  13  -9   -0.13    0.20
  21 -13   9    0.03    0.18
   9 -21  13   -0.54    0.25
 -13   9  21   -0.40    0.31
  -9 -21  13   -0.17    0.23
  13   9  21   -0.62    0.37
  21  13   9    0.06    0.36
 -13  -9  21    0.10    0.42
  21  13   9   -0.15    0.13
   9  21  13   -0.25    0.29
 -21 -13   9   -0.97    0.51
   9 -21  15    0.28    0.34
  21 -15   9    0.26    0.25
  21  15  -9    0.14    0.25
 -15   9  21    0.50    0.43
  15  -9  21    0.30    0.24
  15   9  21    0.51    0.51
 -21 -15   9    0.23    0.66
 -15  -9  21    0.13    0.28
  -9 -21  15    0.60    0.34
  21  15   9   -0.27    0.42
 -15  -9  21    0.62    0.50
  21  15   9    0.19    0.20
   9  21  15    0.40    0.38
 -17   9  21   -0.36    0.30
  21  17  -9   -0.29    0.23
   9 -21  17   -0.13    0.35
  17  -9  21   -0.12    0.20
  21 -17   9   -0.12    0.21
  17   9  21   -0.05    0.44
  -9 -21  17   -0.58    0.25
 -21 -17   9   -0.90    0.49
 -17  -9  21   -0.33    0.25
  21  17   9    0.06    0.35
  21  17   9   -0.03    0.20
 -17  -9  21    0.02    0.49
   9  21  17   -0.72    0.31
 -19   9  21    0.79    0.44
  19  -9  21   -0.44    0.19
  21 -19   9   -0.03    0.27
   9 -21  19   -0.18    0.30
  21  19  -9   -0.03    0.24
  -9 -21  19    0.27    0.30
 -19  -9  21    0.88    0.63
  21  19   9   -0.46    0.33
  19   9  21   -0.37    0.46
 -19  -9  21   -0.20    0.27
   9  21  19    0.17    0.46
 -21   1  11   -0.34    0.43
  21  -1  11    0.22    0.17
  21  -1  11   -0.18    0.33
 -11 -21  -1    0.29    0.21
  -1  11  21   -0.08    0.37
  11 -21   1   -0.15    0.19
   1 -11  21   -0.08    0.21
  21   1 -11    0.05    0.17
  21   1  11    0.37    0.36
  21  -1 -11   -0.18    0.15
  21   1  11    0.11    0.17
   1  11  21    0.07    0.43
 -21  -1  11   -0.17    0.52
  11 -21  -1    0.14    0.19
 -11 -21   1    0.22    0.22
  -1 -11  21    0.12    0.26
 -11 -21  -3    0.19    0.22
  21  -3  11    0.41    0.19
 -21   3  11   -0.32    0.50
  11 -21   3    0.42    0.26
  21   3 -11    0.21    0.20
  -3  11  21    0.46    0.45
   3 -11  21    0.48    0.29
  21  -3  11    0.75    0.37
  21   3  11    0.52    0.19
  21   3  11    0.61    0.42
  21  -3 -11    0.62    0.20
   3  11  21    0.44    0.54
  -3 -11  21    0.21    0.29
 -11 -21   3    0.51    0.26
 -21  -3  11    0.72    0.52
 -11 -21  -5   -0.02    0.18
 -21   5  11   -1.05    0.42
  -5  11  21    0.10    0.37
  21   5 -11   -0.13    0.16
  21  -5  11   -0.02    0.18
  11 -21   5   -0.16    0.19
   5 -11  21   -0.15    0.22
  21   5  11    0.05    0.34
  -5 -11  21   -0.31    0.39
   5  11  21   -0.72    0.43
  -5 -11  21   -0.11    0.24
  21   5  11    0.00    0.14
 -11 -21   5    0.03    0.22
  21  -5 -11   -0.04    0.14
 -21  -5  11    0.02    0.53
  11 -21   7    0.53    0.31
   7 -11  21    0.59    0.28
 -21   7  11    0.20    0.54
  21  -7  11    0.72    0.23
  21   7 -11    0.30    0.25
  -7  11  21    1.12    0.44
   7  11  21    0.71    0.54
  21   7  11    0.77    0.46
  21  -7 -11    0.60    0.20
 -21  -7  11    1.24    0.63
 -11 -21   7    0.33    0.24
  11  21   7    0.93    0.33
  -7 -11  21    0.29    0.29
  -7 -11  21    0.83    0.51
  21   7  11    0.78    0.21
 -21   7 -11    1.36    0.39
  21  -9  11    0.45    0.22
  21   9 -11    0.40    0.27
  -9  11  21    0.81    0.43
 -21   9  11    0.32    0.46
   9 -11  21    0.80    0.30
  11 -21   9    0.34    0.32
 -11 -21   9    0.15    0.27
   9  11  21    0.26    0.46
 -21  -9  11    0.04    0.57
  21   9  11    0.36    0.19
  -9 -11  21    0.58    0.49
  21   9  11    0.59    0.41
  11  21   9    0.59    0.36
  -9 -11  21    0.49    0.30
 -11  11  21   -0.15    0.32
  21 -11  11   -0.16    0.14
  11 -11  21   -0.21    0.18
  11 -21  11   -0.37    0.22
 -21  11  11   -0.61    0.38
  11  11  21   -0.38    0.44
  11  21  11   -0.33    0.27
  21  11  11   -0.39    0.32
 -21 -11  11   -0.71    0.55
 -11 -21  11   -0.15    0.20
 -11 -11  21   -0.01    0.21
 -11 -11  21   -0.50    0.34
  21  11  11   -0.14    0.14
  13 -11  21   -0.14    0.20
 -13  11  21   -0.04    0.30
  21 -13  11   -0.10    0.18
  21  13 -11   -0.39    0.18
 -21  13  11   -0.25    0.35
  11 -21  13   -0.19    0.25
 -13 -11  21   -0.02    0.45
 -21 -13  11   -0.80    0.56
  21  13  11   -0.11    0.36
  21  13  11   -0.25    0.14
 -11 -21  13   -0.09    0.27
 -13 -11  21   -0.30    0.22
  11  21  13   -0.46    0.28
  13  11  21   -0.07    0.42
 -21  15  11    0.16    0.36
  15 -11  21    0.13    0.24
  21 -15  11    0.24    0.26
 -15  11  21    0.65    0.39
  11 -21  15    0.05    0.28
  21  15 -11   -0.17    0.27
 -15 -11  21    0.17    0.28
  21  15  11   -0.49    0.35
  15  11  21    0.11    0.47
 -21 -15  11   -0.53    0.58
  11  21  15    0.24    0.37
  21  15  11    0.08    0.17
 -15 -11  21    0.71    0.55
 -11 -21  15    0.22    0.30
  17 -11  21   -0.26    0.22
  11 -21  17   -0.42    0.24
  21 -17  11   -0.05    0.23
  21  17 -11    0.16    0.29
 -17  11  21   -0.07    0.40
  11  21  17   -0.23    0.36
  21  17  11   -0.37    0.33
 -21 -17  11   -1.05    0.52
 -17 -11  21    0.44    0.50
 -17 -11  21   -0.20    0.26
  17  11  21   -0.21    0.41
 -11 -21  17   -0.24    0.27
 -19  11  21    0.27    0.39
  21 -19  11   -0.41    0.24
  11 -21  19   -0.33    0.29
  19 -11  21   -0.18    0.21
  21  19  11   -0.76    0.34
 -19 -11  21    0.03    0.60
 -11 -21  19    0.08    0.28
  19  11  21   -0.64    0.39
 -19 -11  21    0.13    0.29
  11  21  19   -0.36    0.41
  21  -1  13   -0.08    0.16
  -1  13  21   -0.42    0.38
   1 -13  21    0.05    0.28
  21   1 -13    0.00    0.15
 -21   1  13   -0.57    0.42
  21  -1  13   -0.40    0.27
  13 -21   1   -0.07    0.19
  13 -21  -1   -0.21    0.18
  21   1  13   -0.12    0.12
  21   1  13   -0.28    0.25
 -21  -1  13   -0.70    0.42
  -1 -13  21   -0.39    0.23
  21  -1 -13   -0.03    0.15
   1  13  21   -0.29    0.38
   3 -13  21    0.16    0.27
  13 -21   3   -0.39    0.16
  21   3 -13   -0.25    0.13
  21  -3  13   -0.12    0.12
  -3  13  21   -0.34    0.36
 -21   3  13   -0.84    0.38
  21  -3  13   -0.06    0.29
  21   3  13   -0.21    0.14
 -13 -21   3   -0.06    0.20
   3  13  21   -0.24    0.37
  21  -3 -13   -0.10    0.13
 -21  -3  13   -0.67    0.47
  21   3  13   -0.30    0.29
  -3 -13  21   -0.31    0.23
  13 -21   5   -0.23    0.23
  -5  13  21   -0.65    0.34
  21   5 -13   -0.40    0.18
  21  -5  13   -0.17    0.26
   5 -13  21   -0.28    0.22
 -21   5  13   -0.24    0.40
  21  -5  13    0.07    0.17
   5  13  21   -0.34    0.38
 -13 -21   5   -0.15    0.21
  21   5  13    0.09    0.36
 -21  -5  13   -0.43    0.54
  -5 -13  21   -0.20    0.28
  21   5  13   -0.15    0.15
  13  21   5   -0.33    0.22
  21  -7  13    0.14    0.19
  -7  13  21    0.26    0.41
   7 -13  21    0.14    0.26
 -21   7  13   -0.18    0.46
  13 -21   7   -0.35    0.25
  21   7 -13    0.12    0.23
 -13 -21   7   -0.09    0.21
  21   7  13    0.40    0.39
   7  13  21    0.09    0.45
  21   7  13   -0.12    0.17
  13  21   7    0.27    0.30
 -21  -7  13    0.01    0.59
  -7 -13  21   -0.28    0.24
 -21   9  13   -0.47    0.38
  13 -21   9   -0.53    0.24
  -9  13  21   -0.19    0.33
   9 -13  21   -0.23    0.21
  21  -9  13    0.09    0.19
  21   9 -13   -0.16    0.22
  21   9  13   -0.13    0.15
  13  21   9   -0.16    0.27
 -13 -21   9   -0.17    0.26
  21   9  13    0.00    0.34
  -9 -13  21   -0.24    0.20
   9  13  21   -0.22    0.38
 -21  -9  13   -0.18    0.56
  13 -21  11   -0.52    0.23
 -11  13  21   -0.23    0.29
  21  11 -13   -0.10    0.21
 -21  11  13   -0.19    0.37
  21 -11  13   -0.12    0.18
  11 -13  21   -0.36    0.22
 -21 -11  13   -0.95    0.49
  21  11  13   -0.24    0.14
 -13 -21  11    0.03    0.24
  13  21  11   -0.40    0.27
  11  13  21   -0.55    0.36
 -11 -13  21   -0.06    0.26
  21  11  13   -0.12    0.37
  21 -13  13   -0.03    0.20
 -13  13  21    0.13    0.38
  13 -13  21   -0.35    0.18
  21  13 -13   -0.16    0.24
 -21  13  13    0.04    0.37
  13 -21  13   -0.56    0.25
  13  21  13   -0.49    0.30
 -13 -13  21   -0.15    0.25
 -13 -13  21    0.26    0.44
 -13 -21  13   -0.36    0.25
 -21 -13  13   -0.45    0.64
  21  13  13   -0.04    0.37
  13  13  21   -0.46    0.40
  15 -13  21   -0.33    0.20
 -21  15  13    0.72    0.38
  21  15 -13   -0.22    0.23
  21 -15  13   -0.13    0.21
 -15  13  21    0.41    0.37
  15  13  21   -0.37    0.40
  13  21  15   -0.38    0.36
 -15 -13  21   -0.34    0.23
 -15 -13  21   -0.24    0.45
 -13 -21  15   -0.10    0.27
  21  15  13   -0.38    0.38
 -17  13  21    0.09    0.33
  13 -21  17   -0.45    0.30
  21 -17  13   -0.24    0.22
  17 -13  21   -0.08    0.24
  21  17  13    0.04    0.37
 -13 -21  17   -0.26    0.24
  17  13  21   -0.53    0.38
  13  21  17   -0.16    0.36
 -17 -13  21    0.52    0.51
  13 -21  19   -0.38    0.31
  19 -13  21   -0.33    0.24
  21 -19  13   -0.13    0.27
 -19  13  21    0.24    0.38
 -19 -13  21   -0.29    0.55
 -19 -13  21   -0.26    0.27
  13  21  19   -0.43    0.39
 -13 -21  19   -0.19    0.29
 -21 -19  13    0.06    0.29
  19  13  21   -0.68    0.38
  21  19  13   -0.45    0.34
  21  -1  15   -0.37    0.31
  15 -21   1   -0.29    0.20
  21   1 -15   -0.13    0.16
 -21   1  15   -0.48    0.39
  21  -1  15   -0.03    0.17
  -1  15  21   -0.04    0.43
   1 -15  21   -0.45    0.27
  -1 -15  21   -0.26    0.27
 -21  -1  15   -0.79    0.46
  15  21   1   -0.06    0.19
   1  15  21   -0.18    0.39
  21  -1 -15   -0.28    0.16
  21   1  15   -0.14    0.16
  15 -21  -1   -0.05    0.18
  21   1  15   -0.12    0.33
   3 -15  21   -0.05    0.31
  -3  15  21    0.08    0.42
  21  -3  15    0.23    0.32
  21  -3  15   -0.03    0.16
 -15 -21  -3    0.17    0.39
  15 -21   3   -0.09    0.19
  21   3 -15   -0.04    0.21
 -21   3  15   -0.02    0.45
  21   3  15   -0.49    0.33
  -3 -15  21   -0.07    0.29
   3  15  21    0.04    0.44
 -21  -3  15   -0.29    0.56
  15  21   3   -0.31    0.22
  21   3  15   -0.11    0.16
  21  -5  15   -0.49    0.31
  -5  15  21    0.07    0.37
   5 -15  21   -0.31    0.29
  15 -21   5   -0.35    0.22
 -21   5  15   -0.37    0.36
  21  -5  15   -0.12    0.17
  21   5 -15   -0.18    0.20
  21   5  15   -0.30    0.32
 -21  -5  15   -1.18    0.53
   5  15  21   -0.24    0.40
  15  21   5   -0.18    0.19
  21   5  15   -0.19    0.14
  -5 -15  21    0.03    0.27
 -15 -21   5   -0.38    0.24
  21  -7  15   -0.02    0.17
  15 -21   7   -0.17    0.21
  21   7 -15   -0.24    0.23
  -7  15  21    0.09    0.34
   7 -15  21   -0.22    0.25
 -21   7  15    0.22    0.44
  21  -7  15    0.03    0.29
   7  15  21   -0.09    0.43
 -15 -21   7   -0.05    0.24
  15  21   7    0.07    0.30
  21   7  15    0.01    0.17
  21   7  15   -0.17    0.39
 -21  -7  15   -1.11    0.59
  -7 -15  21   -0.11    0.24
 -21   9  15    0.84    0.44
  15 -21   9    0.00    0.27
   9 -15  21    0.57    0.34
  21   9 -15    0.12    0.22
  21  -9  15    0.26    0.22
  -9  15  21    0.64    0.42
   9  15  21    0.73    0.56
 -15 -21   9   -0.27    0.29
  21   9  15    0.36    0.20
  -9 -15  21    0.28    0.30
  21   9  15    0.82    0.48
  15  21   9    0.50    0.36
 -21  -9  15   -0.56    0.60
  21  11 -15   -0.10    0.27
  15 -21  11    0.10    0.30
 -11  15  21    0.06    0.34
  21 -11  15    0.02    0.22
 -21  11  15    0.54    0.46
  11 -15  21    0.08    0.29
 -21 -11  15   -0.24    0.65
 -15 -21  11    0.16    0.28
  11  15  21   -0.12    0.43
  21  11  15   -0.38    0.38
 -11 -15  21    0.32    0.32
  15  21  11    0.34    0.36
  21  13 -15   -0.14    0.27
  21 -13  15   -0.21    0.18
  15 -21  13   -0.20    0.26
  13 -15  21   -0.04    0.29
 -21  13  15   -0.17    0.38
 -13  15  21    0.01    0.34
  21  13  15   -0.31    0.38
  15  21  13   -0.47    0.36
 -21 -13  15   -1.39    0.57
 -15 -21  13   -0.08    0.29
  13  15  21   -0.25    0.39
 -13 -15  21    0.14    0.32
 -15  15  21    0.02    0.32
  21 -15  15    0.06    0.26
  15 -21  15   -0.33    0.27
 -21  15  15    0.29    0.38
  15 -15  21   -0.22    0.25
 -21 -15  15   -0.22    0.67
 -15 -15  21    0.05    0.30
  15  15  21   -0.43    0.37
 -15 -21  15   -0.05    0.28
  15  21  15   -0.13    0.36
  21  15  15   -0.26    0.40
  15 -21  17   -0.19    0.32
  21 -17  15   -0.12    0.25
 -17  15  21    0.01    0.34
  17 -15  21   -0.52    0.25
  17  15  21   -0.09    0.43
 -15 -21  17   -0.03    0.30
  21  17  15   -0.29    0.39
  15  21  17   -0.78    0.40
 -21 -17  15   -0.29    0.27
 -17 -15  21    0.02    0.30
 -19  15  21    0.51    0.41
  21 -19  15   -0.37    0.26
  19 -15  21   -0.36    0.22
  15 -21  19   -0.59    0.27
 -15 -21  19    0.11    0.31
  15  21  19   -0.27    0.41
  19  15  21   -0.66    0.44
  21  19  15   -0.10    0.42
 -19 -15  21   -0.05    0.29
  21   1 -17   -0.13    0.18
  21  -1  17   -0.18    0.29
  17  21  -1   -0.25    0.18
  -1  17  21   -0.51    0.35
   1 -17  21   -0.32    0.28
 -21   1  17   -0.14    0.46
  17 -21   1   -0.10    0.19
  21  -1  17   -0.06    0.15
  17  21   1   -0.15    0.21
   1  17  21   -0.28    0.38
  21   1  17    0.16    0.36
  17 -21  -1   -0.20    0.18
 -21  -1  17   -0.33    0.47
  -1 -17  21   -0.24    0.26
  21   1  17   -0.07    0.16
  17 -21   3   -0.15    0.18
 -21   3  17   -0.18    0.39
  21   3 -17   -0.35    0.18
  -3  17  21   -0.40    0.40
  21  -3  17   -0.10    0.32
 -17 -21  -3   -0.14    0.36
   3 -17  21   -0.11    0.29
  21  -3  17   -0.12    0.16
  -3 -17  21   -0.27    0.27
  21   3  17    0.08    0.37
 -21  -3  17   -0.36    0.49
  17  21   3   -0.22    0.19
  21   3  17   -0.18    0.16
   3  17  21   -0.27    0.40
  21   5 -17   -0.15    0.19
  21  -5  17   -0.01    0.34
 -21   5  17   -0.03    0.38
  21  -5  17    0.04    0.18
  17 -21   5    0.10    0.24
   5 -17  21   -0.03    0.30
  -5  17  21   -0.11    0.42
 -21  -5  17    0.00    0.57
  21   5  17   -0.09    0.16
  17  21   5   -0.05    0.21
   5  17  21    0.07    0.42
  21   5  17   -0.03    0.40
  -5 -17  21   -0.45    0.25
  21  -7  17   -0.15    0.17
  17 -21   7   -0.02    0.23
  21   7 -17    0.02    0.23
 -21   7  17   -0.39    0.38
   7 -17  21   -0.41    0.26
  -7  17  21   -0.41    0.35
 -21  -7  17   -0.25    0.49
   7  17  21   -0.25    0.40
  -7 -17  21   -0.37    0.24
  21   7  17   -0.15    0.15
  21   7  17   -0.39    0.37
  17  21   7   -0.18    0.31
 -17 -21   7    0.00    0.26
  -9  17  21    0.05    0.39
   9 -17  21   -0.27    0.27
 -21   9  17    0.04    0.41
  21   9 -17   -0.18    0.23
  17 -21   9   -0.17    0.25
  21  -9  17   -0.12    0.18
  17  21   9   -0.06    0.32
  -9 -17  21   -0.37    0.29
 -21  -9  17   -1.10    0.59
 -17 -21   9   -0.34    0.24
   9  17  21   -0.59    0.40
  21   9  17   -0.03    0.41
 -11  17  21    0.08    0.41
  21 -11  17   -0.02    0.24
  17 -21  11   -0.16    0.25
 -21  11  17    0.66    0.41
  11 -17  21   -0.27    0.28
 -17 -21  11   -0.10    0.26
  21  11  17    0.07    0.44
 -11 -17  21   -0.25    0.30
  17  21  11   -0.37    0.35
  11  17  21   -0.19    0.48
 -21 -11  17   -1.12    0.50
  21 -13  17   -0.07    0.23
 -13  17  21    0.14    0.36
  17 -21  13   -0.29    0.28
  13 -17  21   -0.41    0.27
 -21  13  17    0.28    0.37
  13  17  21   -0.25    0.46
 -21 -13  17   -0.58    0.57
  21  13  17   -0.35    0.36
  17  21  13   -0.23    0.32
 -13 -17  21   -0.37    0.27
 -15  17  21    0.31    0.36
  17 -21  15   -0.60    0.24
  15 -17  21   -0.19    0.30
 -21  15  17    0.39    0.34
  21 -15  17   -0.17    0.25
 -21 -15  17   -0.52    0.64
  17  21  15   -0.80    0.34
 -15 -17  21   -0.13    0.29
  21  15  17   -0.12    0.41
 -21 -15  17    0.28    0.32
  15  17  21   -0.37    0.45
 -17 -21  15    0.10    0.31
 -17  17  21    0.36    0.40
  17 -17  21   -0.46    0.26
  17 -21  17   -0.21    0.31
  21 -17  17   -0.14    0.26
  17  21  17   -0.11    0.42
  17  17  21   -0.03    0.48
 -21 -17  17   -0.63    0.27
  21  17  17   -0.07    0.45
 -19  17  21    0.07    0.40
  21 -19  17   -0.42    0.25
  19 -17  21   -0.46    0.26
  17 -21  19   -0.28    0.30
 -19 -17  21   -0.10    0.37
  17  21  19   -0.89    0.44
 -21 -19  17   -0.56    0.22
  19  17  21   -0.18    0.49
 -17 -21  19   -0.10    0.31
  21  19  17   -0.28    0.41
  21  -1  19   -0.41    0.35
 -21   1  19   -0.67    0.45
  19 -21   1   -0.33    0.20
 -19 -21  -1   -0.78    0.39
   1 -19  21   -0.46    0.30
  19  21  -1   -0.23    0.22
  -1  19  21   -0.07    0.41
  21  -1  19   -0.17    0.16
  19  21   1   -0.25    0.23
  21   1  19   -0.16    0.17
   1  19  21   -0.25    0.43
  21   1  19   -0.32    0.36
 -21  -1  19   -0.17    0.47
  19 -21  -1   -0.28    0.18
  -1 -19  21   -0.40    0.29
   3 -19  21   -0.72    0.27
  -3  19  21   -0.44    0.42
  21  -3  19   -0.31    0.33
 -21   3  19   -0.52    0.39
  19 -21   3   -0.09    0.22
  21  -3  19   -0.20    0.18
 -19 -21  -3   -0.41    0.42
  19  21  -3   -0.17    0.21
  21   3  19   -0.26    0.39
   3  19  21   -0.31    0.43
  -3 -19  21   -0.29    0.28
  21   3  19   -0.20    0.16
  19  21   3   -0.17    0.21
 -21  -3  19    0.13    0.52
 -21   5  19   -0.23    0.39
  21   5 -19   -0.42    0.21
  21  -5  19   -0.26    0.19
  19 -21   5   -0.13    0.24
  -5  19  21   -0.32    0.41
   5 -19  21   -0.69    0.29
  21  -5  19   -0.27    0.32
 -19 -21  -5   -0.25    0.39
  21   5  19   -0.07    0.44
 -21  -5  19   -0.15    0.53
   5  19  21   -0.53    0.43
  19  21   5    0.13    0.23
  -5 -19  21   -0.24    0.27
   7 -19  21   -0.23    0.32
  21   7 -19   -0.08    0.26
  21  -7  19    0.16    0.24
 -21   7  19    0.22    0.43
  -7  19  21   -0.13    0.38
  19 -21   7   -0.15    0.23
 -21  -7  19   -0.22    0.59
  21   7  19   -0.24    0.46
  -7 -19  21    0.23    0.32
   7  19  21   -0.13    0.43
  21  -9  19    0.04    0.21
   9 -19  21   -0.08    0.34
  -9  19  21    0.53    0.44
 -21   9  19    0.37    0.42
  19 -21   9   -0.02    0.30
  21   9  19    0.16    0.51
  19  21   9   -0.46    0.36
  -9 -19  21    0.37    0.34
   9  19  21    0.12    0.49
 -19 -21   9   -0.22    0.27
 -21  -9  19    0.11    0.64
  21 -11  19   -0.09    0.24
 -11  19  21    0.10    0.34
 -21  11  19    0.21    0.39
  19 -21  11   -0.04    0.28
  11 -19  21   -0.17    0.35
  19  21  11   -0.56    0.30
 -19 -21  11    0.03    0.29
 -11 -19  21   -0.04    0.29
 -21 -11  19   -0.08    0.58
  11  19  21   -0.03    0.45
  21  11  19   -0.70    0.35
 -13  19  21    0.48    0.38
  19 -21  13   -0.35    0.25
 -21  13  19    0.40    0.36
  13 -19  21    0.14    0.38
  21 -13  19   -0.11    0.24
 -21 -13  19    0.04    0.29
  13  19  21   -0.02    0.43
 -21 -13  19   -0.61    0.62
 -13 -19  21    0.28    0.33
  19  21  13   -0.27    0.40
  21  13  19    0.00    0.45
 -19 -21  13   -0.20    0.28
 -21  15  19    0.69    0.42
 -15  19  21    0.26    0.37
  15 -19  21   -0.18    0.31
  19 -21  15   -0.45    0.27
  21 -15  19   -0.23    0.26
 -21 -15  19   -0.32    0.30
 -15 -19  21    0.09    0.34
 -19 -21  15    0.05    0.34
  21  15  19   -0.64    0.39
  19  21  15   -0.23    0.39
  15  19  21   -0.30    0.43
  19 -21  17   -0.48    0.24
  17 -19  21   -0.64    0.29
  21 -17  19   -0.36    0.24
 -21  17  19    0.48    0.42
 -17 -19  21    0.09    0.37
  17  19  21   -0.30    0.48
  19  21  17   -0.28    0.45
 -19 -21  17   -0.74    0.28
 -21 -17  19    0.02    0.34
  21  17  19   -0.52    0.40
 -21 -19  19   -0.20    0.32
 -19 -19  21   -0.17    0.29
  19  19  21   -0.32    0.42
  19  21  19   -0.46    0.40
  21  19  19   -0.09    0.40
 -21 -21  -1   -0.37    0.41
  21  -1  21   -0.36    0.32
 -21   1  21    0.32    0.47
  21  21  -1   -0.18    0.24
  -1  21  21   -0.50    0.38
   1 -21  21   -0.11    0.31
  21  -1  21   -0.13    0.16
  21 -21   1   -0.11    0.20
  -1 -21  21   -0.45    0.31
 -21  -1  21    0.48    0.53
   1  21  21   -0.13    0.44
  21   1  21   -0.29    0.35
  21   1  21   -0.20    0.16
  21 -21  -1    0.07    0.22
  21  21   1   -0.12    0.22
 -21 -21  -3    0.22    0.46
  21  -3  21   -0.27    0.15
 -21   3  21    0.27    0.43
  21 -21   3   -0.12    0.21
  -3  21  21   -0.48    0.42
   3 -21  21   -0.04    0.32
  21  -3  21   -0.27    0.34
  -3 -21  21   -0.67    0.30
   3  21  21    0.12    0.47
 -21  -3  21    0.06    0.49
  21   3  21   -0.06    0.44
  21  21   3   -0.22    0.23
 -21 -21  -5   -0.15    0.38
  21  -5  21   -0.29    0.32
 -21   5  21    0.25    0.45
  -5  21  21   -0.28    0.42
   5 -21  21   -0.41    0.29
  21  -5  21   -0.01    0.22
  21 -21   5   -0.34    0.19
  21  21  -5   -0.29    0.24
   5  21  21    0.05    0.44
  21   5  21   -0.23    0.42
 -21  -5  21   -0.04    0.52
  21  21   5   -0.29    0.23
 -21 -21  -7    0.01    0.43
  21 -21   7   -0.31    0.21
 -21   7  21    0.53    0.43
   7 -21  21   -0.34    0.31
  -7  21  21   -0.05    0.40
  21  -7  21   -0.25    0.19
  -7 -21  21   -0.09    0.33
 -21  -7  21    0.41    0.56
   7  21  21    0.02    0.49
  21   7  21   -0.34    0.44
  21 -21   9   -0.18    0.26
  21  -9  21   -0.04    0.21
 -21   9  21    0.14    0.40
   9 -21  21   -0.63    0.27
  -9 -21  21   -0.52    0.28
   9  21  21   -0.66    0.42
 -21  -9  21   -0.09    0.51
 -21  -9  21   -0.25    0.25
  21   9  21   -0.09    0.44
  21 -11  21   -0.34    0.21
  21 -21  11   -0.23    0.26
  11 -21  21   -0.45    0.35
 -21  11  21    0.15    0.39
 -11 -21  21   -0.34    0.30
 -21 -11  21   -0.22    0.24
  11  21  21   -0.07    0.42
 -21 -11  21    0.29    0.57
 -21 -21  11    0.05    0.31
  21  11  21   -0.17    0.42
  21  21  11   -0.19    0.39
  21 -13  21   -0.27    0.23
  21 -21  13   -0.39    0.29
  13 -21  21   -0.45    0.37
 -21  13  21    0.61    0.45
 -13 -21  21   -0.03    0.32
 -21 -13  21   -0.72    0.26
  13  21  21   -0.40    0.43
 -21 -13  21   -0.24    0.57
 -21 -21  13   -0.25    0.28
  21  13  21   -0.12    0.47
  21  21  13    0.07    0.42
  21 -21  15   -0.27    0.31
  21 -15  21   -0.36    0.26
 -21  15  21    0.28    0.42
  15 -21  21   -0.43    0.29
 -15 -21  21    0.07    0.34
  15  21  21   -0.03    0.52
 -21 -21  15   -0.17    0.27
 -21 -15  21   -0.23    0.32
  21  15  21   -0.56    0.38
  21  21  15   -0.25    0.42
 -21  17  21    1.24    0.48
 -21 -17  21   -0.63    0.32
 -17 -21  21   -0.30    0.29
  17  21  21   -0.42    0.46
  21  21  17   -0.20    0.40
 -22   0   0   -0.02    0.34
   0 -22   0    0.07    0.19
   0   0  22   -0.05    0.38
  22   0   0   -0.09    0.14
  22  -2   0    6.16    0.64
  22   2   0    6.23    0.65
 -22  -2   0    6.27    0.87
 -22   2   0    5.72    0.79
  -2   0  22    6.76    0.98
   0 -22  -2    5.40    0.68
   0 -22   2    5.86    0.75
   2   0  22    5.61    0.94
  -4   0  22    0.20    0.42
   0 -22   4    0.08    0.21
  22  -4   0   -0.01    0.14
  22   4   0   -0.04    0.13
 -22   4   0    0.19    0.34
 -22  -4   0    0.02    0.35
   4   0  22   -0.21    0.37
  -6   0  22    0.93    0.51
  22  -6   0    0.65    0.20
   6   0  22    0.94    0.55
 -22  -6   0    1.45    0.51
 -22   6   0    1.03    0.45
   0 -22   6    0.91    0.30
  22   6   0    0.83    0.22
  -8   0  22   -0.31    0.32
   8   0  22   -0.15    0.35
 -22   8   0    0.12    0.35
  22   8   0    0.06    0.14
  22  -8   0   -0.11    0.13
   0 -22   8    0.13    0.26
 -22  -8   0   -0.35    0.36
  22 -10   0    0.48    0.20
  22  10   0    0.14    0.16
 -22  10   0    0.03    0.40
 -10   0  22    0.39    0.38
   0 -22  10    0.15    0.27
  10   0  22   -0.19    0.46
 -22 -10   0    0.36    0.49
  22 -12   0   -0.01    0.15
  12   0  22   -0.18    0.38
 -12   0  22   -0.09    0.37
 -22 -12   0   -0.28    0.37
   0 -22  12   -0.06    0.27
  22  12   0   -0.43    0.17
 -14   0  22    0.41    0.49
   0 -22  14    0.21    0.32
  22 -14   0    0.16    0.20
  14   0  22    0.01    0.39
 -22 -14   0    0.34    0.53
  22  14   0    0.05    0.21
  22 -16   0    0.06    0.18
   0 -22  16    0.02    0.26
  22  16   0   -0.05    0.20
 -16   0  22    0.19    0.42
 -22 -16   0    0.44    0.48
  16   0  22    0.41    0.43
 -18   0  22   -0.52    0.43
   0 -22  18    0.06    0.28
 -22 -18   0   -0.32    0.47
  18   0  22   -0.63    0.36
  22 -18   0   -0.34    0.17
  22  18   0   -0.09    0.19
  22 -20   0   -0.02    0.20
   0 -22  20   -0.17    0.30
  22  20   0   -0.06    0.22
 -22 -20   0    0.15    0.51
 -20   0  22    0.30    0.49
  20   0  22    0.21    0.49
   0  22  20    0.17    0.43
  22   0  -2    5.63    0.61
 -22   0  -2    5.74    0.79
   0  -2  22    4.83    0.91
   0   2  22    7.42    1.04
   2 -22   0    6.41    0.73
  22   0   2    5.61    0.62
 -22   0   2    5.46    0.81
  -2 -22   0    6.11    0.71
  -2 -22  -2    2.43    0.39
   2  -2  22    2.65    0.72
   2 -22   2    5.30    0.69
  -2   2  22    3.18    0.73
  22   2  -2    4.82    0.54
 -22  -2  -2    3.26    0.64
 -22   2   2    2.97    0.60
  22  -2   2    4.23    0.53
  22  -2  -2    3.79    0.49
   2   2  22    3.28    0.76
 -22  -2   2    3.54    0.65
  -2 -22   2    4.98    0.67
  22   2   2    3.65    0.50
 -22   2  -2    3.33    0.58
  -2  -2  22    3.06    0.75
   2 -22  -2    4.29    0.60
 -22   4   2    0.17    0.38
   4  -2  22    0.06    0.43
  22   4  -2    0.08    0.14
 -22  -4  -2    0.16    0.36
  -4   2  22   -0.40    0.36
   2 -22   4    0.10    0.21
  -2 -22  -4   -0.05    0.15
  22  -4   2    0.17    0.17
  -4  -2  22   -0.33    0.38
 -22  -4   2   -0.13    0.30
   4   2  22    0.04    0.48
  22   4   2    0.04    0.14
 -22   4  -2   -0.09    0.30
  22  -4  -2   -0.06    0.12
  -2 -22   4    0.11    0.18
  22  -6   2    1.55    0.28
  22   6  -2    1.89    0.30
 -22   6   2    3.36    0.60
  -6   2  22    2.40    0.60
   2 -22   6    1.91    0.39
   6  -2  22    2.75    0.67
 -22  -6  -2    3.77    0.65
  22   6   2    1.88    0.30
  -2 -22   6    2.07    0.41
   6   2  22    3.06    0.73
 -22  -6   2    3.44    0.70
  -6  -2  22    2.58    0.63
 -22   6  -2    3.72    0.58
 -22   8   2    1.24    0.47
   8  -2  22    1.42    0.58
  22  -8   2    0.84    0.23
 -22  -8  -2    1.14    0.52
   2 -22   8    0.92    0.34
  -8   2  22    1.73    0.55
  22   8  -2    1.29    0.26
   8   2  22    1.09    0.56
  -8  -2  22    1.18    0.54
  -2 -22   8    0.74    0.31
  22  -8  -2    0.80    0.21
 -22   8  -2    1.75    0.46
  22   8   2    0.85    0.22
 -22  -8   2    1.99    0.61
   2 -22  10    2.82    0.50
  10  -2  22    4.84    0.52
  22 -10   2    4.83    0.59
  22  10  -2    4.03    0.58
 -22 -10  -2    4.01    0.74
 -10   2  22    3.06    0.64
  10  -2  22    3.14    0.70
 -22  10   2    4.06    0.66
  22  10   2    4.03    0.56
  22 -10  -2    4.42    0.54
 -22  10  -2    4.61    0.69
 -22 -10   2    4.71    0.84
  10   2  22    3.69    0.83
  -2 -22  10    2.77    0.50
 -10  -2  22    3.65    0.71
  22 -12   2    0.04    0.17
   2 -22  12   -0.05    0.27
  12  -2  22   -0.35    0.36
  12  -2  22   -0.01    0.16
  22  12  -2   -0.12    0.21
 -22 -12  -2   -0.07    0.37
 -22  12   2   -0.21    0.39
 -12   2  22   -0.18    0.37
 -22 -12   2    0.04    0.45
  -2 -22  12    0.21    0.28
 -12  -2  22    0.21    0.41
  22  12   2   -0.08    0.15
  12   2  22   -0.15    0.40
  22 -12  -2    0.04    0.15
 -22 -14  -2    1.85    0.59
 -14   2  22    2.27    0.57
  14  -2  22    2.19    0.59
  22  14  -2    0.80    0.28
  14  -2  22    0.86    0.24
   2 -22  14    1.32    0.40
  22 -14   2    1.06    0.30
  22  14   2    0.94    0.30
  14   2  22    2.31    0.66
  -2 -22  14    0.99    0.37
  22 -14  -2    1.35    0.28
 -14  -2  22    1.11    0.57
 -22 -14   2    0.93    0.62
  16  -2  22    0.45    0.43
 -22 -16  -2    0.27    0.47
   2 -22  16    0.08    0.29
 -16   2  22    0.03    0.39
  16  -2  22    0.21    0.18
  22  16  -2   -0.14    0.20
  22 -16   2    0.26    0.21
 -16  -2  22    0.34    0.45
  22 -16  -2    0.09    0.19
  22  16   2   -0.21    0.18
  -2 -22  16    0.11    0.29
  16   2  22    0.42    0.42
 -22 -16   2    0.19    0.53
  22 -18   2    0.46    0.29
   2 -22  18    0.75    0.40
  18  -2  22    0.69    0.49
  18  -2  22    0.46    0.23
 -22 -18  -2    0.87    0.54
 -18   2  22    0.94    0.58
  22  18  -2    0.48    0.28
 -22 -18   2    0.69    0.57
   2  22  18    1.49    0.52
  18   2  22    0.87    0.58
  22 -18  -2    0.45    0.28
 -18  -2  22    1.42    0.60
  -2 -22  18    0.93    0.40
  22  18   2    0.56    0.28
  20  -2  22    0.07    0.18
 -22 -20  -2    0.24    0.46
  -2  22  20   -0.22    0.43
   2 -22  20   -0.01    0.32
  22  20  -2    0.05    0.25
  22 -20   2   -0.01    0.24
 -20   2  22    0.67    0.52
  20  -2  22    0.18    0.40
  20   2  22    0.16    0.42
   2  22  20   -0.46    0.39
  22  20   2   -0.14    0.24
  -2 -22  20    0.36    0.35
 -22 -20   2   -0.10    0.48
 -20  -2  22    0.05    0.48
 -22   0   4    0.14    0.37
   0  -4  22   -0.10    0.35
  -4 -22   0    0.03    0.16
   0  -4  22    0.18    0.16
   0   4  22   -0.07    0.38
   4 -22   0   -0.13    0.15
  22   0  -4    0.09    0.14
  22   0   4    0.00    0.13
 -22   0  -4    0.05    0.34
  22  -2   4   -0.13    0.12
 -22   2   4   -0.03    0.34
   2  -4  22   -0.12    0.38
   2  -4  22    0.14    0.15
   4 -22   2    0.06    0.20
  -4 -22  -2   -0.22    0.17
 -22  -2  -4   -0.12    0.33
  -2   4  22   -0.52    0.36
  22   2  -4   -0.05    0.14
  -2  -4  22   -0.20    0.41
  22  -2  -4   -0.08    0.13
   4 -22  -2   -0.04    0.15
 -22  -2   4    0.01    0.40
 -22   2  -4    0.00    0.34
  -4 -22   2   -0.06    0.19
   2   4  22    0.08    0.45
  22   2   4   -0.04    0.12
   4 -22   4    0.05    0.20
  -4 -22  -4    0.04    0.15
  22   4  -4   -0.05    0.13
   4  -4  22   -0.08    0.39
  -4   4  22    0.03    0.34
 -22  -4  -4    0.06    0.37
  22  -4   4    0.00    0.13
   4  -4  22    0.09    0.14
 -22   4   4    0.24    0.42
  -4  -4  22   -0.06    0.36
   4   4  22    0.11    0.43
  22   4   4   -0.02    0.14
  22  -4  -4   -0.04    0.13
 -22  -4   4    0.22    0.38
 -22   4  -4    0.11    0.30
  -4 -22   4    0.05    0.19
   4 -22   6    0.01    0.22
  22   6  -4   -0.15    0.13
 -22   6   4    0.12    0.40
  -6   4  22   -0.24    0.37
   6  -4  22    0.05    0.36
 -22  -6  -4   -0.12    0.37
  22  -6   4    0.07    0.14
   6  -4  22    0.01    0.14
   6   4  22   -0.35    0.35
  -4 -22   6   -0.10    0.22
  22  -6  -4   -0.05    0.13
 -22  -6   4   -0.05    0.45
  -6  -4  22   -0.21    0.34
  22   6   4   -0.01    0.13
 -22   6  -4   -0.18    0.32
   8  -4  22   -0.19    0.28
  -8   4  22   -0.33    0.29
  22  -8   4    0.12    0.15
  22   8  -4   -0.08    0.17
 -22   8   4   -0.42    0.37
   8  -4  22    0.04    0.13
   4 -22   8   -0.03    0.21
 -22  -8  -4    0.21    0.37
 -22  -8   4    0.04    0.44
  -8  -4  22   -0.08    0.38
  22  -8  -4    0.19    0.15
  22   8   4    0.09    0.15
  -4 -22   8   -0.10    0.20
 -22   8  -4   -0.39    0.28
   8   4  22   -0.51    0.39
   4 -22  10    1.38    0.39
  22 -10   4    1.51    0.29
 -22  10   4    1.94    0.54
 -10   4  22    1.79    0.54
  10  -4  22    2.06    0.59
  10  -4  22    1.28    0.26
 -22 -10  -4    1.83    0.61
  22  10  -4    1.21    0.31
  10   4  22    1.16    0.65
 -22  10  -4    2.19    0.49
 -10  -4  22    1.65    0.56
 -22 -10   4    2.38    0.72
  22  10   4    1.59    0.28
  22 -10  -4    1.48    0.27
  -4 -22  10    1.01    0.36
   4 -22  12   -0.12    0.28
 -12   4  22   -0.18    0.35
 -22 -12  -4    0.10    0.41
  12  -4  22   -0.09    0.39
  12  -4  22    0.02    0.16
  22 -12   4   -0.03    0.17
  22  12  -4   -0.40    0.18
 -22  12   4   -0.59    0.38
  12   4  22   -0.51    0.41
 -22 -12   4   -0.12    0.44
  -4 -22  12   -0.15    0.24
  22  12   4   -0.10    0.13
 -12  -4  22    0.08    0.39
  22 -12  -4   -0.01    0.15
  22 -14   4   -0.08    0.18
   4 -22  14   -0.14    0.26
  14  -4  22   -0.42    0.34
  22  14  -4   -0.18    0.18
 -14   4  22    0.02    0.36
  14  -4  22   -0.24    0.15
 -22 -14  -4    0.02    0.39
  14   4  22   -0.58    0.38
  22  14   4   -0.30    0.18
 -14  -4  22   -0.49    0.43
  -4 -22  14    0.00    0.26
  22 -14  -4   -0.01    0.15
 -22 -14   4   -0.59    0.46
  22  16  -4    0.04    0.22
  16  -4  22   -0.29    0.14
 -22 -16  -4    0.54    0.46
  22 -16   4    0.11    0.20
   4 -22  16   -0.24    0.29
 -16   4  22    0.39    0.38
  16  -4  22   -0.05    0.33
   4  22  16    0.12    0.33
  -4 -22  16    0.16    0.28
  22  16   4   -0.37    0.19
 -16  -4  22    0.15    0.42
  22 -16  -4   -0.03    0.16
 -22 -16   4   -0.15    0.54
  16   4  22   -0.20    0.38
   4 -22  18    0.34    0.38
  22 -18   4    0.13    0.26
  22  18  -4    0.44    0.28
  18  -4  22    0.40    0.22
  18  -4  22   -0.02    0.43
 -22 -18  -4    0.02    0.46
 -18   4  22    0.41    0.48
 -18  -4  22    0.11    0.51
 -22 -18   4   -0.56    0.45
  -4 -22  18   -0.27    0.31
  18   4  22   -0.11    0.50
   4  22  18    0.28    0.42
  22  18   4    0.27    0.26
 -20   4  22    0.53    0.44
  20  -4  22    0.30    0.41
 -22 -20  -4    0.06    0.45
   4 -22  20   -0.17    0.31
  22 -20   4   -0.30    0.20
  22  20  -4   -0.19    0.25
  20  -4  22   -0.09    0.19
  20   4  22   -0.04    0.46
  -4 -22  20    0.03    0.31
  22  20   4   -0.24    0.20
   4  22  20    0.24    0.43
 -20  -4  22   -0.19    0.43
 -22 -20   4   -0.07    0.56
 -22   0   6    1.08    0.49
   0  -6  22    0.89    0.54
 -22   0  -6    0.85    0.39
  22   0   6    0.88    0.22
   0  -6  22    0.63    0.25
   0   6  22    1.20    0.52
  22   0  -6    0.99    0.23
   6 -22   0    0.97    0.26
  -6 -22   0    0.58    0.25
  -6 -22  -2    1.94    0.33
 -22   2   6    3.34    0.64
 -22  -2  -6    3.39    0.62
  -2   6  22    3.30    0.68
   2  -6  22    2.79    0.69
   6 -22   2    1.95    0.34
  22  -2   6    1.69    0.28
  22   2  -6    1.78    0.30
   2  -6  22    2.19    0.34
  -6 -22   2    1.81    0.37
  -2  -6  22    1.90    0.34
 -22  -2   6    2.73    0.66
  -2  -6  22    2.98    0.69
   2   6  22    3.57    0.74
  22  -2  -6    2.06    0.30
 -22   2  -6    3.93    0.60
  -4   6  22   -0.27    0.36
   4  -6  22   -0.19    0.40
 -22  -4  -6   -0.02    0.31
 -22   4   6   -0.13    0.38
  -6 -22  -4   -0.03    0.16
  22  -4   6    0.04    0.16
  22   4  -6    0.08    0.15
   4  -6  22    0.03    0.17
   6 -22   4   -0.09    0.15
  -4  -6  22    0.00    0.19
 -22  -4   6   -0.43    0.35
  22   4   6   -0.02    0.13
  22  -4  -6    0.00    0.13
 -22   4  -6    0.00    0.28
  -6 -22   4    0.18    0.23
  -4  -6  22   -0.10    0.45
   4   6  22    0.22    0.47
  22   6  -6    4.73    0.61
   6  -6  22    4.73    0.80
  -6   6  22    6.12    0.86
 -22  -6  -6    5.42    0.83
 -22   6   6    4.13    0.74
   6  -6  22    5.82    0.64
  22  -6   6    4.59    0.58
   6 -22   6    6.41    0.82
  22  -6  -6    5.14    0.58
   6   6  22    5.02    0.88
  -6 -22   6    5.69    0.77
  22   6   6    5.76    0.62
 -22  -6   6    5.48    0.91
 -22   6  -6    5.78    0.70
  -6  -6  22    4.81    0.83
  22  -8   6    0.43    0.23
   8  -6  22    0.62    0.21
   8  -6  22    0.96    0.49
 -22  -8  -6    1.16    0.48
   6 -22   8    0.94    0.33
  22   8  -6    0.18    0.22
 -22   8   6   -0.27    0.43
  -8   6  22    0.66    0.42
 -22  -8   6    0.84    0.55
 -22   8  -6    0.64    0.38
  -8  -6  22    0.91    0.50
  -8  -6  22    0.80    0.30
   8   6  22    0.29    0.48
  -6 -22   8    0.53    0.28
  22  -8  -6    0.59    0.18
  22   8   6    0.77    0.22
  10  -6  22    5.52    0.66
  22  10  -6    6.10    0.75
 -22 -10  -6    4.63    0.86
  10  -6  22    5.81    0.88
 -22  10   6    6.64    0.91
  22 -10   6    5.62    0.68
   6 -22  10    6.69    0.89
 -10   6  22    6.87    0.91
 -10  -6  22    4.82    0.84
 -22 -10   6    7.47    1.13
 -10  -6  22    5.71    0.79
  22  10   6    7.08    0.69
  22 -10  -6    7.39    0.68
  10   6  22    5.22    0.94
  12  -6  22    0.50    0.43
   6 -22  12    0.30    0.33
 -22  12   6   -0.04    0.49
  22  12  -6   -0.09    0.22
  12  -6  22    0.20    0.20
 -22 -12  -6    0.01    0.44
  22 -12   6    0.25    0.21
 -12   6  22    0.47    0.39
 -22 -12   6    0.78    0.57
  22  12   6    0.17    0.17
  12   6  22    0.41    0.46
 -12  -6  22    0.25    0.44
  -6 -22  12    0.38    0.31
  22 -12  -6    0.20    0.19
 -22 -14  -6    0.98    0.60
  22 -14   6    1.19    0.32
 -14   6  22    2.12    0.55
  14  -6  22    1.07    0.30
  22  14  -6    1.25    0.32
   6 -22  14    1.82    0.46
  14  -6  22    2.05    0.53
   6  22  14    2.36    0.51
  22 -14  -6    1.57    0.29
  14   6  22    2.49    0.69
 -22 -14   6    1.34    0.67
 -14  -6  22    1.20    0.57
  -6 -22  14    0.99    0.37
  22  14   6    1.47    0.29
   6 -22  16    0.13    0.33
  22  16  -6    0.40    0.27
 -22 -16  -6    0.06    0.48
  22 -16   6    0.07    0.21
  16  -6  22    0.66    0.41
 -16   6  22    0.34    0.40
  16  -6  22    0.03    0.20
  -6 -22  16    0.37    0.32
 -22 -16   6    0.23    0.61
  16   6  22    0.11    0.41
  22  16   6    0.15    0.21
 -16  -6  22    0.06    0.49
   6  22  16    0.44    0.39
  22 -18   6    0.50    0.34
 -18   6  22    1.82    0.58
   6 -22  18    1.28    0.47
  18  -6  22    0.60    0.28
  22  18  -6    0.77    0.35
 -22 -18  -6    1.05    0.59
 -22 -18   6    1.26    0.69
   6  22  18    2.06    0.56
  -6 -22  18    1.24    0.43
  22  18   6    1.00    0.31
  18   6  22    1.39    0.61
 -18  -6  22    0.49    0.61
 -20   6  22    0.32    0.42
  22 -20   6   -0.10    0.25
   6 -22  20   -0.63    0.28
 -22 -20  -6    0.07    0.42
  20  -6  22   -0.06    0.19
  22  20  -6   -0.12    0.26
   6  22  20    0.29    0.43
  22  20   6   -0.33    0.22
  20   6  22   -0.15    0.42
  -6 -22  20   -0.01    0.27
 -20  -6  22    0.35    0.57
 -22   0   8    0.16    0.43
   0  -8  22   -0.18    0.42
 -22   0  -8   -0.11    0.32
   0  -8  22   -0.20    0.16
  -8 -22   0    0.27    0.19
   0   8  22    0.15    0.40
   8 -22   0    0.16    0.18
  22   0  -8   -0.01    0.15
  22   0   8   -0.06    0.13
  22  -2   8    1.17    0.25
  22   2  -8    1.02    0.24
   8 -22   2    0.87    0.27
   2  -8  22    1.39    0.56
   2  -8  22    1.26    0.31
  -8 -22  -2    1.16    0.29
 -22   2   8    1.42    0.54
  -2   8  22    1.80    0.59
 -22   2  -8    1.89    0.49
  -8 -22   2    0.92    0.29
   8 -22  -2    1.26    0.27
  -2  -8  22    0.98    0.31
  22   2   8    1.11    0.24
 -22  -2   8    1.38    0.58
  -2  -8  22    1.22    0.58
  22  -2  -8    0.96    0.22
   2   8  22    1.22    0.53
  -4   8  22   -0.13    0.34
  22  -4   8    0.06    0.16
   8 -22   4    0.01    0.22
   4  -8  22    0.15    0.41
   4  -8  22   -0.01    0.20
 -22   4   8   -0.75    0.41
  22   4  -8    0.04    0.15
  -8 -22  -4    0.10    0.15
 -22  -4   8    0.06    0.42
  -4  -8  22    0.13    0.43
  22   4   8    0.11    0.14
  22  -4  -8    0.08    0.14
   4   8  22    0.14    0.42
 -22   4  -8    0.31    0.34
  -8 -22   4    0.13    0.20
  -4  -8  22   -0.07    0.22
  -6   8  22    0.96    0.45
   6  -8  22    0.71    0.24
  22   6  -8    0.00    0.22
  22  -6   8    0.55    0.20
   6  -8  22    0.81    0.44
 -22   6   8   -0.03    0.50
   8 -22   6    0.59    0.29
  22   6   8    0.76    0.22
 -22   6  -8    1.17    0.40
  -6  -8  22    0.61    0.30
  -8 -22   6    0.30    0.28
   6   8  22    1.02    0.55
  -6  -8  22    1.39    0.53
 -22  -6   8    1.25    0.63
  22  -6  -8    0.58    0.19
   8 -22   8   -0.07    0.25
   8  -8  22    0.05    0.18
  22  -8   8    0.19    0.17
  -8   8  22    0.12    0.34
  22   8  -8   -0.35    0.19
   8  -8  22    0.17    0.35
  -8  -8  22   -0.11    0.33
   8   8  22   -0.25    0.40
  22  -8  -8    0.04    0.15
  -8  -8  22    0.03    0.22
 -22   8  -8   -0.12    0.27
 -22  -8   8    0.05    0.49
  22   8   8    0.02    0.16
  -8 -22   8    0.26    0.23
 -10   8  22   -0.17    0.35
  22 -10   8    0.02    0.17
   8 -22  10    0.09    0.26
  22  10  -8   -0.11    0.19
 -22  10   8   -0.83    0.41
  10  -8  22    0.08    0.19
  22 -10  -8   -0.04    0.14
  22  10   8    0.20    0.18
  -8 -22  10    0.00    0.25
 -10  -8  22    0.05    0.40
 -10  -8  22   -0.02    0.24
 -22 -10   8   -0.53    0.53
  10   8  22   -0.49    0.50
   8 -22  12    0.03    0.29
 -12   8  22    0.12    0.34
 -22  12   8   -0.10    0.42
  12  -8  22    0.07    0.20
  22 -12   8    0.17    0.20
  22  12  -8   -0.06    0.21
 -22 -12   8   -0.14    0.53
   8  22  12   -0.12    0.30
 -12  -8  22    0.64    0.46
  -8 -22  12    0.34    0.31
  22  12   8    0.09    0.17
  12   8  22   -0.23    0.41
 -12  -8  22    0.16    0.25
 -14   8  22    0.42    0.40
   8 -22  14    0.04    0.33
  14  -8  22    0.07    0.23
  22 -14   8    0.03    0.24
 -22  14   8    0.47    0.47
  22  14  -8    0.20    0.24
  22  14   8    0.15    0.19
   8  22  14    0.39    0.35
  14   8  22   -0.10    0.44
 -22 -14   8   -0.66    0.47
  -8 -22  14    0.18    0.31
 -14  -8  22    0.21    0.26
 -14  -8  22    0.02    0.48
   8 -22  16   -0.55    0.27
  16  -8  22   -0.06    0.21
  22 -16   8    0.14    0.24
 -16   8  22    0.42    0.42
  22  16  -8    0.04    0.24
  16   8  22    0.05    0.48
 -16  -8  22    0.51    0.49
  22  16   8    0.13    0.19
  -8 -22  16   -0.13    0.26
 -16  -8  22    0.20    0.25
   8  22  16   -0.06    0.36
 -22 -16   8   -0.04    0.61
  18  -8  22   -0.12    0.20
  22 -18   8   -0.53    0.20
 -18   8  22    0.13    0.40
   8 -22  18   -0.15    0.30
  22  18  -8   -0.21    0.23
  -8 -22  18   -0.20    0.30
 -18  -8  22   -0.84    0.49
   8  22  18   -0.17    0.37
  22  18   8   -0.37    0.19
 -22 -18   8   -0.54    0.54
 -18  -8  22    0.06    0.24
  18   8  22   -0.35    0.46
  22  20  -8    0.12    0.28
  22 -20   8    0.17    0.29
 -20   8  22    0.58    0.43
  20  -8  22    0.07    0.25
   8 -22  20   -0.18    0.35
  20   8  22   -0.31    0.44
   8  22  20    0.30    0.45
  -8 -22  20    0.25    0.34
 -20  -8  22    0.88    0.58
  10 -22   0    0.04    0.22
 -22   0  10   -0.60    0.47
   0 -10  22    0.28    0.27
 -10 -22   0    0.03    0.20
   0 -10  22    0.19    0.42
   0  10  22    0.47    0.46
  22   0 -10    0.34    0.17
  22   0  10    0.27    0.19
  22   2 -10    3.92    0.55
  -2  10  22    4.39    0.78
  10 -22   2    2.85    0.44
 -22   2  10    2.52    0.75
   2 -10  22    2.85    0.45
 -10 -22  -2    2.43    0.40
   2  10  22    4.71    0.84
  -2 -10  22    4.14    0.75
  22   2  10    3.92    0.54
 -22  -2  10    4.21    0.78
  -2 -10  22    2.23    0.44
  10 -22  -2    2.45    0.37
 -10 -22   2    2.42    0.41
  22   2  10    3.73    0.64
  10 -22   4    0.99    0.37
  -4  10  22    2.07    0.57
  22  -4  10    1.55    0.30
 -10 -22  -4    1.26    0.30
   4 -10  22    2.08    0.39
 -22   4  10    1.71    0.59
  22   4 -10    1.08    0.28
  22   4  10    2.57    0.60
  22   4  10    1.58    0.27
  22  -4 -10    1.78    0.27
  -4 -10  22    2.39    0.67
  -4 -10  22    1.41    0.39
 -10 -22   4    1.12    0.31
   4  10  22    2.11    0.67
 -22   4 -10    2.19    0.53
 -22  -4  10    2.00    0.70
   6 -10  22    5.93    0.79
  22  -6  10    5.08    0.69
  22   6 -10    6.27    0.78
  -6  10  22    7.18    0.92
  10 -22   6    6.40    0.85
 -22   6  10    6.88    0.99
  22  -6 -10    7.00    0.69
  -6 -10  22    7.44    1.00
 -10 -22   6    6.25    0.85
 -22   6 -10    7.07    0.81
  22   6  10    8.17    0.96
 -22  -6  10    6.36    1.02
  22   6  10    6.98    0.68
   6  10  22    7.19    1.03
  10 -22   8   -0.41    0.26
  -8  10  22    0.11    0.37
 -22   8  10    0.21    0.43
   8 -10  22    0.32    0.25
  22  -8  10    0.08    0.18
  22   8 -10   -0.30    0.20
 -22   8 -10   -0.33    0.29
  -8 -10  22   -0.25    0.23
 -22  -8  10    0.00    0.53
   8  10  22   -0.83    0.38
  22   8  10    0.08    0.16
  22   8  10    0.16    0.40
  22  -8 -10    0.03    0.16
 -10 -22   8    0.05    0.24
  -8 -10  22   -0.20    0.40
 -22  10  10    3.43    0.65
  10 -10  22    4.99    0.69
  10 -22  10    2.44    0.50
 -10  10  22    3.98    0.69
  22 -10  10    4.89    0.65
  22  10 -10    2.11    0.40
 -10 -22  10    2.49    0.49
  10  10  22    4.09    0.85
  22  10  10    3.57    0.70
 -10 -10  22    3.54    0.72
  22  10  10    4.24    0.56
 -22 -10  10    4.35    0.92
  22 -12  10   -0.03    0.19
  12 -10  22    0.20    0.22
 -12  10  22   -0.14    0.33
  10 -22  12   -0.28    0.29
  22  12 -10    0.03    0.25
 -22  12  10    0.06    0.43
  10  22  12    0.05    0.30
 -22 -12  10   -0.24    0.52
 -12 -10  22    0.00    0.40
 -12 -10  22   -0.04    0.26
  22  12  10    0.15    0.40
  12  10  22    0.23    0.46
  22  12  10    0.19    0.18
 -10 -22  12    0.32    0.28
  14 -10  22    1.14    0.33
  10 -22  14    0.88    0.41
  22 -14  10    0.58    0.31
 -14  10  22    1.74    0.53
  22  14 -10    0.85    0.35
 -22  14  10    2.46    0.58
 -14 -10  22    0.62    0.34
 -10 -22  14    0.60    0.37
 -22 -14  10    0.93    0.68
  14  10  22    2.63    0.68
  22  14  10    1.17    0.26
  10  22  14    2.23    0.50
  22  14  10    2.46    0.60
 -14 -10  22    1.24    0.58
 -16  10  22    0.48    0.42
  22  16 -10   -0.01    0.26
  10 -22  16   -0.66    0.27
  22 -16  10   -0.10    0.23
  16 -10  22   -0.14    0.24
 -22 -16  10    0.00    0.63
 -16 -10  22   -0.03    0.48
  22  16  10    0.11    0.18
  10  22  16    0.22    0.38
 -10 -22  16    0.35    0.30
  16  10  22    0.29    0.51
  22  16  10   -0.19    0.42
 -16 -10  22   -0.34    0.28
 -18  10  22    0.66    0.48
  22 -18  10    0.08    0.30
  10 -22  18    0.43    0.41
  22  18 -10    0.86    0.36
  18 -10  22    0.31    0.31
  10  22  18    1.40    0.51
 -22 -18  10    1.07    0.74
  18  10  22    1.24    0.61
 -18 -10  22   -0.05    0.32
  22  18  10    1.39    0.54
 -10 -22  18    0.57    0.37
 -18 -10  22    0.76    0.67
 -20  10  22    0.66    0.43
  20 -10  22   -0.08    0.22
  22 -20  10   -0.25    0.25
  10 -22  20   -0.44    0.34
 -10 -22  20    0.21    0.33
 -20 -10  22    0.35    0.56
  20  10  22   -0.19    0.46
  10  22  20   -0.32    0.40
 -20 -10  22   -0.05    0.27
  22   0  12   -0.27    0.30
 -12 -22   0    0.03    0.22
   0 -12  22   -0.04    0.27
   0  12  22   -0.16    0.34
  12 -22   0   -0.12    0.18
  22   0 -12   -0.05    0.15
 -22   0  12   -0.28    0.49
  22   0  12    0.03    0.14
 -22   2  12   -0.07    0.48
  12 -22   2   -0.12    0.20
  22  -2  12    0.15    0.16
   2 -12  22   -0.06    0.26
  22   2 -12   -0.17    0.16
  22  -2  12    0.24    0.35
 -12 -22  -2   -0.12    0.18
  -2  12  22    0.09    0.42
 -22  -2  12   -0.70    0.49
  -2 -12  22    0.27    0.29
  22   2  12   -0.01    0.32
 -12 -22   2   -0.24    0.21
  22  -2 -12    0.19    0.17
  22   2  12    0.11    0.16
   2  12  22    0.29    0.48
 -12 -22  -4   -0.01    0.18
  22  -4  12    0.11    0.17
  12 -22   4   -0.15    0.23
   4 -12  22    0.02    0.25
 -22   4  12    0.13    0.48
  22   4 -12   -0.44    0.17
  -4  12  22    0.20    0.37
   4  12  22    0.44    0.48
  22  -4 -12   -0.14    0.14
  -4 -12  22    0.17    0.28
 -12 -22   4   -0.06    0.23
 -22  -4  12   -1.00    0.57
  22   4  12   -0.34    0.34
  22   4  12   -0.14    0.14
   6 -12  22    0.44    0.29
  22   6 -12    0.04    0.22
  12 -22   6    0.03    0.25
  -6  12  22    0.95    0.43
  22  -6  12    0.24    0.20
 -22   6  12    0.05    0.51
 -12 -22   6   -0.31    0.26
  22   6  12    0.38    0.19
 -22  -6  12   -0.85    0.61
  -6 -12  22    0.45    0.31
   6  12  22    0.19    0.48
  22   6  12    0.30    0.39
  -8  12  22   -0.12    0.35
  22  -8  12    0.13    0.19
   8 -12  22    0.33    0.25
  12 -22   8   -0.29    0.25
  22   8 -12    0.02    0.22
 -22   8  12   -0.18    0.42
  22   8  12   -0.10    0.35
 -12 -22   8   -0.05    0.22
 -22  -8  12   -0.40    0.58
  22   8  12    0.14    0.18
  -8 -12  22    0.06    0.25
   8  12  22   -0.44    0.39
 -10  12  22    0.32    0.34
  22  10 -12   -0.01    0.22
  10 -12  22    0.18    0.24
 -22  10  12   -0.04    0.40
  12 -22  10   -0.16    0.25
  22 -10  12   -0.19    0.20
  12  22  10    0.01    0.29
 -12 -22  10   -0.11    0.25
  10  12  22   -0.33    0.47
  22  10  12    0.18    0.40
  22  10  12    0.02    0.17
 -22 -10  12   -0.40    0.57
 -10 -12  22   -0.21    0.45
 -10 -12  22    0.20    0.31
  12 -12  22   -0.21    0.19
  22  12 -12   -0.16    0.22
 -22  12  12    0.33    0.40
 -12  12  22    0.39    0.38
  12 -22  12   -0.36    0.30
  22 -12  12   -0.06    0.19
  22  12  12   -0.04    0.17
  12  22  12   -0.06    0.30
 -12 -22  12    0.11    0.25
 -22 -12  12   -0.49    0.51
 -12 -12  22    0.32    0.44
 -12 -12  22    0.08    0.26
  12  12  22   -0.18    0.42
  22  12  12   -0.25    0.40
 -14  12  22   -0.16    0.31
  22 -14  12   -0.45    0.19
  14 -12  22   -0.23    0.21
  12 -22  14   -0.43    0.24
 -22  14  12    0.44    0.40
  22  14 -12   -0.11    0.27
  22  14  12   -0.09    0.16
 -12 -22  14    0.02    0.26
  22  14  12   -0.46    0.30
  14  12  22   -0.33    0.43
 -22 -14  12   -0.74    0.54
  12  22  14   -0.34    0.32
 -14 -12  22   -0.88    0.43
 -14 -12  22   -0.01    0.29
  22 -16  12   -0.05    0.26
  12 -22  16   -0.36    0.35
  16 -12  22   -0.13    0.23
 -16  12  22    0.51    0.40
  22  16 -12   -0.03    0.27
 -16 -12  22    0.13    0.30
 -22 -16  12   -0.47    0.58
  16  12  22    0.07    0.44
  12  22  16    0.36    0.39
 -12 -22  16    0.10    0.28
 -16 -12  22    0.67    0.51
  22  16  12    0.13    0.42
  22 -18  12   -0.05    0.28
 -18  12  22    0.71    0.44
  12 -22  18   -0.08    0.31
  18 -12  22    0.17    0.29
  22  18  12   -0.07    0.40
 -18 -12  22    0.32    0.62
  12  22  18    0.33    0.42
 -12 -22  18   -0.06    0.32
  18  12  22    0.14    0.51
 -18 -12  22   -0.17    0.25
  20 -12  22   -0.05    0.26
 -20  12  22    0.43    0.42
  12 -22  20   -0.44    0.36
  22 -20  12   -0.28    0.26
 -20 -12  22    0.25    0.55
 -12 -22  20   -0.03    0.31
 -22 -20  12   -0.06    0.31
  12  22  20   -0.11    0.44
  20  12  22    0.05    0.50
 -20 -12  22    0.09    0.29
  22  20  12   -0.18    0.40
  22   0  14    0.01    0.18
  14 -22   0    0.08    0.23
  22   0  14    0.10    0.36
   0 -14  22    0.21    0.28
 -22   0  14    0.72    0.53
 -14 -22   0    0.21    0.24
   0  14  22    0.99    0.54
  22   0 -14    0.25    0.21
   2 -14  22    1.31    0.40
  22  -2  14    2.13    0.52
  -2  14  22    2.33    0.64
  14 -22   2    1.40    0.34
  22   2 -14    0.77    0.28
  22  -2  14    1.01    0.27
 -22   2  14    2.13    0.69
  22   2  14    1.27    0.27
  -2 -14  22    1.65    0.44
 -14 -22   2    1.16    0.34
   2  14  22    2.10    0.63
 -22  -2  14    1.16    0.68
  22   2  14    2.10    0.54
  22  -2 -14    1.28    0.28
 -22   4  14   -0.10    0.46
  14 -22   4   -0.49    0.18
  -4  14  22    0.25    0.41
  22  -4  14   -0.26    0.28
  22  -4  14   -0.13    0.15
  22   4 -14   -0.23    0.19
   4 -14  22    0.20    0.30
 -22  -4  14   -0.16    0.53
 -14 -22   4   -0.23    0.22
   4  14  22    0.16    0.46
  -4 -14  22   -0.07    0.28
  22   4  14   -0.06    0.16
  22   4  14   -0.27    0.38
  22  -6  14    3.06    0.54
  22  -6  14    1.34    0.31
 -22   6  14    1.47    0.62
  14 -22   6    1.68    0.39
  22   6 -14    0.88    0.32
  -6  14  22    2.36    0.57
   6 -14  22    1.79    0.42
 -22  -6  14    1.15    0.72
  22   6  14    1.83    0.56
   6  14  22    2.10    0.63
  22   6  14    1.24    0.27
  -6 -14  22    1.29    0.40
 -14 -22   6    1.06    0.37
  14 -22   8    0.11    0.29
 -22   8  14    0.40    0.46
  22  -8  14    0.28    0.22
  22   8 -14    0.38    0.25
   8 -14  22    0.23    0.29
  -8  14  22    0.48    0.40
  -8 -14  22    0.19    0.32
 -14 -22   8    0.04    0.25
  22   8  14   -0.19    0.38
 -22  -8  14   -0.55    0.69
   8  14  22    0.32    0.57
  22   8  14    0.29    0.19
  14  22   8    0.73    0.37
  10 -14  22    1.12    0.38
  22 -10  14    0.69    0.32
  14 -22  10    1.16    0.39
 -22  10  14    1.23    0.58
 -10  14  22    2.35    0.58
  22  10 -14    1.04    0.33
  10  14  22    2.35    0.67
 -14 -22  10    1.19    0.40
  22  10  14    2.30    0.62
 -22 -10  14    0.35    0.69
 -10 -14  22    1.07    0.40
  22  10  14    1.35    0.27
  14  22  10    1.88    0.45
 -12  14  22    0.20    0.38
  14 -22  12   -0.37    0.26
  12 -14  22   -0.20    0.25
 -22  12  14   -0.42    0.40
  22  12 -14   -0.20    0.26
  22 -12  14   -0.22    0.20
  14  22  12   -0.15    0.30
  12  14  22    0.03    0.44
 -12 -14  22   -0.02    0.27
 -22 -12  14   -1.26    0.57
  22  12  14   -0.44    0.36
 -14 -22  12   -0.16    0.22
  22  14 -14    0.72    0.35
  14 -14  22    0.59    0.35
 -22  14  14    0.52    0.46
  22 -14  14    0.11    0.27
  14 -22  14    0.55    0.38
 -14  14  22    1.03    0.46
  14  22  14    0.57    0.41
 -14 -14  22    0.32    0.33
  14  14  22    1.20    0.59
  22  14  14    1.07    0.53
 -22 -14  14    0.13    0.68
 -14 -22  14    0.21    0.33
 -16  14  22    0.98    0.44
  16 -14  22    0.17    0.31
  14 -22  16   -0.23    0.32
  22 -16  14    0.01    0.25
  16  14  22    0.00    0.47
  22  16  14   -0.28    0.40
 -22 -16  14   -0.35    0.59
 -14 -22  16    0.02    0.31
 -16 -14  22   -0.18    0.35
  14  22  16   -0.01    0.39
  14 -22  18    0.42    0.38
  22 -18  14    0.11    0.31
 -18  14  22    1.51    0.54
  18 -14  22    0.37    0.36
  14  22  18    1.17    0.53
  22  18  14    0.63    0.47
 -22 -18  14   -0.25    0.37
 -14 -22  18    0.19    0.41
 -18 -14  22    0.39    0.35
  18  14  22    1.11    0.60
  20 -14  22   -0.25    0.25
  22 -20  14   -0.01    0.31
 -20  14  22    0.58    0.44
  14 -22  20   -0.50    0.32
 -14 -22  20   -0.12    0.33
  22  20  14   -0.84    0.38
  14  22  20    0.12    0.47
 -20 -14  22   -0.22    0.32
 -22 -20  14    0.07    0.30
  20  14  22   -0.61    0.40
   0  16  22    0.51    0.45
  22   0  16   -0.14    0.32
  22   0  16   -0.03    0.17
  16 -22   0    0.17    0.22
 -22   0  16    0.21    0.46
   0 -16  22   -0.31    0.25
  22   0 -16   -0.19    0.19
  22  -2  16    0.05    0.32
  -2  16  22   -0.02    0.38
  16 -22   2    0.10    0.22
   2 -16  22    0.13    0.33
  22  -2  16    0.12    0.19
  22   2 -16   -0.04    0.21
 -22   2  16    0.81    0.55
  -2 -16  22    0.41    0.33
 -22  -2  16    0.57    0.57
  22   2  16    0.27    0.40
   2  16  22    0.43    0.47
  22   2  16    0.34    0.19
  22  -4  16    0.03    0.19
 -22   4  16    0.01    0.47
  -4  16  22    0.39    0.40
  22   4 -16   -0.24    0.19
  16 -22   4   -0.02    0.22
   4 -16  22   -0.47    0.24
  22  -4  16    0.08    0.32
  22   4  16    0.12    0.39
  16  22   4   -0.06    0.21
   4  16  22    0.28    0.49
  22   4  16   -0.07    0.16
  -4 -16  22    0.07    0.30
 -22  -4  16   -0.38    0.52
 -16 -22   4    0.06    0.24
  -6  16  22    0.46    0.42
   6 -16  22    0.33    0.34
  22  -6  16    0.20    0.22
 -22   6  16   -0.04    0.49
  16 -22   6   -0.01    0.22
  22   6 -16    0.13    0.23
  22  -6  16    0.39    0.35
  22   6  16    0.32    0.44
 -22  -6  16   -0.05    0.64
   6  16  22   -0.16    0.41
 -16 -22   6    0.15    0.27
  -6 -16  22   -0.01    0.30
  22   6  16    0.15    0.18
  22  -8  16    0.16    0.22
  22   8 -16   -0.03    0.24
  16 -22   8   -0.17    0.26
   8 -16  22    0.07    0.27
  -8  16  22   -0.14    0.40
 -22   8  16   -0.13    0.37
  22   8  16    0.25    0.19
  -8 -16  22    0.39    0.32
  16  22   8   -0.08    0.29
 -16 -22   8    0.70    0.33
 -22  -8  16   -0.03    0.59
   8  16  22   -0.49    0.44
  22   8  16   -0.19    0.37
 -22  10  16    0.53    0.44
  22  10 -16   -0.12    0.25
 -10  16  22    0.29    0.39
  10 -16  22    0.41    0.32
  22 -10  16    0.02    0.22
  16 -22  10   -0.13    0.26
  16  22  10    0.24    0.35
  10  16  22    0.04    0.53
 -10 -16  22    0.19    0.31
  22  10  16    0.17    0.42
 -16 -22  10    0.10    0.30
 -22 -10  16   -0.72    0.69
  22  12 -16    0.08    0.26
 -22  12  16    1.05    0.47
  16 -22  12   -0.18    0.29
  12 -16  22    0.29    0.30
 -12  16  22    0.62    0.40
  22 -12  16   -0.02    0.22
  22  12  16    0.27    0.45
 -22 -12  16   -0.22    0.67
  12  16  22    0.02    0.51
  16  22  12    0.23    0.37
 -12 -16  22   -0.09    0.30
 -16 -22  12    0.07    0.30
  16 -22  14   -0.31    0.27
 -14  16  22    0.38    0.41
  14 -16  22   -0.10    0.29
  22 -14  16    0.17    0.28
 -22  14  16    0.58    0.39
  16  22  14   -0.12    0.34
  14  16  22   -0.41    0.46
 -16 -22  14   -0.57    0.26
 -14 -16  22    0.21    0.35
  22  14  16    0.42    0.46
 -22 -14  16   -0.98    0.70
 -16  16  22    0.98    0.45
  16 -16  22    0.16    0.33
  16 -22  16   -0.21    0.31
  22 -16  16    0.07    0.28
 -22  16  16    1.06    0.44
  16  22  16    0.10    0.42
 -22 -16  16   -0.17    0.30
 -16 -22  16    0.19    0.34
  22  16  16    0.30    0.47
 -16 -16  22    0.61    0.36
 -22 -16  16   -0.31    0.67
  16  16  22   -0.15    0.46
 -18  16  22    0.44    0.42
  16 -22  18   -0.13    0.33
  22 -18  16   -0.21    0.27
  18 -16  22   -0.54    0.28
 -22 -18  16   -0.07    0.35
  16  22  18    0.19    0.47
 -18 -16  22    0.04    0.31
  18  16  22   -0.60    0.48
 -16 -22  18   -0.53    0.31
  22  18  16    0.19    0.45
  16 -22  20   -0.55    0.30
  22 -20  16    0.17    0.34
 -20  16  22    0.71    0.48
  20 -16  22   -0.13    0.30
  20  16  22   -0.54    0.42
 -20 -16  22   -0.02    0.34
 -16 -22  20    0.13    0.32
 -22 -20  16    0.29    0.38
  16  22  20    0.31    0.49
  22  20  16   -0.04    0.45
   0  18  22   -0.28    0.45
  18 -22   0   -0.36    0.22
  22   0  18   -0.30    0.14
 -22   0  18   -0.59    0.47
  18  22   0   -0.19    0.23
   0 -18  22   -0.16    0.29
  22   0  18   -0.57    0.37
  22  -2  18    0.19    0.23
   2 -18  22    0.92    0.42
  -2  18  22    0.71    0.55
  22  -2  18    1.48    0.54
  18 -22   2    0.55    0.31
 -22   2  18   -0.24    0.57
  18  22   2    0.67    0.31
  22   2  18    0.76    0.52
 -22  -2  18    0.47    0.61
  22   2  18    0.44    0.23
   2  18  22    1.15    0.58
  -2 -18  22    0.38    0.36
  18 -22   4    0.14    0.30
 -22   4  18    0.02    0.55
  22  -4  18    0.28    0.23
  22  -4  18   -0.18    0.38
   4 -18  22    0.54    0.38
  22   4 -18   -0.16    0.25
  -4  18  22    0.44    0.48
  18  22   4    0.29    0.26
  22   4  18   -0.20    0.45
  22   4  18    0.18    0.20
  -4 -18  22   -0.07    0.32
   4  18  22    0.86    0.56
 -22  -4  18    0.69    0.62
   6 -18  22    0.74    0.41
  -6  18  22    1.30    0.53
  22  -6  18    0.86    0.30
  22   6 -18    1.02    0.34
  22  -6  18    1.27    0.47
 -22   6  18    1.27    0.63
  18 -22   6    0.72    0.37
  -6 -18  22    1.10    0.43
 -22  -6  18    0.92    0.70
 -18 -22   6    1.11    0.40
   6  18  22    1.85    0.63
  22   6  18    2.08    0.65
  18 -22   8   -0.38    0.25
  -8  18  22   -0.15    0.38
  22   8 -18   -0.37    0.24
  22  -8  18   -0.13    0.18
 -22   8  18   -0.38    0.44
   8 -18  22   -0.08    0.30
   8  18  22    0.04    0.47
  -8 -18  22   -0.38    0.27
  22   8  18   -0.41    0.43
 -18 -22   8   -0.23    0.26
  18  22   8   -0.42    0.29
 -22  -8  18   -0.34    0.64
  22  10 -18    0.38    0.30
  18 -22  10    0.57    0.38
  10 -18  22    0.61    0.41
  22 -10  18    0.33    0.30
 -22  10  18    0.80    0.51
 -10  18  22    1.44    0.47
 -18 -22  10    0.48    0.38
 -22 -10  18    0.94    0.71
  18  22  10    0.86    0.43
  22  10  18    1.50    0.59
 -10 -18  22    0.60    0.36
  10  18  22    1.35    0.59
  22 -12  18    0.14    0.28
  18 -22  12   -0.15    0.31
 -22  12  18    0.29    0.42
  12 -18  22    0.10    0.34
 -12  18  22    0.67    0.41
 -12 -18  22    0.31    0.34
  12  18  22    0.25    0.47
 -22 -12  18   -0.31    0.59
 -18 -22  12    0.02    0.33
  22  12  18    0.02    0.46
  18  22  12    0.66    0.43
 -14  18  22    1.03    0.45
 -22  14  18    1.57    0.52
  18 -22  14    0.15    0.36
  14 -18  22    0.27    0.36
  22 -14  18    0.19    0.32
 -18 -22  14    0.77    0.39
  18  22  14    1.31    0.50
 -22 -14  18    0.30    0.65
  14  18  22    1.05    0.59
 -14 -18  22    0.51    0.42
  22  14  18    1.08    0.56
  18 -22  16   -0.35    0.28
 -22  16  18    0.37    0.42
  16 -18  22   -0.11    0.34
  22 -16  18   -0.30    0.24
 -16  18  22    0.15    0.41
  22  16  18   -0.55    0.42
  16  18  22   -0.23    0.49
  18  22  16    0.26    0.43
 -16 -18  22   -0.39    0.30
 -22 -16  18    0.09    0.29
 -18 -22  16    0.21    0.33
  22 -18  18    0.04    0.30
 -18  18  22    2.03    0.53
  18 -22  18    0.15    0.36
  18 -18  22   -0.20    0.31
  18  22  18    0.69    0.53
 -22 -18  18    0.19    0.38
 -18 -18  22   -0.02    0.37
  22  18  18    1.02    0.52
 -18 -22  18    0.48    0.40
  18  18  22    0.91    0.54
  18  22  20   -0.12    0.46
   0 -20  22   -0.40    0.33
   0  20  22    0.29    0.46
  22   0  20   -0.27    0.15
  20 -22   0    0.00    0.22
  20  22   0   -0.31    0.22
 -22   0  20    0.06    0.48
  22   0  20   -0.06    0.43
  20 -22   2   -0.06    0.23
   2 -20  22   -0.52    0.34
  22  -2  20    0.22    0.39
  20  22  -2   -0.07    0.23
 -22   2  20    0.62    0.49
  22  -2  20    0.07    0.20
  -2  20  22    0.07    0.45
  22   2  20    0.20    0.43
   2  20  22    0.07    0.41
  20  22   2    0.06    0.23
  22   2  20    0.09    0.18
 -22  -2  20   -0.02    0.53
  -2 -20  22   -0.14    0.33
  20 -22   4   -0.08    0.24
 -22   4  20    0.43    0.47
 -20 -22  -4    0.20    0.44
   4 -20  22   -0.38    0.29
  22  -4  20    0.22    0.23
  -4  20  22    0.28    0.48
  22  -4  20   -0.40    0.30
  20  22   4   -0.21    0.24
  22   4  20   -0.01    0.44
 -22  -4  20    0.14    0.53
  -4 -20  22   -0.21    0.32
   4  20  22   -0.19    0.43
  22  -6  20   -0.23    0.20
 -22   6  20    0.39    0.41
   6 -20  22   -0.22    0.32
 -20 -22  -6    0.59    0.43
  20 -22   6   -0.03    0.29
  22   6 -20   -0.31    0.24
  -6  20  22   -0.02    0.39
  22   6  20    0.42    0.48
 -22  -6  20    0.09    0.59
   6  20  22   -0.40    0.42
  20  22   6   -0.28    0.23
  -6 -20  22    0.04    0.32
  22  -8  20    0.20    0.24
  -8  20  22    0.46    0.41
   8 -20  22    0.29    0.37
  20 -22   8    0.08    0.29
 -22   8  20    0.26    0.42
 -22  -8  20    0.00    0.57
  22   8  20    0.27    0.54
  -8 -20  22   -0.01    0.32
 -20 -22   8    0.17    0.32
   8  20  22    0.12    0.51
  22 -10  20   -0.32    0.23
  20 -22  10   -0.12    0.28
 -10  20  22    0.78    0.43
 -22  10  20    1.19    0.47
  10 -20  22   -0.13    0.31
  20  22  10    0.15    0.38
 -22 -10  20   -0.29    0.55
  22  10  20   -0.08    0.46
 -20 -22  10   -0.28    0.27
  10  20  22   -0.33    0.48
 -10 -20  22   -0.06    0.31
  22 -12  20   -0.04    0.27
 -12  20  22    0.53    0.40
  12 -20  22    0.15    0.35
  20 -22  12   -0.08    0.27
 -22  12  20    0.49    0.40
 -22 -12  20   -0.08    0.56
  20  22  12    0.31    0.41
 -20 -22  12    0.35    0.34
  22  12  20   -0.07    0.45
 -12 -20  22    0.30    0.35
  12  20  22   -0.31    0.45
 -22 -12  20   -0.18    0.30
  22 -14  20   -0.31    0.24
 -22  14  20    0.47    0.41
  20 -22  14   -0.12    0.34
  14 -20  22   -0.12    0.32
 -14 -20  22   -0.16    0.31
 -22 -14  20   -0.09    0.29
  22  14  20    0.03    0.43
  14  20  22   -0.70    0.43
 -22 -14  20   -0.66    0.60
 -20 -22  14   -0.18    0.29
  20  22  14   -0.11    0.39
  20 -22  16    0.07    0.33
  16 -20  22   -0.26    0.33
 -22  16  20    0.65    0.43
  22 -16  20   -0.08    0.27
 -22 -16  20   -0.29    0.30
  22  16  20   -0.06    0.44
 -20 -22  16    0.16    0.34
 -16 -20  22    0.43    0.37
  20  22  16    0.34    0.47
  16  20  22   -0.19    0.48
  20  22  18    0.06    0.45
 -22   0  22    2.86    0.77
   0 -22  22    1.92    0.55
   0  22  22    2.81    0.67
  22   0  22    2.77    0.69
  22   0  22    1.34    0.33
  22  22   0    1.16    0.37
  22  -2  22    0.46    0.26
 -22   2  22    2.54    0.69
  22  22  -2    1.24    0.38
  -2  22  22    1.50    0.57
   2 -22  22    1.13    0.48
  22  -2  22    1.06    0.51
  22 -22   2    0.59    0.36
   2  22  22    1.63    0.60
 -22  -2  22    1.57    0.69
  22   2  22    1.50    0.59
  -2 -22  22    0.54    0.40
  22  22   2    0.66    0.34
 -22 -22  -4    0.20    0.53
  22  -4  22    0.18    0.23
 -22   4  22    0.59    0.53
  22  22  -4    0.13    0.28
  -4  22  22    0.76    0.51
   4 -22  22    0.24    0.40
  22  -4  22    0.79    0.50
  22 -22   4   -0.01    0.29
   4  22  22    0.43    0.51
 -22  -4  22    0.63    0.65
  22   4  22    0.37    0.54
  -4 -22  22    0.19    0.38
  22  22   4    0.16    0.26
 -22 -22  -6    1.88    0.64
  22  -6  22    1.41    0.36
 -22   6  22    2.46    0.69
  22 -22   6    1.10    0.44
   6 -22  22    1.35    0.51
   6  22  22    1.74    0.62
  -6 -22  22    1.19    0.46
 -22  -6  22    1.51    0.76
  22   6  22    1.89    0.68
  22  22   6    1.13    0.36
 -22 -22  -8    0.73    0.49
  22  -8  22    0.67    0.29
 -22   8  22    0.71    0.55
  22 -22   8    0.08    0.32
   8 -22  22    0.39    0.43
   8  22  22    0.79    0.55
  -8 -22  22    0.18    0.35
 -22  -8  22    0.84    0.67
  22   8  22    0.54    0.56
  22 -10  22    0.45    0.34
  22 -22  10    0.41    0.37
  10 -22  22    0.67    0.48
 -22  10  22    1.86    0.62
 -10 -22  22    1.14    0.47
 -22 -10  22    0.67    0.40
  10  22  22    1.53    0.63
 -22 -10  22    0.94    0.72
 -22 -22  10    0.44    0.42
  22  10  22    2.76    0.74
  22 -12  22   -0.18    0.24
  22 -22  12    0.03    0.33
  12 -22  22    0.27    0.41
 -22  12  22    0.33    0.47
 -12 -22  22   -0.27    0.30
 -22 -12  22   -0.17    0.31
  12  22  22   -0.05    0.49
 -22 -12  22    0.04    0.61
 -22 -22  12   -0.04    0.32
  22  12  22   -0.62    0.34
  22  22  12   -0.08    0.39
  22 -22  14    0.24    0.36
 -22  14  22    0.95    0.46
  22 -14  22    0.12    0.31
  14  22  22    0.33    0.50
 -22 -14  22   -0.10    0.34
 -14 -22  22    0.20    0.37
  22  22  14    0.28    0.47
 -23  -1  -1    0.07    0.37
   1 -23   1    0.00    0.18
  23  -1   1    0.15    0.15
 -23   1   1   -0.06    0.33
  -1 -23  -1   -0.10    0.15
  -1   1  23    0.11    0.45
  23   1  -1    0.05    0.13
   1  -1  23   -0.02    0.41
  -1 -23   1   -0.15    0.15
 -23  -1   1    0.14    0.42
   1 -23  -1   -0.11    0.16
   1   1  23    0.01    0.46
  23  -1  -1    0.10    0.14
 -23   1  -1    0.04    0.36
  -1  -1  23    0.06    0.43
  23   1   1   -0.05    0.12
   3  -1  23    0.41    0.53
  -3   1  23    0.64    0.50
  -1 -23  -3    0.32    0.20
  23  -3   1    0.20    0.15
  23   3  -1    0.54    0.19
 -23  -3  -1    0.63    0.42
 -23   3   1    0.12    0.41
   1 -23   3    0.19    0.22
  -1 -23   3    0.38    0.26
  -3  -1  23    0.28    0.49
   3   1  23   -0.26    0.47
  23   3   1    0.38    0.18
 -23  -3   1    0.11    0.38
 -23   3  -1    0.67    0.42
  23  -3  -1    0.49    0.19
   5  -1  23   -0.43    0.35
 -23  -5  -1    0.11    0.38
  -5   1  23   -0.29    0.39
  23   5  -1   -0.08    0.14
   1 -23   5    0.06    0.22
 -23   5   1    0.08    0.34
  23  -5   1    0.08    0.16
 -23  -5   1   -0.34    0.41
   5   1  23   -0.54    0.37
 -23   5  -1   -0.08    0.35
  -5  -1  23   -0.20    0.39
  23   5   1    0.04    0.14
  23  -5  -1   -0.13    0.13
  -1 -23   5    0.00    0.19
 -23   7   1    0.30    0.41
  23  -7   1    0.24    0.18
   7  -1  23   -0.52    0.44
 -23  -7  -1    0.26    0.42
   1 -23   7    0.05    0.21
  -7   1  23    0.67    0.47
  23   7  -1   -0.19    0.14
 -23   7  -1    0.06    0.37
  23  -7  -1    0.08    0.15
   7   1  23   -0.41    0.55
  23   7   1   -0.10    0.17
  -1 -23   7    0.25    0.26
 -23  -7   1    0.03    0.46
  -7  -1  23    0.04    0.45
  23  -9   1   -0.21    0.14
  23   9  -1   -0.46    0.17
   1 -23   9    0.05    0.24
  -9   1  23    0.01    0.36
 -23   9   1   -0.82    0.35
 -23  -9  -1   -0.11    0.41
   9  -1  23   -0.53    0.37
  23  -9  -1    0.01    0.14
 -23  -9   1   -0.06    0.43
 -23   9  -1   -0.16    0.37
  23   9   1   -0.23    0.18
   9   1  23   -0.39    0.43
  -9  -1  23   -0.11    0.39
  -1 -23   9    0.13    0.25
  23 -11   1   -0.28    0.17
  11  -1  23   -0.33    0.34
 -23 -11  -1    0.07    0.44
 -11   1  23   -0.70    0.40
 -23  11   1   -0.52    0.41
   1 -23  11    0.05    0.25
 -23  11  -1   -0.25    0.36
  11   1  23   -0.47    0.36
 -23 -11   1   -0.31    0.43
  23  11   1   -0.30    0.17
 -11  -1  23   -0.50    0.38
  23 -11  -1   -0.24    0.14
  -1 -23  11   -0.05    0.23
 -23 -13  -1    0.22    0.50
  13  -1  23   -0.44    0.35
  23  13  -1   -0.41    0.16
 -13   1  23   -0.30    0.35
  23 -13   1   -0.33    0.16
   1 -23  13   -0.12    0.23
  23 -13  -1   -0.09    0.16
 -13  -1  23   -0.64    0.35
 -23 -13   1   -0.16    0.49
  23  13   1   -0.23    0.17
  13   1  23   -0.25    0.41
  -1 -23  13   -0.21    0.24
  15  -1  23   -0.23    0.36
 -15   1  23    0.28    0.45
  23  15  -1   -0.21    0.20
   1 -23  15    0.07    0.28
 -23 -15  -1    0.32    0.51
  23 -15   1    0.07    0.20
  15   1  23   -0.10    0.40
 -23 -15   1   -0.07    0.44
  -1 -23  15    0.05    0.30
  23 -15  -1   -0.01    0.18
  23  15   1   -0.14    0.21
 -15  -1  23    0.10    0.40
  23  17  -1    0.06    0.23
   1 -23  17   -0.07    0.29
 -17   1  23   -0.10    0.44
  17  -1  23   -0.25    0.40
 -23 -17  -1   -0.60    0.44
  23 -17   1   -0.21    0.21
  17   1  23   -0.17    0.42
 -17  -1  23   -0.17    0.42
  23 -17  -1   -0.29    0.19
  23  17   1    0.00    0.20
 -23 -17   1   -0.28    0.51
  -1 -23  17   -0.01    0.29
   1 -23  19    0.13    0.35
 -19   1  23    0.39    0.45
  23  19  -1   -0.13    0.25
  23 -19   1   -0.15    0.22
  19  -1  23   -0.13    0.41
 -23 -19  -1   -0.55    0.43
 -19  -1  23    0.05    0.51
  19   1  23   -0.38    0.41
  23  19   1    0.02    0.24
  23 -19  -1   -0.25    0.19
 -23 -19   1   -0.17    0.48
  -1 -23  19    0.10    0.31
  23 -21   1   -0.17    0.22
  23  21  -1   -0.12    0.25
   1 -23  21   -0.06    0.33
 -23 -21  -1   -0.91    0.51
 -21   1  23    0.48    0.51
  21  -1  23   -0.19    0.41
 -21  -1  23    0.31    0.48
  21   1  23   -0.30    0.40
  23  21   1   -0.25    0.25
  -1 -23  21    0.00    0.34
  23  -1   3    0.40    0.18
  -3 -23  -1    0.28    0.21
   3 -23   1    0.55    0.23
 -23   1   3    0.87    0.45
  -1   3  23    0.88    0.53
   1  -3  23    0.75    0.52
  23   1  -3    0.34    0.17
 -23  -1  -3   -0.10    0.33
  -3 -23   1    0.28    0.21
   1   3  23    0.20    0.47
  -1  -3  23    0.21    0.46
   3 -23  -1    0.34    0.22
  23   1   3    0.26    0.17
 -23  -1   3    0.36    0.41
 -23   1  -3    0.56    0.40
  23  -1  -3    0.32    0.18
  -3   3  23   -0.09    0.42
  23  -3   3   -0.14    0.11
  23   3  -3   -0.08    0.14
   3 -23   3    0.02    0.18
  -3 -23  -3    0.07    0.19
   3  -3  23   -0.29    0.43
 -23  -3  -3    0.19    0.41
 -23   3   3   -0.38    0.35
 -23  -3   3    0.36    0.43
  -3 -23   3   -0.21    0.17
  -3  -3  23   -0.17    0.37
  23  -3  -3   -0.04    0.14
  23   3   3   -0.04    0.13
 -23   3  -3   -0.04    0.31
   3   3  23   -0.35    0.45
  -5   3  23    0.31    0.44
 -23   5   3   -0.20    0.41
  23   5  -3    0.11    0.18
   3 -23   5    0.06    0.22
  23  -5   3    0.24    0.18
 -23  -5  -3    0.61    0.48
   5  -3  23   -0.06    0.45
   5   3  23    0.07    0.51
  -5  -3  23    0.18    0.47
  -3 -23   5    0.30    0.25
  23   5   3    0.20    0.18
 -23  -5   3    0.36    0.45
  23  -5  -3    0.29    0.16
 -23   5  -3    0.91    0.42
   3 -23   7   -0.04    0.23
  23  -7   3   -0.03    0.15
 -23  -7  -3   -0.42    0.37
   7  -3  23   -0.54    0.40
  -7   3  23   -0.08    0.36
 -23   7   3   -0.17    0.42
 -23   7  -3   -0.09    0.34
   7   3  23   -0.94    0.40
  23  -7  -3   -0.11    0.13
 -23  -7   3   -0.12    0.45
  -3 -23   7    0.09    0.24
  -7  -3  23   -0.38    0.39
  23   7   3    0.00    0.15
 -23  -9  -3   -0.75    0.37
  23  -9   3   -0.28    0.13
   9  -3  23   -0.88    0.35
  -9   3  23   -0.31    0.33
   3 -23   9   -0.14    0.23
 -23   9   3   -0.57    0.40
  23   9  -3   -0.19    0.16
  23   9   3   -0.09    0.17
 -23   9  -3   -0.46    0.29
  -3 -23   9   -0.07    0.23
  23  -9  -3   -0.15    0.14
  -9  -3  23    0.17    0.37
 -23  -9   3   -0.40    0.43
   9   3  23   -0.26    0.41
   3 -23  11    0.09    0.29
  23  11  -3   -0.29    0.16
  23 -11   3   -0.17    0.17
  11  -3  23   -0.34    0.36
  11  -3  23   -0.37    0.15
 -11   3  23   -0.20    0.37
 -23 -11  -3   -0.48    0.38
 -23  11   3   -0.88    0.42
  23  11   3   -0.32    0.16
 -11  -3  23   -0.41    0.37
 -23 -11   3   -0.32    0.52
  -3 -23  11   -0.26    0.20
  23 -11  -3   -0.23    0.13
  11   3  23   -0.27    0.39
  23  13  -3   -0.16    0.16
 -13   3  23   -0.43    0.39
   3 -23  13   -0.08    0.28
  13  -3  23   -0.36    0.15
  13  -3  23   -0.03    0.38
  23 -13   3   -0.33    0.15
 -23 -13   3   -0.09    0.51
 -13  -3  23   -0.43    0.42
  23 -13  -3   -0.34    0.14
  13   3  23   -0.16    0.45
  23  13   3   -0.43    0.17
  -3 -23  13    0.16    0.28
  23 -15   3    0.16    0.20
 -23 -15  -3   -0.98    0.42
  15  -3  23   -0.23    0.15
   3 -23  15   -0.17    0.26
  15  -3  23   -0.14    0.36
  23  15  -3   -0.06    0.19
 -15   3  23   -0.19    0.32
  15   3  23    0.10    0.44
 -23 -15   3   -0.43    0.47
  23 -15  -3   -0.25    0.16
  23  15   3   -0.29    0.19
  -3 -23  15   -0.24    0.25
 -15  -3  23    0.30    0.46
 -23 -17  -3   -0.65    0.45
   3 -23  17   -0.22    0.28
  23  17  -3   -0.11    0.24
  23 -17   3    0.08    0.22
  17  -3  23   -0.16    0.16
 -17   3  23   -0.16    0.40
  17  -3  23   -0.16    0.36
  23  17   3   -0.13    0.20
 -23 -17   3   -0.65    0.45
  17   3  23   -0.32    0.39
  23 -17  -3   -0.29    0.20
  -3 -23  17    0.21    0.32
 -17  -3  23    0.05    0.47
  23  19  -3   -0.38    0.22
  19  -3  23    0.10    0.43
   3 -23  19   -0.10    0.33
  23 -19   3    0.05    0.23
  19  -3  23   -0.19    0.17
 -19   3  23    0.13    0.38
 -23 -19  -3   -0.38    0.46
  -3 -23  19    0.06    0.29
 -19  -3  23   -0.07    0.43
  19   3  23   -0.06    0.46
 -23 -19   3   -0.62    0.50
  23  19   3   -0.22    0.20
  21  -3  23   -0.29    0.18
 -23 -21  -3   -0.29    0.50
 -21   3  23    0.44    0.42
  21  -3  23   -0.07    0.40
  23 -21   3   -0.20    0.24
   3 -23  21   -0.44    0.35
  23  21  -3    0.20    0.27
  23  21   3   -0.15    0.24
 -21  -3  23   -0.46    0.44
   3  23  21   -0.16    0.42
  21   3  23   -0.32    0.48
  -3 -23  21   -0.11    0.29
  -1   5  23   -0.07    0.42
 -23   1   5   -0.66    0.34
   1  -5  23    0.16    0.16
   1  -5  23   -0.15    0.42
  -5 -23  -1   -0.06    0.17
 -23  -1  -5   -0.51    0.38
   5 -23   1   -0.22    0.17
  23  -1   5    0.06    0.15
  23   1  -5    0.13    0.16
  -1  -5  23   -0.06    0.41
 -23   1  -5   -0.33    0.32
  23  -1  -5    0.08    0.14
 -23  -1   5    0.21    0.42
   1   5  23   -0.12    0.43
   5 -23  -1    0.09    0.18
  23   1   5   -0.11    0.13
  -5 -23   1    0.05    0.18
 -23   3   5    0.10    0.43
  23   3  -5    0.06    0.18
   3  -5  23    0.17    0.17
   5 -23   3    0.27    0.24
  -3   5  23    0.56    0.43
  -5 -23  -3    0.22    0.19
   3  -5  23    0.74    0.53
  23  -3   5    0.05    0.16
 -23  -3  -5    0.41    0.47
  -3  -5  23    0.23    0.48
  23  -3  -5    0.21    0.18
   3   5  23    0.74    0.59
  -5 -23   3    0.06    0.22
  23   3   5    0.47    0.19
 -23   3  -5    0.36    0.39
 -23  -3   5    0.17    0.46
   5  -5  23    0.04    0.15
  23  -5   5   -0.09    0.16
 -23   5   5   -1.03    0.42
  -5   5  23   -0.23    0.36
 -23  -5  -5   -0.78    0.30
   5  -5  23   -0.07    0.40
   5 -23   5   -0.23    0.20
 -23   5  -5   -0.11    0.30
  -5 -23   5    0.09    0.19
 -23  -5   5    0.29    0.46
   5   5  23   -0.76    0.38
  23  -5  -5   -0.02    0.14
  -5  -5  23   -0.11    0.42
  23   5   5   -0.03    0.13
 -23   7   5   -0.54    0.45
   5 -23   7    0.08    0.24
   7  -5  23    0.30    0.45
   7  -5  23    0.11    0.17
  23  -7   5    0.02    0.17
  23   7  -5   -0.30    0.18
  -7   5  23    0.37    0.43
 -23  -7  -5   -0.64    0.43
  23  -7  -5    0.26    0.18
 -23  -7   5    0.22    0.53
  -7  -5  23   -0.07    0.46
 -23   7  -5    0.44    0.36
  23   7   5    0.22    0.18
  -5 -23   7    0.13    0.24
   5 -23   9   -0.31    0.25
   9  -5  23   -0.21    0.38
  23   9  -5   -0.24    0.18
  -9   5  23   -0.58    0.30
   9  -5  23   -0.24    0.16
 -23  -9  -5   -0.52    0.42
  23  -9   5   -0.11    0.17
 -23  -9   5   -0.32    0.51
   9   5  23   -0.52    0.39
  23  -9  -5   -0.05    0.15
 -23   9  -5   -0.02    0.33
  -5 -23   9    0.05    0.22
  23   9   5   -0.01    0.15
  -9  -5  23   -0.15    0.43
  11  -5  23   -0.34    0.17
 -23 -11  -5   -0.73    0.41
  23  11  -5    0.15    0.22
  23 -11   5   -0.28    0.16
 -11   5  23   -0.15    0.35
   5 -23  11    0.03    0.27
  11  -5  23   -0.46    0.35
 -23  11   5   -0.74    0.42
  11   5  23   -0.16    0.44
 -23 -11   5   -0.17    0.47
  -5 -23  11   -0.01    0.28
  23 -11  -5    0.09    0.17
 -11  -5  23   -0.30    0.40
  23  11   5   -0.21    0.17
   5 -23  13   -0.59    0.28
 -23 -13  -5   -0.40    0.39
 -13   5  23   -0.02    0.38
  13  -5  23   -0.53    0.37
  13  -5  23   -0.35    0.16
  23  13  -5   -0.05    0.22
  23 -13   5   -0.25    0.18
  13   5  23   -0.38    0.43
 -23 -13   5   -0.37    0.47
  23 -13  -5    0.02    0.16
  23  13   5   -0.42    0.17
 -13  -5  23   -0.12    0.46
  -5 -23  13    0.02    0.27
  23 -15   5   -0.01    0.19
  23  15  -5    0.14    0.22
   5 -23  15   -0.39    0.27
  15  -5  23   -0.11    0.35
 -23 -15  -5    0.36    0.50
 -15   5  23    0.55    0.44
  15  -5  23   -0.08    0.19
  23  15   5   -0.01    0.20
 -23 -15   5   -0.44    0.49
  23 -15  -5    0.14    0.18
  15   5  23    0.11    0.45
 -15  -5  23    0.09    0.47
  -5 -23  15    0.06    0.27
  23 -17   5   -0.16    0.21
  23  17  -5   -0.24    0.23
 -23 -17  -5   -0.62    0.39
 -17   5  23    0.07    0.40
  17  -5  23   -0.53    0.37
  17  -5  23   -0.04    0.18
   5 -23  17   -0.39    0.31
 -23 -17   5   -0.30    0.59
  23  17   5   -0.15    0.19
 -17  -5  23   -0.32    0.46
  -5 -23  17   -0.10    0.26
  17   5  23   -0.61    0.43
  19  -5  23   -0.08    0.18
   5 -23  19    0.00    0.34
 -23 -19  -5   -0.07    0.43
  23 -19   5   -0.27    0.19
 -19   5  23    0.57    0.44
  23  19  -5   -0.31    0.23
  19  -5  23   -0.16    0.35
 -19  -5  23    0.66    0.53
 -23 -19   5   -0.67    0.52
  23  19   5   -0.26    0.20
  -5 -23  19    0.21    0.34
   5  23  19   -0.03    0.42
  19   5  23   -0.05    0.47
  23  21  -5   -0.14    0.26
  23 -21   5   -0.13    0.26
 -23 -21  -5   -0.11    0.46
 -21   5  23    0.16    0.43
   5 -23  21   -0.19    0.39
  21  -5  23   -0.03    0.21
   5  23  21   -0.14    0.44
  -5 -23  21    0.08    0.33
 -21  -5  23    0.74    0.60
  21   5  23   -0.24    0.46
  23  21   5    0.03    0.22
   1  -7  23    0.19    0.19
 -23   1   7   -0.96    0.51
  -7 -23  -1   -0.14    0.19
   1  -7  23    0.51    0.48
  -1   7  23    0.08    0.38
  23  -1   7   -0.06    0.15
   7 -23   1   -0.43    0.22
  23   1  -7    0.14    0.19
   1   7  23    0.08    0.46
 -23   1  -7   -0.25    0.36
  -1  -7  23    0.08    0.43
 -23  -1   7   -0.56    0.46
  -1  -7  23    0.09    0.19
  23  -1  -7    0.27    0.17
  -7 -23   1    0.10    0.22
   7 -23  -1   -0.20    0.21
  23   1   7    0.00    0.15
 -23   3   7   -1.16    0.45
  23  -3   7   -0.10    0.14
   3  -7  23   -0.26    0.40
  -7 -23  -3   -0.06    0.17
  -3   7  23   -0.09    0.38
   3  -7  23   -0.15    0.15
  23   3  -7   -0.39    0.16
  -7 -23   3   -0.20    0.20
 -23  -3   7   -0.58    0.46
 -23   3  -7   -0.72    0.29
  -3  -7  23    0.10    0.38
  -3  -7  23   -0.02    0.19
  23   3   7   -0.20    0.12
   3   7  23    0.04    0.50
  23  -3  -7   -0.03    0.15
   5  -7  23    0.11    0.18
  -5   7  23    0.23    0.39
  23   5  -7   -0.27    0.17
  23  -5   7    0.12    0.16
 -23  -5  -7   -0.70    0.45
   7 -23   5   -0.45    0.25
   5  -7  23    0.23    0.45
 -23   5   7   -0.38    0.44
   5   7  23   -0.02    0.47
 -23  -5   7    0.14    0.51
  -5  -7  23    0.39    0.47
  -5  -7  23    0.10    0.23
 -23   5  -7    0.05    0.35
  -7 -23   5    0.10    0.24
  23   5   7    0.17    0.16
  23  -5  -7    0.17    0.17
  23   7  -7   -0.28    0.20
 -23  -7  -7   -0.72    0.35
  23  -7   7   -0.12    0.14
   7 -23   7   -0.47    0.21
  -7   7  23   -0.31    0.31
   7  -7  23   -0.04    0.17
  -7  -7  23   -0.48    0.36
   7   7  23   -0.63    0.45
  23   7   7   -0.13    0.14
  -7 -23   7   -0.02    0.23
 -23   7  -7   -0.38    0.30
  -7  -7  23   -0.23    0.21
 -23  -7   7   -0.39    0.47
  23  -7  -7   -0.06    0.14
 -23   9   7   -0.68    0.42
  23  -9   7   -0.14    0.16
  -9   7  23   -0.45    0.35
   9  -7  23   -0.16    0.18
   7 -23   9   -0.54    0.24
  23   9  -7    0.02    0.20
 -23  -9  -7   -0.26    0.43
  23  -9  -7   -0.07    0.16
 -23  -9   7    0.13    0.58
  -9  -7  23   -0.02    0.42
   9   7  23   -0.62    0.39
  -7 -23   9    0.08    0.24
  23   9   7    0.10    0.17
  -9  -7  23   -0.27    0.21
 -23   9  -7   -0.26    0.31
 -11   7  23   -0.31    0.31
 -23  11   7   -0.08    0.44
  11  -7  23   -0.35    0.18
  11  -7  23   -0.60    0.36
  23  11  -7   -0.06    0.21
  23 -11   7    0.07    0.19
   7 -23  11   -0.28    0.25
 -23 -11  -7    0.08    0.39
  -7 -23  11   -0.30    0.27
  23 -11  -7   -0.21    0.13
 -23 -11   7   -0.13    0.53
  23  11   7   -0.18    0.15
  11   7  23   -0.49    0.44
 -11  -7  23    0.09    0.40
  23  13  -7   -0.05    0.19
 -23  13   7   -0.77    0.37
   7 -23  13   -0.61    0.28
  13  -7  23   -0.39    0.18
 -13   7  23   -0.01    0.33
  23 -13   7   -0.18    0.17
 -23 -13  -7   -0.51    0.36
 -13  -7  23    0.00    0.37
  -7 -23  13   -0.22    0.23
  23  13   7   -0.22    0.18
 -23 -13   7   -0.11    0.52
  13   7  23   -0.40    0.40
   7 -23  15   -0.42    0.30
  23 -15   7   -0.02    0.20
 -15   7  23   -0.20    0.39
  15  -7  23   -0.33    0.19
  23  15  -7   -0.17    0.23
 -23 -15  -7    0.19    0.43
 -23 -15   7   -0.85    0.47
  23  15   7   -0.24    0.19
  -7 -23  15    0.01    0.29
  15   7  23    0.05    0.48
 -15  -7  23    0.41    0.47
  23 -17   7   -0.13    0.24
 -17   7  23   -0.24    0.40
  17  -7  23   -0.24    0.21
  23  17  -7   -0.07    0.22
   7 -23  17   -0.49    0.33
 -23 -17  -7   -0.10    0.41
  23  17   7   -0.27    0.20
 -17  -7  23   -0.33    0.50
   7  23  17   -0.13    0.35
  -7 -23  17    0.01    0.26
  17   7  23   -0.51    0.45
 -23 -17   7   -0.52    0.59
  19  -7  23   -0.11    0.20
 -19   7  23    0.44    0.40
 -23 -19  -7    0.13    0.42
   7 -23  19   -0.01    0.36
  23  19  -7    0.04    0.29
  23 -19   7    0.12    0.27
   7  23  19    0.01    0.40
 -19  -7  23    0.79    0.54
  23  19   7   -0.21    0.23
  19   7  23   -0.19    0.45
  -7 -23  19   -0.09    0.32
 -23 -19   7   -0.92    0.49
  23 -21   7   -0.18    0.25
 -21   7  23    0.40    0.45
 -23 -21  -7    0.05    0.49
   7 -23  21   -0.68    0.35
  21  -7  23   -0.19    0.20
  23  21  -7   -0.21    0.24
 -21  -7  23   -0.09    0.56
  -7 -23  21   -0.01    0.32
  21   7  23   -0.46    0.45
  23  21   7   -0.34    0.20
   7  23  21   -0.23    0.42
   9 -23   1   -0.16    0.21
  23  -1   9   -0.10    0.16
   1  -9  23    0.83    0.53
  -9 -23  -1   -0.25    0.20
   1  -9  23    0.12    0.22
  23   1  -9   -0.40    0.16
  -1   9  23    0.01    0.43
  23  -1  -9   -0.04    0.16
   1   9  23    0.29    0.46
  -1  -9  23    0.02    0.23
  23   1   9    0.07    0.17
 -23  -1   9   -0.77    0.49
  -9 -23   1   -0.14    0.21
  -1  -9  23   -0.60    0.38
 -23   1  -9   -0.67    0.36
   9 -23  -1   -0.47    0.19
   3  -9  23   -0.39    0.34
   9 -23   3   -0.42    0.20
  23  -3   9   -0.17    0.16
  -3   9  23   -0.29    0.31
   3  -9  23    0.02    0.21
  -9 -23  -3   -0.03    0.18
 -23   3   9   -0.34    0.45
  23  -3  -9    0.02    0.16
  23   3   9    0.00    0.15
  -3  -9  23   -0.25    0.43
   3   9  23   -0.38    0.46
  -3  -9  23   -0.15    0.23
   9 -23   5   -0.29    0.21
  23  -5   9   -0.26    0.16
   5  -9  23   -0.20    0.20
 -23   5   9   -0.66    0.47
  -5   9  23   -0.10    0.35
  23   5  -9   -0.44    0.20
  23  -5  -9   -0.03    0.14
 -23  -5   9   -1.10    0.49
  -9 -23   5    0.06    0.23
  -5  -9  23   -0.07    0.24
  23   5   9    0.01    0.15
  -5  -9  23   -0.37    0.45
 -23   5  -9   -0.58    0.33
  -7   9  23    0.26    0.39
   9 -23   7   -0.40    0.24
  23  -7   9   -0.22    0.16
   7  -9  23    0.10    0.20
  23   7  -9   -0.10    0.19
 -23   7   9   -0.11    0.44
  -9 -23   7   -0.18    0.26
  -7  -9  23   -0.20    0.21
  -7  -9  23   -0.33    0.47
  23  -7  -9    0.09    0.16
  23   7   9   -0.11    0.15
 -23  -7   9   -1.25    0.52
 -23   9   9   -0.90    0.35
  23  -9   9   -0.19    0.18
  -9   9  23   -0.13    0.38
   9 -23   9   -0.40    0.23
   9  -9  23   -0.11    0.18
  23   9  -9   -0.19    0.21
  -9  -9  23   -0.56    0.45
 -23  -9   9   -1.01    0.48
  -9 -23   9   -0.30    0.23
  -9  -9  23    0.01    0.25
   9   9  23   -0.34    0.46
  23   9   9   -0.12    0.15
  23  -9  -9   -0.13    0.14
 -23  11   9   -0.19    0.42
  11  -9  23   -0.35    0.21
  23 -11   9   -0.01    0.19
  23  11  -9   -0.11    0.21
 -11   9  23    0.04    0.35
  11   9  23   -0.25    0.40
 -23 -11   9   -0.77    0.52
 -11  -9  23   -0.08    0.25
 -11  -9  23    0.06    0.40
  -9 -23  11   -0.22    0.25
  23  11   9   -0.20    0.15
  23  13  -9   -0.28    0.21
  13  -9  23   -0.15    0.21
  23 -13   9   -0.16    0.20
   9 -23  13   -0.29    0.27
 -13   9  23   -0.17    0.29
 -23  13   9   -0.53    0.40
  23  13   9   -0.07    0.16
 -13  -9  23    0.00    0.41
  13   9  23   -0.55    0.42
 -23 -13   9   -0.49    0.61
  -9 -23  13   -0.10    0.24
 -13  -9  23   -0.06    0.26
  23  15  -9   -0.08    0.25
  23 -15   9   -0.24    0.18
   9 -23  15   -0.50    0.29
  15  -9  23   -0.27    0.20
 -15   9  23   -0.20    0.39
 -23 -15   9   -0.56    0.58
 -15  -9  23   -0.03    0.42
  15   9  23   -0.71    0.34
  -9 -23  15   -0.31    0.24
 -15  -9  23    0.01    0.24
   9 -23  17   -0.53    0.33
  23  17  -9    0.04    0.29
  17  -9  23   -0.20    0.21
  23 -17   9   -0.02    0.24
 -17   9  23   -0.05    0.37
 -17  -9  23    0.24    0.52
 -23 -17   9    0.03    0.63
  17   9  23   -0.14    0.51
  23  17   9   -0.36    0.20
   9  23  17   -0.14    0.38
  -9 -23  17   -0.15    0.25
   9 -23  19    0.09    0.37
 -19   9  23    0.57    0.43
  23  19  -9   -0.19    0.24
  23 -19   9   -0.28    0.24
  19  -9  23   -0.21    0.21
  19   9  23   -0.08    0.49
   9  23  19   -0.35    0.37
  -9 -23  19   -0.05    0.31
 -19  -9  23    0.29    0.48
 -23 -21  -9    0.30    0.41
  21  -9  23   -0.25    0.19
 -21   9  23    0.10    0.44
   9 -23  21   -0.21    0.37
  23 -21   9   -0.24    0.26
  -9 -23  21    0.12    0.34
 -21  -9  23    0.03    0.52
  21   9  23   -0.53    0.44
   9  23  21   -0.44    0.45
   1 -11  23   -0.06    0.22
  11 -23   1   -0.30    0.17
  23  -1  11   -0.02    0.15
 -23   1  11   -0.78    0.46
  -1  11  23   -0.08    0.44
  11 -23  -1   -0.31    0.19
  -1 -11  23   -0.12    0.23
 -23  -1  11   -0.05    0.48
  23   1  11    0.16    0.32
 -11 -23   1   -0.18    0.17
  23   1  11   -0.19    0.12
  23  -1 -11   -0.26    0.15
   1  11  23   -0.23    0.45
 -23   3  11   -0.37    0.44
  23  -3  11    0.04    0.17
 -11 -23  -3   -0.22    0.19
   3 -11  23   -0.05    0.22
  11 -23   3   -0.21    0.21
  -3  11  23   -0.31    0.37
  23   3  11   -0.11    0.36
  23   3  11   -0.05    0.14
 -23  -3  11   -0.24    0.58
  -3 -11  23   -0.11    0.24
   3  11  23   -0.24    0.42
 -11 -23   3   -0.26    0.21
  23  -3 -11   -0.06    0.16
  23  -5  11    0.12    0.19
  -5  11  23    0.29    0.40
  11 -23   5   -0.13    0.23
 -23   5  11    0.10    0.43
  23   5 -11    0.07    0.21
   5 -11  23    0.17    0.25
 -23   5 -11   -0.02    0.34
  23  -5 -11    0.03    0.16
   5  11  23   -0.23    0.52
 -23  -5  11   -0.40    0.61
  23   5  11    0.00    0.17
 -11 -23   5    0.13    0.26
  -5 -11  23   -0.19    0.21
  23   5  11    0.18    0.38
  -7  11  23    0.03    0.37
  23   7 -11   -0.13    0.20
   7 -11  23    0.04    0.23
  11 -23   7   -0.30    0.23
  23  -7  11   -0.11    0.17
 -23   7  11    0.31    0.49
  -7 -11  23   -0.05    0.29
  23  -7 -11   -0.12    0.15
  23   7  11   -0.07    0.15
 -11 -23   7   -0.45    0.24
 -23   7 -11   -0.84    0.33
  -7 -11  23   -0.45    0.39
   7  11  23   -0.69    0.38
  23   7  11    0.02    0.37
   9 -11  23   -0.14    0.23
 -23   9  11   -0.11    0.41
  -9  11  23   -0.29    0.34
  23   9 -11   -0.09    0.21
  23  -9  11   -0.04    0.18
   9  11  23   -0.45    0.46
  -9 -11  23   -0.01    0.47
  -9 -11  23   -0.10    0.26
  23   9  11   -0.18    0.36
 -11 -23   9   -0.46    0.18
 -23  -9  11   -1.09    0.59
  23   9  11    0.06    0.17
  11 -23  11   -0.31    0.24
  23 -11  11   -0.18    0.19
  11 -11  23   -0.21    0.21
  23  11 -11   -0.04    0.21
 -11  11  23   -0.20    0.35
 -23  11  11   -0.09    0.39
  11  11  23   -0.50    0.36
  23  11  11   -0.56    0.32
 -11 -11  23   -0.61    0.23
 -11 -11  23   -0.12    0.41
 -11 -23  11   -0.30    0.25
  23  11  11   -0.07    0.14
  11 -23  13   -0.29    0.26
 -13  11  23   -0.39    0.36
  23  13 -11   -0.08    0.23
  23 -13  11   -0.20    0.21
 -23  13  11   -0.05    0.40
 -13 -11  23   -0.47    0.42
  13  11  23   -0.43    0.40
  23  13  11   -0.11    0.38
  23  13  11   -0.20    0.16
 -11 -23  13   -0.08    0.26
  23  15 -11   -0.06    0.25
  23 -15  11   -0.15    0.23
  15 -11  23   -0.49    0.23
  11 -23  15   -0.43    0.32
 -15  11  23   -0.52    0.34
  23  15  11   -0.42    0.42
  11  23  15   -0.41    0.33
 -11 -23  15   -0.16    0.32
 -15 -11  23    0.45    0.45
  15  11  23   -0.04    0.44
  23  15  11   -0.28    0.17
 -15 -11  23   -0.40    0.24
 -17  11  23    0.18    0.41
  11 -23  17    0.00    0.36
  17 -11  23   -0.15    0.26
  23 -17  11   -0.11    0.24
  23  17 -11   -0.17    0.24
  23  17  11   -0.42    0.33
 -23 -17  11   -0.93    0.55
 -17 -11  23   -0.10    0.54
  11  23  17   -0.14    0.38
 -11 -23  17   -0.06    0.29
  17  11  23   -0.26    0.48
 -17 -11  23   -0.44    0.26
  11 -23  19   -0.65    0.29
  19 -11  23   -0.17    0.23
  23 -19  11   -0.31    0.22
 -19  11  23    0.12    0.42
  23  19  11   -0.40    0.38
 -11 -23  19   -0.77    0.32
 -19 -11  23    0.17    0.30
 -19 -11  23    0.25    0.52
  19  11  23   -0.55    0.37
  11  23  19   -0.24    0.40
  11 -23  21   -0.39    0.28
  23 -21  11   -0.17    0.26
 -21  11  23    0.57    0.48
  21 -11  23   -0.18    0.25
 -11 -23  21   -0.07    0.30
  21  11  23   -0.39    0.48
 -23 -21  11   -0.10    0.31
 -21 -11  23    0.57    0.57
  11  23  21   -0.01    0.45
 -21 -11  23   -0.33    0.31
   1 -13  23   -0.04    0.27
  23  -1  13   -0.32    0.33
 -23   1  13   -0.20    0.43
  -1  13  23   -0.54    0.34
  13 -23   1   -0.13    0.19
  23  -1  13   -0.29    0.16
  23   1 -13   -0.41    0.16
  23  -1 -13   -0.39    0.17
 -13 -23   1   -0.17    0.20
  -1 -13  23   -0.15    0.25
 -23  -1  13   -0.66    0.48
  23   1  13   -0.40    0.29
  13 -23  -1   -0.17    0.19
  23   1  13   -0.15    0.17
   1  13  23   -0.31    0.45
 -13 -23  -3    0.00    0.20
  13 -23   3   -0.23    0.21
  -3  13  23   -0.08    0.35
  23   3 -13   -0.38    0.16
  23  -3  13   -0.10    0.26
 -23   3  13    0.02    0.43
  23  -3  13   -0.28    0.15
   3 -13  23   -0.12    0.23
  23   3  13   -0.26    0.35
   3  13  23   -0.47    0.41
  23   3  13   -0.19    0.15
  23  -3 -13   -0.34    0.16
 -23  -3  13   -0.39    0.51
  -3 -13  23   -0.07    0.25
 -13 -23   3   -0.30    0.21
  -5  13  23    0.07    0.33
  23  -5  13   -0.28    0.17
 -23   5  13   -0.49    0.40
   5 -13  23   -0.07    0.23
  23   5 -13   -0.26    0.19
  13 -23   5   -0.10    0.22
  -5 -13  23   -0.11    0.27
 -23  -5  13   -0.02    0.56
   5  13  23   -1.03    0.40
 -13 -23   5   -0.29    0.22
  23   5  13   -0.01    0.16
   7 -13  23    0.00    0.27
  -7  13  23    0.16    0.39
  13 -23   7   -0.38    0.22
 -23   7  13   -0.45    0.40
  23   7 -13   -0.03    0.21
  23  -7  13   -0.27    0.17
 -23   7 -13   -0.60    0.34
  -7 -13  23   -0.07    0.28
  23   7  13    0.01    0.16
 -13 -23   7   -0.35    0.24
   7  13  23   -0.82    0.42
  23   7  13   -0.45    0.35
 -23  -7  13   -0.75    0.53
  23   9 -13   -0.04    0.22
 -23   9  13   -0.16    0.41
  13 -23   9   -0.42    0.21
  23  -9  13   -0.28    0.16
  -9  13  23    0.28    0.37
   9 -13  23   -0.10    0.23
  -9 -13  23   -0.28    0.22
 -13 -23   9   -0.06    0.23
  23   9  13   -0.16    0.15
  23   9  13   -0.41    0.36
   9  13  23   -0.22    0.43
 -23  -9  13   -0.87    0.60
  23  11 -13   -0.37    0.19
  23 -11  13   -0.20    0.19
  13 -23  11   -0.53    0.22
 -11  13  23   -0.19    0.35
  11 -13  23   -0.39    0.26
 -23  11  13   -0.24    0.42
 -13 -23  11   -0.32    0.26
 -11 -13  23   -0.05    0.28
  11  13  23   -0.22    0.45
 -23 -11  13   -0.99    0.60
  23  11  13   -0.15    0.17
  23  11  13   -0.43    0.36
  13 -23  13   -0.36    0.28
 -23  13  13   -0.20    0.38
  23 -13  13   -0.26    0.19
 -13  13  23   -0.20    0.34
  23  13 -13    0.07    0.25
  23  13  13   -0.28    0.39
  13  23  13    0.10    0.34
  13  13  23   -0.25    0.46
 -13 -23  13   -0.12    0.27
 -13 -13  23   -0.21    0.28
 -23 -13  13   -0.54    0.63
  23  13  13   -0.24    0.14
 -15  13  23   -0.21    0.32
  15 -13  23   -0.45    0.21
 -23  15  13    0.38    0.42
  23 -15  13   -0.18    0.21
  13 -23  15   -0.42    0.30
  23  15 -13   -0.11    0.28
 -15 -13  23   -0.13    0.26
  15  13  23    0.07    0.51
  23  15  13   -0.43    0.42
  13  23  15   -0.33    0.35
 -23 -15  13   -1.14    0.58
  23 -17  13    0.10    0.28
  13 -23  17   -0.16    0.33
 -17  13  23    0.39    0.40
  23  17  13   -0.48    0.39
  13  23  17   -0.25    0.37
 -13 -23  17    0.34    0.33
  17  13  23   -0.20    0.50
 -17 -13  23    0.02    0.26
 -19  13  23    0.48    0.47
  13 -23  19   -0.58    0.31
  23 -19  13   -0.26    0.24
  19 -13  23   -0.27    0.28
 -19 -13  23    0.29    0.54
 -19 -13  23   -0.31    0.27
  13  23  19   -0.06    0.45
 -13 -23  19   -0.61    0.32
  23  19  13   -0.64    0.43
  19  13  23   -0.12    0.50
  13 -23  21   -0.30    0.33
  23 -21  13   -0.38    0.26
  21 -13  23    0.00    0.26
 -21  13  23    0.47    0.46
  13  23  21   -0.15    0.46
 -21 -13  23   -0.17    0.28
  21  13  23   -0.51    0.42
 -13 -23  21    0.08    0.29
 -21 -13  23    0.60    0.60
  23  21  13   -0.59    0.41
 -23 -21  13   -0.38    0.27
   1 -15  23   -0.02    0.27
  23   1 -15   -0.18    0.18
 -15 -23  -1    0.10    0.24
  -1  15  23   -0.20    0.44
 -23   1  15   -0.08    0.50
  23  -1  15   -0.03    0.17
  15 -23   1    0.13    0.23
  23  -1  15   -0.05    0.34
  -1 -15  23    0.21    0.30
 -23  -1  15    0.32    0.52
  23   1  15   -0.06    0.18
   1  15  23    0.08    0.50
  23  -1 -15   -0.50    0.19
  23   1  15   -0.11    0.36
 -15 -23   1   -0.03    0.23
  23  -3  15   -0.04    0.17
   3 -15  23    0.02    0.27
  -3  15  23    0.22    0.47
  23  -3  15   -0.22    0.29
  15 -23   3   -0.28    0.23
  23   3 -15   -0.20    0.19
 -23   3  15    0.14    0.47
 -15 -23   3   -0.24    0.21
   3  15  23    0.20    0.49
  23   3  15   -0.02    0.38
  -3 -15  23    0.09    0.29
 -23  -3  15   -0.51    0.58
  23   3  15    0.01    0.17
  15 -23   5    0.14    0.25
  -5  15  23    0.27    0.44
  23   5 -15    0.01    0.22
 -23   5  15   -0.18    0.46
  23  -5  15    0.08    0.34
   5 -15  23    0.14    0.32
  23  -5  15   -0.04    0.18
  23   5  15    0.06    0.17
  -5 -15  23    0.30    0.33
  23   5  15   -0.06    0.41
 -23  -5  15    0.02    0.65
 -15 -23   5    0.08    0.26
   5  15  23   -0.22    0.48
  -7  15  23   -0.47    0.34
  23   7 -15    0.00    0.22
  23  -7  15   -0.30    0.14
  15 -23   7   -0.16    0.26
 -23   7  15   -0.13    0.44
   7 -15  23   -0.05    0.31
   7  15  23    0.07    0.47
 -15 -23   7   -0.08    0.26
  -7 -15  23   -0.13    0.29
  23   7  15   -0.43    0.37
 -23  -7  15   -0.52    0.55
  23   7  15   -0.14    0.14
   9 -15  23   -0.27    0.26
 -23   9  15   -0.03    0.42
  23  -9  15   -0.20    0.19
  15 -23   9   -0.05    0.24
  -9  15  23   -0.15    0.37
  23   9 -15   -0.26    0.23
  23   9  15   -0.18    0.16
  -9 -15  23   -0.23    0.28
  23   9  15   -0.12    0.39
   9  15  23   -0.31    0.43
 -15 -23   9    0.10    0.29
 -23  -9  15   -0.42    0.60
  23 -11  15   -0.06    0.21
  23  11 -15   -0.21    0.25
  15 -23  11   -0.27    0.28
  11 -15  23   -0.26    0.25
 -11  15  23   -0.19    0.35
 -23  11  15    0.75    0.46
  23  11  15   -0.13    0.39
 -11 -15  23   -0.23    0.28
  11  15  23   -0.07    0.47
 -15 -23  11   -0.52    0.23
  23  13 -15   -0.04    0.24
  15 -23  13   -0.16    0.28
  13 -15  23   -0.27    0.28
  23 -13  15   -0.29    0.19
 -23  13  15    0.08    0.37
 -13  15  23    0.18    0.42
 -23 -13  15   -0.42    0.60
  13  15  23   -0.23    0.46
  15  23  13   -0.29    0.34
  23  13  15   -0.48    0.38
 -15 -23  13   -0.10    0.28
 -23  15  15    0.53    0.42
 -15  15  23    0.03    0.37
  15 -23  15   -0.16    0.31
  23 -15  15   -0.29    0.18
  15 -15  23   -0.40    0.27
 -15 -15  23   -0.24    0.29
  23  15  15   -0.46    0.37
  15  23  15   -0.17    0.37
  15  15  23   -0.23    0.43
 -23 -15  15   -0.58    0.66
 -15 -23  15   -0.45    0.25
  17 -15  23   -0.41    0.29
 -17  15  23   -0.09    0.38
  15 -23  17   -0.19    0.25
  23 -17  15   -0.26    0.20
  17  15  23   -0.25    0.49
 -17 -15  23   -0.39    0.33
 -15 -23  17   -0.14    0.31
  23  17  15   -0.09    0.42
  15  23  17   -0.33    0.42
  19 -15  23   -0.41    0.26
 -19  15  23    0.02    0.43
  23 -19  15    0.04    0.27
  15 -23  19   -0.19    0.32
  15  23  19   -0.07    0.45
 -23 -19  15   -0.42    0.30
  19  15  23   -0.54    0.38
 -15 -23  19   -0.44    0.29
  23  19  15   -0.21    0.39
 -19 -15  23   -0.41    0.34
 -21  15  23    0.58    0.40
 -21 -15  23   -0.47    0.28
  23  21  15   -0.31    0.40
  15  23  21   -0.21    0.41
  23  -1  17   -0.36    0.17
   1 -17  23   -0.36    0.29
 -23   1  17   -0.36    0.54
  23  -1  17   -0.71    0.34
  17 -23   1   -0.23    0.23
  -1  17  23   -0.51    0.44
  -1 -17  23   -0.25    0.30
  23   1  17    0.00    0.42
   1  17  23   -0.20    0.48
 -23  -1  17   -0.30    0.48
  -3  17  23    0.21    0.47
  23   3 -17   -0.09    0.22
  23  -3  17   -0.45    0.20
   3 -17  23   -0.02    0.32
  23  -3  17   -0.56    0.33
 -23   3  17   -0.47    0.43
  17 -23   3   -0.44    0.20
  23   3  17   -0.15    0.16
  23   3  17   -0.31    0.37
  -3 -17  23   -0.31    0.30
 -23  -3  17   -0.02    0.56
 -17 -23   3   -0.47    0.22
   3  17  23   -0.76    0.46
  23  -5  17   -0.47    0.34
 -23   5  17   -0.19    0.43
  23   5 -17   -0.20    0.20
  17 -23   5   -0.30    0.24
   5 -17  23   -0.29    0.25
  -5  17  23    0.17    0.43
  23   5  17   -0.25    0.15
   5  17  23   -0.82    0.41
  17  23   5   -0.36    0.22
  23   5  17   -0.90    0.37
  -5 -17  23   -0.01    0.32
 -23  -5  17    0.14    0.58
 -17 -23   5   -0.08    0.25
  -7  17  23    0.21    0.38
  17 -23   7   -0.28    0.28
  23   7 -17   -0.16    0.25
 -23   7  17   -0.03    0.39
   7 -17  23   -0.25    0.27
  23  -7  17   -0.14    0.19
  -7 -17  23    0.08    0.33
  23   7  17   -0.12    0.15
 -23  -7  17   -0.95    0.53
  23   7  17   -0.80    0.39
 -17 -23   7   -0.40    0.26
   7  17  23   -0.12    0.50
 -23   9  17    0.15    0.42
  23   9 -17   -0.18    0.24
  23  -9  17    0.04    0.24
  17 -23   9   -0.56    0.24
  -9  17  23    0.32    0.39
   9 -17  23    0.09    0.32
 -17 -23   9   -0.25    0.24
 -23  -9  17   -0.55    0.63
  -9 -17  23    0.07    0.32
   9  17  23   -0.33    0.44
  11 -17  23   -0.27    0.30
 -23  11  17    0.57    0.44
  17 -23  11   -0.44    0.27
 -11  17  23    0.29    0.42
  23  11 -17   -0.05    0.28
  23 -11  17   -0.14    0.22
 -17 -23  11   -0.27    0.30
 -23 -11  17    0.02    0.67
  17  23  11   -0.48    0.31
  23  11  17   -0.46    0.43
 -11 -17  23   -0.36    0.25
  11  17  23   -0.43    0.44
 -13  17  23    0.38    0.40
  23 -13  17   -0.31    0.21
  13 -17  23   -0.04    0.35
 -23  13  17    0.75    0.48
  17 -23  13   -0.20    0.30
 -23 -13  17   -0.39    0.59
 -13 -17  23    0.09    0.31
  17  23  13   -0.12    0.38
 -17 -23  13    0.14    0.33
  23  13  17   -0.26    0.45
  13  17  23   -0.59    0.44
  23 -15  17   -0.02    0.26
  15 -17  23   -0.51    0.27
 -15  17  23    0.18    0.41
 -23  15  17    0.68    0.44
 -15 -17  23   -0.12    0.31
 -23 -15  17   -1.10    0.68
 -17 -23  15   -0.28    0.31
  17  23  15   -0.19    0.41
  23  15  17   -0.65    0.42
  15  17  23   -0.41    0.47
  17 -17  23   -0.19    0.29
  23 -17  17   -0.03    0.26
  17 -23  17   -0.20    0.23
 -17  17  23    0.42    0.40
 -17 -23  17    0.13    0.34
  17  23  17    0.20    0.46
  17  17  23   -0.62    0.44
 -23 -17  17   -0.22    0.31
 -17 -17  23   -0.19    0.35
 -19  17  23    0.65    0.42
  17  23  19   -0.22    0.41
  23  19  17   -0.28    0.41
 -19 -17  23   -0.09    0.28
  23  -1  19   -0.10    0.36
  23  -1  19   -0.08    0.19
   1 -19  23   -0.14    0.33
 -23   1  19   -0.24    0.45
  -1  19  23    0.28    0.46
  19 -23   1   -0.03    0.24
  23   1  19    0.03    0.21
  23   1  19   -0.03    0.37
   1  19  23    0.28    0.44
 -23  -1  19   -0.22    0.48
  19  23   1    0.03    0.24
  -1 -19  23    0.14    0.35
  -3  19  23   -0.37    0.40
  19 -23   3   -0.28    0.24
  23  -3  19   -0.21    0.16
  23  -3  19   -0.17    0.36
 -23   3  19    0.77    0.51
   3 -19  23    0.05    0.34
  -3 -19  23   -0.23    0.28
   3  19  23   -0.32    0.46
  19  23   3   -0.26    0.25
 -23  -3  19   -0.45    0.54
  23   3  19    0.04    0.19
  23   3  19    0.16    0.41
  23   5 -19   -0.12    0.25
  19 -23   5    0.00    0.25
   5 -19  23    0.11    0.38
 -23   5  19    0.34    0.46
  23  -5  19   -0.10    0.34
  23  -5  19   -0.11    0.20
  -5  19  23    0.58    0.48
   5  19  23   -0.32    0.46
  23   5  19    0.09    0.45
  19  23   5   -0.25    0.23
  -5 -19  23   -0.05    0.31
 -23  -5  19   -0.30    0.56
 -19 -23   5    0.00    0.28
  19 -23   7   -0.38    0.24
  23   7 -19   -0.23    0.24
  23  -7  19   -0.23    0.19
  -7  19  23    0.29    0.42
   7 -19  23   -0.26    0.36
 -23   7  19    0.68    0.48
 -23  -7  19   -0.18    0.60
  -7 -19  23   -0.16    0.30
  23   7  19    0.20    0.48
   7  19  23   -0.08    0.45
 -19 -23   7   -0.36    0.25
 -23   9  19    0.28    0.41
   9 -19  23   -0.18    0.35
  -9  19  23    0.09    0.36
  23  -9  19   -0.24    0.21
  23   9 -19    0.08    0.26
  19 -23   9   -0.13    0.28
  23   9  19   -0.08    0.42
  -9 -19  23    0.25    0.37
  19  23   9   -0.30    0.35
   9  19  23   -0.16    0.45
 -19 -23   9    0.19    0.30
 -23  -9  19    0.04    0.58
 -11  19  23    0.14    0.41
  19 -23  11   -0.33    0.30
 -23  11  19    0.23    0.42
  11 -19  23   -0.37    0.33
  23 -11  19   -0.21    0.19
  23  11  19   -0.44    0.37
  19  23  11   -0.31    0.33
  11  19  23   -0.38    0.45
 -19 -23  11   -0.20    0.30
 -11 -19  23   -0.70    0.31
 -23 -11  19    0.11    0.66
 -13  19  23    0.19    0.43
  13 -19  23   -0.58    0.29
  23 -13  19   -0.12    0.26
 -23  13  19    0.54    0.45
  19 -23  13   -0.49    0.25
 -23 -13  19   -0.49    0.27
 -13 -19  23   -0.14    0.33
  23  13  19   -0.07    0.46
 -23 -13  19    0.38    0.69
 -19 -23  13   -0.02    0.26
  19  23  13   -0.47    0.39
  13  19  23   -0.05    0.53
  23 -15  19   -0.22    0.22
 -23  15  19    0.24    0.43
  19 -23  15   -0.31    0.29
 -15  19  23    0.75    0.45
  15 -19  23   -0.55    0.30
 -23 -15  19   -0.21    0.33
 -19 -23  15   -0.04    0.29
  23  15  19   -0.21    0.43
 -15 -19  23   -0.23    0.37
  19  23  15   -0.37    0.39
  15  19  23   -0.16    0.42
 -23 -15  19   -0.16    0.66
  17  19  23    0.04    0.46
 -23 -17  19    0.05    0.29
  19  23  17   -0.29    0.39
 -17 -19  23   -0.38    0.34
  21 -23   1   -0.13    0.25
  -1  21  23    0.19    0.47
  23  -1  21   -0.38    0.37
  23  -1  21   -0.39    0.19
  21  23  -1   -0.30    0.25
   1 -21  23    0.01    0.37
 -23   1  21    0.23    0.52
 -23  -1  21    0.24    0.49
  23   1  21   -0.33    0.18
  -1 -21  23   -0.14    0.32
   1  21  23   -0.26    0.47
  23   1  21   -0.30    0.41
  21  23   1   -0.31    0.23
  -3  21  23    0.43    0.47
  23  -3  21   -0.41    0.40
 -23   3  21    0.24    0.47
   3 -21  23   -0.07    0.33
  23  -3  21   -0.11    0.21
  21 -23   3   -0.49    0.23
   3  21  23   -0.55    0.45
 -23  -3  21    0.13    0.55
  21  23   3   -0.23    0.22
  -3 -21  23   -0.01    0.36
  23   3  21   -0.61    0.44
  23  -5  21   -0.27    0.20
  -5  21  23    0.21    0.44
  21 -23   5   -0.19    0.25
 -23   5  21    0.07    0.46
   5 -21  23   -0.06    0.36
   5  21  23   -0.15    0.47
  21  23   5   -0.25    0.26
 -23  -5  21    0.65    0.61
  -5 -21  23    0.00    0.33
  23   5  21   -0.33    0.46
  23  -7  21   -0.23    0.20
 -23   7  21    0.15    0.43
  21 -23   7   -0.31    0.27
   7 -21  23   -0.21    0.33
  -7  21  23    0.26    0.42
  23   7  21   -0.38    0.45
  -7 -21  23   -0.08    0.31
 -23  -7  21   -0.39    0.59
   7  21  23   -0.27    0.50
 -23   9  21    0.42    0.46
   9 -21  23   -0.65    0.28
  21 -23   9   -0.24    0.32
  23  -9  21   -0.22    0.22
  -9  21  23    0.23    0.41
 -23  -9  21   -0.12    0.62
  23   9  21   -0.20    0.46
   9  21  23   -0.22    0.49
  -9 -21  23    0.01    0.32
 -21 -23   9   -0.27    0.30
 -23  11  21    0.33    0.45
  23 -11  21    0.03    0.25
  11 -21  23   -0.37    0.32
  21 -23  11   -0.53    0.26
  11  21  23   -0.44    0.45
 -21 -23  11   -0.59    0.32
  23  11  21   -0.61    0.43
 -23 -11  21   -0.67    0.58
 -23 -11  21   -0.10    0.27
  21  23  11   -0.63    0.37
 -11 -21  23   -0.17    0.31
  23 -13  21   -0.12    0.27
  21 -23  13   -0.70    0.26
  13 -21  23   -0.47    0.32
 -23  13  21    0.62    0.45
  13  21  23    0.06    0.50
  21  23  13   -0.23    0.39
 -23 -13  21   -0.17    0.35
  23  13  21   -0.26    0.45
 -21 -23  13   -0.41    0.27
 -13 -21  23    0.04    0.31
 -23 -13  21   -0.01    0.62
 -23  15  21    1.57    0.50
  15  21  23   -0.08    0.48
  21  23  15   -0.43    0.39
 -23 -15  21   -0.20    0.27
   1 -23  23    0.24    0.41
 -23   1  23    0.27    0.47
  23  -1  23   -0.05    0.39
  23  23  -1   -0.36    0.25
 -23  -1  23    0.57    0.51
  -1 -23  23    0.13    0.37
  23   1  23   -0.05    0.45
   1  23  23   -0.14    0.41
  23  23   1   -0.06    0.28
  23  -3  23   -0.02    0.42
 -23   3  23    0.09    0.48
  23 -23   3   -0.18    0.26
   3 -23  23    0.28    0.42
  23  -3  23   -0.15    0.19
  23  23  -3    0.05    0.29
  -3 -23  23   -0.17    0.34
   3  23  23   -0.20    0.48
  23   3  23   -0.16    0.45
 -23  -3  23    0.39    0.51
  23  23   3   -0.30    0.26
  23  -5  23   -0.17    0.23
 -23   5  23    0.44    0.45
  23 -23   5   -0.25    0.26
   5 -23  23   -0.08    0.36
   5  23  23   -0.29    0.46
  -5 -23  23    0.25    0.40
 -23  -5  23    0.40    0.57
  23   5  23   -0.06    0.42
  23  23   5    0.11    0.27
 -23 -23  -7    0.23    0.47
  23  -7  23   -0.14    0.22
 -23   7  23    0.77    0.49
  23 -23   7   -0.43    0.24
   7 -23  23   -0.24    0.37
   7  23  23   -0.23    0.46
  -7 -23  23   -0.12    0.34
 -23  -7  23    0.33    0.49
  23   7  23   -0.14    0.49
 -23 -23  -9    0.63    0.49
  23 -23   9   -0.13    0.29
  23  -9  23   -0.25    0.24
 -23   9  23    0.54    0.37
   9 -23  23   -0.45    0.34
  -9 -23  23   -0.08    0.33
   9  23  23   -0.21    0.51
 -23 -23   9   -0.07    0.33
 -23  -9  23    0.88    0.61
  23   9  23   -0.07    0.52
  23 -11  23    0.05    0.26
 -23  11  23    1.07    0.44
  23 -23  11   -0.40    0.27
  11  23  23   -0.07    0.45
 -23 -11  23    0.15    0.57
 -24   0   0  118.54    7.06
   0 -24   0  124.03    6.59
   0   0  24  136.09    7.44
  24   0   0  111.80    6.46
 -24  -2   0    0.71    0.51
 -24   2   0    0.72    0.51
  -2   0  24   -0.04    0.65
   0 -24  -2    0.69    0.25
   0 -24   2    0.99    0.30
   2   0  24   -0.47    0.60
  24  -2   0    0.62    0.25
  24   2   0    0.07    0.20
   4   0  24   77.22    4.60
  24  -4   0   65.23    3.72
  24   4   0   65.08    3.75
  -4   0  24   64.19    4.31
   0 -24   4   68.90    3.93
 -24   4   0   61.30    4.04
 -24  -4   0   67.54    4.24
   0 -24   6    0.43    0.31
  -6   0  24    0.60    0.53
 -24  -6   0    0.15    0.55
 -24   6   0   -0.39    0.45
  24  -6   0    0.25    0.20
  24   6   0    0.36    0.21
   6   0  24    0.21    0.53
  24  -8   0   85.20    4.62
  24   8   0   83.36    4.64
 -24   8   0   87.78    5.01
 -24  -8   0   85.28    5.25
   0 -24   8   85.19    4.87
   8   0  24   76.88    5.28
  -8   0  24   84.98    5.23
  24 -10   0    0.30    0.21
  24  10   0    0.43    0.21
  10   0  24    0.20    0.46
 -10   0  24    0.04    0.41
 -24  10   0   -0.80    0.44
   0 -24  10    0.37    0.32
 -24 -10   0   -0.28    0.55
   0 -24  12   34.15    2.38
 -24 -12   0   30.76    2.48
  12   0  24   29.90    2.44
 -12   0  24   31.57    2.39
  24 -12   0   32.97    2.04
  24  12   0   30.48    2.04
  14   0  24    0.73    0.50
 -24 -14   0    0.22    0.61
  24 -14   0    0.25    0.20
  24  14   0    0.17    0.22
   0 -24  14    0.22    0.34
 -14   0  24    0.72    0.45
 -24 -16   0   43.50    3.09
   0 -24  16   40.23    2.92
  24  16   0   41.75    2.63
  24 -16   0   42.90    2.62
  16   0  24   42.85    3.06
 -16   0  24   41.86    3.00
 -18   0  24    0.68    0.51
  18   0  24   -0.07    0.42
  24 -18   0   -0.10    0.20
  24  18   0    0.23    0.25
   0 -24  18    0.18    0.36
 -24 -18   0   -0.26    0.50
  24 -20   0   22.63    1.67
 -20   0  24   22.51    1.95
  20   0  24   22.13    1.95
  24  20   0   20.28    1.63
   0 -24  20   21.65    1.98
 -24 -20   0   19.76    1.89
 -22   0  24    0.79    0.51
   0 -24  22   -0.24    0.37
  24  22   0   -0.07    0.26
  22   0  24   -0.16    0.47
  24   0  -2    0.12    0.20
   2 -24   0    0.33    0.30
 -24   0   2   -0.03    0.56
   0  -2  24    0.30    0.50
 -24   0  -2   -0.30    0.48
   0   2  24    0.97    0.58
  -2 -24   0    0.13    0.27
  24   0   2    0.45    0.22
   2 -24   2    0.22    0.25
  -2   2  24    0.98    0.60
 -24  -2  -2    0.00    0.56
  24  -2   2    0.15    0.22
  24   2  -2    0.14    0.22
   2  -2  24    0.09    0.57
  -2 -24  -2    0.57    0.25
 -24   2   2   -0.29    0.50
  -2  -2  24    0.53    0.54
 -24  -2   2    0.27    0.54
   2 -24  -2    0.24    0.24
  24   2   2    0.08    0.19
   2   2  24    1.14    0.65
 -24   2  -2    0.21    0.42
  24  -2  -2    0.23    0.23
  -2 -24   2    0.70    0.28
 -24   4   2   -0.94    0.49
  -4   2  24    1.63    0.58
  24   4  -2    0.35    0.21
   4  -2  24    0.46    0.60
  24  -4   2    0.43    0.21
   2 -24   4   -0.40    0.29
  -4  -2  24    1.31    0.59
  24  -4  -2    0.59    0.22
  24   4   2    0.49    0.23
  -2 -24   4   -0.04    0.28
 -24  -4   2   -0.11    0.64
   4   2  24    0.57    0.55
 -24  -6  -2    0.65    0.57
  24   6  -2    0.59    0.23
   2 -24   6    0.42    0.33
  -6   2  24    1.49    0.59
   6  -2  24    1.03    0.59
  24  -6   2    0.61    0.24
 -24   6   2   -0.55    0.45
  -6  -2  24    1.08    0.55
 -24   6  -2    0.54    0.46
   6   2  24    1.08    0.62
  -2 -24   6    0.73    0.33
  24   6   2    0.37    0.26
  24  -6  -2    0.30    0.22
 -24  -6   2   -0.04    0.57
 -24   8   2    0.23    0.56
  24  -8   2    0.83    0.24
   8  -2  24    1.64    0.63
 -24  -8  -2    0.30    0.62
  24   8  -2    0.96    0.27
  -8   2  24    1.57    0.59
  -8  -2  24    1.19    0.54
 -24  -8   2   -1.32    0.65
  24  -8  -2    0.97    0.25
  -2 -24   8    0.44    0.37
  24   8   2    0.72    0.26
   8   2  24    1.39    0.60
 -24   8  -2   -0.69    0.51
  24  10  -2    0.71    0.26
   2 -24  10    0.09    0.32
 -24 -10  -2    0.33    0.56
  10  -2  24    0.82    0.50
  24 -10   2    0.61    0.22
 -24  10   2   -0.81    0.44
 -10   2  24    0.45    0.47
 -10  -2  24    0.44    0.45
  -2 -24  10    0.30    0.29
  24  10   2    0.30    0.21
  10   2  24    0.59    0.53
  24 -10  -2    0.61    0.22
 -24  10  -2   -0.21    0.45
 -24 -10   2    0.50    0.57
  24  12  -2    0.52    0.24
   2 -24  12   -0.47    0.32
 -12   2  24    1.08    0.47
 -24 -12  -2    0.10    0.51
  24 -12   2    0.64    0.24
  12  -2  24    0.55    0.45
 -24 -12   2   -1.17    0.62
  24  12   2    0.49    0.22
 -12  -2  24    0.50    0.44
  12   2  24    0.31    0.43
  -2 -24  12    0.12    0.35
  24 -12  -2    0.30    0.19
 -24 -14  -2    0.73    0.57
  24  14  -2    0.41    0.25
  14  -2  24    0.19    0.44
   2 -24  14    0.10    0.32
  24 -14   2    0.19    0.20
 -14   2  24    0.32    0.44
 -14  -2  24    0.80    0.48
  14   2  24    0.43    0.53
 -24 -14   2   -0.20    0.57
  -2 -24  14    0.40    0.35
  24 -14  -2    0.27    0.20
  24  14   2    0.18    0.21
 -24 -16  -2    0.45    0.61
  16  -2  24    1.23    0.56
  24  16  -2    0.40    0.26
  24 -16   2    0.25    0.23
 -16   2  24    0.89    0.48
   2 -24  16    0.24    0.40
 -16  -2  24    2.08    0.60
  -2 -24  16   -0.02    0.36
  24  16   2    0.87    0.27
  16   2  24    1.56    0.59
  24 -16  -2    0.37    0.23
 -24 -16   2   -0.69    0.61
 -18   2  24    0.64    0.43
   2 -24  18   -0.18    0.35
  18  -2  24    0.11    0.36
  24  18  -2   -0.05    0.25
  24 -18   2   -0.03    0.22
 -24 -18  -2    0.29    0.52
 -24 -18   2   -0.57    0.53
  18   2  24    0.46    0.50
  -2 -24  18   -0.20    0.29
  24 -18  -2    0.03    0.21
 -18  -2  24    0.53    0.50
  24  18   2    0.08    0.24
  24 -20   2    0.86    0.32
   2 -24  20   -0.12    0.41
  24  20  -2    0.72    0.32
 -24 -20  -2    0.63    0.59
  20  -2  24    1.64    0.61
 -20   2  24    1.47    0.56
  20   2  24    1.29    0.58
  -2 -24  20    0.32    0.39
 -24 -20   2   -0.11    0.72
 -20  -2  24    1.37    0.61
  24  20   2    0.62    0.34
  24 -22   2   -0.11    0.26
 -22   2  24    0.66    0.47
  24  22  -2    0.10    0.29
   2 -24  22   -0.51    0.35
  22  -2  24   -0.16    0.45
 -22  -2  24    0.80    0.55
  22   2  24    0.26    0.52
  24  22   2    0.00    0.29
  -2 -24  22   -0.30    0.33
  24   0  -4   67.19    3.83
 -24   0  -4   67.91    4.22
   4 -24   0   79.30    4.03
   0  -4  24   67.45    4.46
   0   4  24   70.75    4.53
 -24   0   4   64.56    4.26
  24   0   4   64.91    3.82
  -4 -24   0   67.09    3.93
  24  -2   4    0.84    0.24
  -2   4  24    0.07    0.61
   4 -24   2    0.46    0.27
 -24  -2  -4    0.40    0.53
 -24   2   4    0.57    0.52
   2  -4  24   -0.08    0.65
  -4 -24  -2    0.82    0.26
  24   2  -4    0.49    0.25
 -24   2  -4    0.47    0.49
  24   2   4    0.40    0.23
  -4 -24   2    0.80    0.29
  -2  -4  24    0.63    0.67
 -24  -2   4    0.16    0.60
   2   4  24    0.66    0.70
  24  -2  -4    0.42    0.21
   4  -4  24  113.19    6.42
   4 -24   4  111.19    5.79
 -24  -4  -4   98.69    6.12
 -24   4   4   96.16    6.01
  24  -4   4  101.71    5.56
  24   4  -4  100.90    5.57
  -4   4  24  104.54    6.26
  24  -4  -4  101.26    5.53
  -4 -24   4  100.39    5.72
  -4  -4  24  100.22    6.25
 -24   4  -4   99.73    5.97
   4   4  24  116.99    6.54
  24   4   4  100.68    5.55
 -24  -4   4  101.23    6.18
 -24  -6  -4    0.53    0.49
  -6   4  24    0.39    0.52
   6  -4  24    0.21    0.58
  24  -6   4    0.62    0.22
   4 -24   6    0.24    0.30
  24   6  -4    0.35    0.22
 -24   6   4    1.08    0.55
  24   6   4    0.32    0.22
  -4 -24   6    0.85    0.31
   6   4  24    0.61    0.64
  -6  -4  24    0.24    0.52
  24  -6  -4    0.46    0.22
 -24  -6   4   -0.05    0.57
 -24   6  -4    0.61    0.45
  24  -8   4   59.19    3.57
 -24  -8  -4   63.89    4.10
 -24   8   4   62.73    3.90
   4 -24   8   65.51    3.87
  24   8  -4   64.46    3.63
  -8   4  24   58.96    4.03
   8  -4  24   55.99    4.05
   8   4  24   72.57    4.41
 -24  -8   4   61.44    4.15
 -24   8  -4   64.11    3.85
  -4 -24   8   61.76    3.80
  24   8   4   65.32    3.60
  24  -8  -4   64.59    3.56
   4 -24  10    0.24    0.32
  10  -4  24    0.60    0.50
 -24 -10  -4    0.77    0.52
 -24  10   4    0.21    0.48
  24  10  -4    0.50    0.23
  24 -10   4    0.63    0.24
 -10   4  24    0.41    0.47
  10   4  24    0.32    0.53
 -10  -4  24    0.99    0.53
  -4 -24  10    0.63    0.33
 -24  10  -4    0.05    0.44
 -24 -10   4   -0.39    0.61
  24  10   4    0.60    0.25
  24 -10  -4    0.34    0.20
   4 -24  12   55.19    3.39
  12  -4  24   54.60    3.47
 -24 -12  -4   46.76    3.41
  24 -12   4   49.69    3.02
 -24  12   4   53.11    3.27
  24  12  -4   50.61    3.05
 -12   4  24   50.44    3.41
  -4 -24  12   49.56    3.28
 -24 -12   4   48.58    3.54
  12   4  24   49.23    3.56
 -12  -4  24   50.30    3.45
  24  12   4   48.76    2.98
  24 -12  -4   54.23    2.99
 -24 -14  -4    1.09    0.55
   4 -24  14    0.16    0.32
  14  -4  24    0.27    0.19
  24  14  -4    0.11    0.20
 -14   4  24    0.29    0.40
  14  -4  24    0.68    0.48
  24 -14   4    0.24    0.21
 -14  -4  24    0.48    0.48
  24 -14  -4    0.22    0.20
 -24 -14   4   -0.68    0.52
  24  14   4    0.26    0.23
  -4 -24  14    0.32    0.31
  14   4  24    0.13    0.52
 -24 -16  -4   25.64    2.18
  16  -4  24   26.29    1.80
 -16   4  24   25.19    2.13
   4 -24  16   27.16    2.23
  16  -4  24   28.25    2.17
  24  16  -4   27.58    1.95
  24 -16   4   28.37    1.93
  24 -16  -4   29.60    1.86
  16   4  24   27.54    2.32
  -4 -24  16   27.89    2.19
 -16  -4  24   26.91    2.19
  24  16   4   28.97    1.89
 -24 -16   4   26.41    2.35
  24  18  -4    0.07    0.25
 -18   4  24    0.90    0.44
  24 -18   4    0.13    0.26
   4 -24  18    0.05    0.36
  18  -4  24    0.48    0.46
 -24 -18  -4    0.97    0.55
  18  -4  24    0.16    0.21
  -4 -24  18    0.03    0.29
  18   4  24    0.52    0.51
 -24 -18   4    0.08    0.61
  24  18   4    0.16    0.24
 -18  -4  24    0.43    0.50
 -24 -20  -4   25.92    2.16
 -20   4  24   26.66    2.16
  20  -4  24   26.03    1.82
   4 -24  20   26.74    2.26
  24  20  -4   27.72    1.99
  24 -20   4   27.72    1.98
  20  -4  24   25.21    2.10
  -4 -24  20   27.71    2.23
 -20  -4  24   25.86    2.23
  20   4  24   27.56    2.31
 -24 -20   4   25.43    2.28
  24  20   4   24.92    1.85
  24  22  -4    0.12    0.29
  24 -22   4   -0.09    0.25
  22  -4  24    0.02    0.22
 -22   4  24   -0.08    0.41
 -24 -22  -4   -0.11    0.48
   4 -24  22   -0.31    0.37
 -22  -4  24    0.86    0.59
  22   4  24    0.09    0.48
  -4 -24  22    0.30    0.38
  24  22   4   -0.05    0.26
   6 -24   0    0.21    0.27
  24   0   6    0.47    0.22
  24   0  -6    0.25    0.22
   0   6  24    0.36    0.49
  -6 -24   0    0.54    0.27
 -24   0  -6    0.20    0.47
   0  -6  24    0.90    0.56
 -24   0   6   -0.31    0.58
  -2   6  24    1.60    0.66
   2  -6  24    0.95    0.62
 -24  -2  -6    0.34    0.47
  24   2  -6    0.27    0.23
   6 -24   2    0.81    0.31
  24  -2   6    0.77    0.23
  -6 -24  -2    0.70    0.27
 -24   2   6    0.74    0.58
  -2  -6  24    1.12    0.60
  -6 -24   2    0.54    0.30
  24  -2  -6    0.15    0.24
 -24  -2   6    0.30    0.55
   2   6  24    0.92    0.64
  24   2   6    0.23    0.24
 -24   2  -6    0.90    0.50
  -4   6  24    0.83    0.52
 -24  -4  -6    0.83    0.53
   4  -6  24    0.22    0.23
  24   4  -6    0.70    0.24
   4  -6  24    0.36    0.59
  24  -4   6    0.55    0.22
 -24   4   6    1.27    0.61
   6 -24   4    0.31    0.30
  24   4   6    0.48    0.23
   4   6  24    0.35    0.64
  -6 -24   4   -0.08    0.31
  -4  -6  24    1.19    0.59
  24  -4  -6    0.29    0.22
 -24   4  -6   -0.53    0.48
 -24  -4   6   -0.41    0.63
  24   6  -6    0.15    0.20
  24  -6   6    0.26    0.19
 -24   6   6    0.18    0.47
   6  -6  24   -0.27    0.21
  -6   6  24    0.60    0.49
   6 -24   6   -0.08    0.22
   6  -6  24   -0.27    0.43
 -24  -6  -6    0.67    0.49
  -6 -24   6   -0.03    0.24
  24  -6  -6   -0.38    0.17
   6   6  24    0.15    0.57
  -6  -6  24    0.45    0.49
 -24  -6   6   -0.69    0.61
  24   6   6   -0.06    0.19
 -24   6  -6    0.15    0.42
  24   8  -6    1.03    0.28
   6 -24   8    0.40    0.36
   8  -6  24    0.84    0.50
 -24   8   6    0.84    0.53
 -24  -8  -6    1.50    0.59
  -8   6  24    0.59    0.46
   8  -6  24    0.47    0.24
  24  -8   6    0.76    0.23
  -8  -6  24    1.60    0.57
  -6 -24   8   -0.23    0.32
 -24  -8   6    0.00    0.73
 -24   8  -6   -0.99    0.45
  24   8   6    0.49    0.24
   8   6  24    1.31    0.61
  24  -8  -6    0.57    0.22
  24  10  -6    0.66    0.25
  10  -6  24    0.39    0.24
  24 -10   6    0.86    0.27
  10  -6  24    1.48    0.53
 -10   6  24    1.32    0.52
 -24 -10  -6    1.21    0.57
 -24  10   6    1.41    0.54
   6 -24  10    0.81    0.37
  24  10   6    0.35    0.25
 -10  -6  24    1.76    0.56
  24 -10  -6    0.53    0.24
 -24 -10   6   -0.59    0.61
  10   6  24    2.45    0.71
  -6 -24  10    0.75    0.34
  24 -12   6    0.48    0.23
  12  -6  24    0.84    0.43
  24  12  -6    0.59    0.26
  12  -6  24    0.32    0.21
 -12   6  24    1.05    0.45
 -24 -12  -6    0.63    0.53
 -24  12   6    0.85    0.53
   6 -24  12   -0.30    0.29
  -6 -24  12   -0.17    0.34
  24  12   6    0.28    0.21
  12   6  24    0.65    0.51
  24 -12  -6    0.15    0.18
 -24 -12   6   -1.10    0.64
 -12  -6  24    0.38    0.45
  24  14  -6    0.04    0.24
 -24 -14  -6    0.20    0.43
  14  -6  24    0.19    0.21
 -14   6  24    0.27    0.43
   6 -24  14   -0.21    0.31
  24 -14   6    0.11    0.20
  24  14   6   -0.05    0.20
 -24 -14   6   -0.74    0.56
  -6 -24  14    0.18    0.30
  14   6  24   -0.37    0.50
 -14  -6  24    0.38    0.46
 -16   6  24    0.89    0.45
 -24 -16  -6    0.98    0.54
  24  16  -6    0.56    0.28
   6 -24  16   -0.19    0.37
  16  -6  24    0.45    0.22
  24 -16   6    0.19    0.22
  24  16   6    0.47    0.22
  -6 -24  16    0.00    0.34
 -24 -16   6   -0.91    0.60
 -16  -6  24    0.80    0.54
  16   6  24    0.85    0.56
 -18   6  24    0.68    0.46
  24  18  -6    0.05    0.27
   6 -24  18   -0.09    0.36
  18  -6  24    0.14    0.23
 -24 -18  -6    0.73    0.53
  24 -18   6    0.01    0.24
  18   6  24    0.78    0.57
 -18  -6  24    0.99    0.54
 -24 -18   6   -0.68    0.68
  24  18   6   -0.02    0.22
  -6 -24  18    0.39    0.35
  24  20  -6    0.56    0.33
   6 -24  20    0.69    0.50
  24 -20   6    0.72    0.35
 -20   6  24    1.48    0.56
  20  -6  24    0.71    0.29
 -24 -20  -6    0.79    0.56
  -6 -24  20    0.31    0.42
  20   6  24    1.32    0.63
  24  20   6    0.92    0.30
 -20  -6  24    0.66    0.61
  22  -6  24   -0.04    0.22
 -24 -22  -6    0.26    0.47
  24 -22   6   -0.13    0.29
  24  22  -6   -0.05    0.27
   6 -24  22    0.03    0.39
 -22   6  24    1.08    0.50
  24  22   6   -0.31    0.21
  -6 -24  22   -0.04    0.34
 -22  -6  24    0.93    0.60
  22   6  24    0.27    0.54
   0  -8  24   96.71    5.66
  -8 -24   0   84.70    5.06
   0   8  24  104.60    5.82
  24   0  -8   88.24    4.95
  24   0   8   91.02    4.98
 -24   0   8   79.23    5.44
 -24   0  -8   88.55    5.42
   8 -24   0  100.90    5.14
   0  -8  24   88.33    5.07
 -24  -2  -8    1.39    0.52
  24   2  -8    0.69    0.26
  -8 -24  -2    1.43    0.31
   2  -8  24    0.14    0.32
   2  -8  24    0.20    0.62
  -2   8  24    0.45    0.58
 -24   2   8    1.03    0.53
  24  -2   8    0.94    0.25
   8 -24   2    0.81    0.29
   2   8  24    0.05    0.62
  -2  -8  24    1.33    0.72
  24   2   8    1.34    0.30
 -24  -2   8    1.84    0.68
 -24   2  -8    1.37    0.49
  -8 -24   2    1.37    0.34
  -2  -8  24    0.64    0.33
  24  -2  -8    0.36    0.24
 -24  -4  -8   65.66    4.16
 -24   4   8   59.10    4.04
   8 -24   4   69.34    3.91
  24  -4   8   63.85    3.70
   4  -8  24   68.00    4.25
  -4   8  24   66.87    4.24
  24   4  -8   61.53    3.68
   4  -8  24   63.61    3.76
  -4  -8  24   73.55    4.32
  24  -4  -8   64.41    3.65
 -24  -4   8   62.44    4.21
  24   4   8   65.79    3.69
 -24   4  -8   65.85    4.00
  -4  -8  24   60.97    3.82
  -8 -24   4   62.97    3.86
   4   8  24   71.24    4.46
   8 -24   6    0.80    0.32
 -24   6   8    1.50    0.58
  -6   8  24    0.54    0.53
  24   6  -8    0.94    0.27
   6  -8  24    0.49    0.31
 -24  -6  -8    1.47    0.53
  24  -6   8    1.20    0.27
 -24   6  -8    1.14    0.44
  -8 -24   6    0.69    0.32
 -24  -6   8    1.18    0.67
   6   8  24    0.94    0.60
  -6  -8  24   -0.13    0.31
  24   6   8    0.30    0.23
  -6  -8  24    1.60    0.64
 -24   8   8   76.57    4.74
   8 -24   8   90.29    4.75
   8  -8  24   76.17    4.39
  -8   8  24   77.24    4.87
  24  -8   8   74.74    4.38
 -24  -8  -8   71.92    4.84
  24   8  -8   77.35    4.41
  24  -8  -8   80.08    4.31
   8   8  24   85.40    5.17
 -24   8  -8   82.88    4.66
  24   8   8   79.67    4.35
 -24  -8   8   78.64    5.04
  -8  -8  24   75.35    4.90
  -8 -24   8   72.18    4.57
  10  -8  24    0.29    0.27
  24 -10   8    0.77    0.26
 -10   8  24    1.21    0.50
 -24 -10  -8    0.99    0.46
 -24  10   8    0.79    0.52
  24  10  -8    0.48    0.24
   8 -24  10    0.89    0.39
  24  10   8    0.27    0.22
  24 -10  -8    0.48    0.24
 -24 -10   8    0.44    0.69
 -10  -8  24    1.04    0.53
  10   8  24    0.75    0.58
  -8 -24  10    0.51    0.31
 -24  12   8   31.52    2.24
  24  12  -8   30.25    2.10
  24 -12   8   30.28    2.07
   8 -24  12   33.66    2.41
  12  -8  24   29.02    2.02
 -12   8  24   30.63    2.31
 -24 -12  -8   28.86    2.33
  -8 -24  12   29.51    2.27
 -24 -12   8   32.72    2.64
  12   8  24   35.05    2.59
  24  12   8   31.38    2.00
 -12  -8  24   29.60    2.35
 -24 -14  -8    0.70    0.46
   8 -24  14    0.51    0.37
  14  -8  24    0.32    0.25
 -14   8  24    0.29    0.42
  24  14  -8    0.11    0.24
  24 -14   8    0.51    0.27
  14   8  24    0.09    0.53
 -14  -8  24    1.23    0.56
 -24 -14   8   -0.51    0.79
  -8 -24  14    0.41    0.34
  24  14   8    0.14    0.22
   8 -24  16   31.30    2.52
  24  16  -8   34.89    2.31
  24 -16   8   32.79    2.26
 -16   8  24   34.46    2.47
  16  -8  24   32.19    2.19
 -24 -16  -8   30.55    2.46
  16   8  24   36.61    2.73
  24  16   8   34.92    2.15
 -24 -16   8   31.77    2.67
  -8 -24  16   31.74    2.46
 -16  -8  24   32.19    2.52
 -24 -18  -8    0.81    0.51
 -18   8  24    0.92    0.49
  18  -8  24    0.17    0.24
  24  18  -8    0.30    0.30
  24 -18   8    0.11    0.26
   8 -24  18   -0.09    0.36
  24  18   8    0.18    0.25
 -18  -8  24    0.40    0.47
  18   8  24    0.17    0.48
  -8 -24  18    0.36    0.35
 -20   8  24   19.66    1.76
  20  -8  24   18.08    1.50
  24 -20   8   19.97    1.67
  24  20  -8   19.79    1.67
 -24 -20  -8   17.14    1.68
   8 -24  20   19.26    1.90
  20   8  24   20.97    1.95
 -20  -8  24   18.53    1.85
  -8 -24  20   17.70    1.79
   8 -24  22   -0.08    0.33
 -22   8  24    1.42    0.52
  24 -22   8   -0.20    0.25
  22  -8  24    0.00    0.24
 -24 -22  -8    0.59    0.50
 -22  -8  24    0.33    0.52
  -8 -24  22    0.52    0.39
   8  24  22    0.10    0.51
  22   8  24    0.04    0.54
  24   0  10    0.51    0.21
   0 -10  24    0.55    0.30
  24   0 -10    0.34    0.21
 -24   0  10    0.29    0.57
  10 -24   0    0.27    0.24
 -10 -24   0    0.19    0.23
   0  10  24    0.23    0.54
 -24   0 -10    0.79    0.46
  24  -2  10    0.33    0.21
 -24   2  10    0.44    0.56
  24   2 -10    0.19    0.22
  -2  10  24    0.50    0.49
 -10 -24  -2    0.40    0.24
   2 -10  24    0.42    0.28
  10 -24   2    0.50    0.28
 -24  -2  10    0.21    0.51
   2  10  24   -0.08    0.60
  24   2  10    0.43    0.22
 -10 -24   2    0.25    0.25
  -2 -10  24    0.14    0.27
 -24   2 -10    0.85    0.39
  24  -2 -10    0.11    0.20
 -24   4  10    0.56    0.53
   4 -10  24    0.55    0.30
  24   4 -10    0.60    0.24
  24  -4  10    0.65    0.23
  10 -24   4    0.49    0.29
  -4  10  24    0.45    0.46
  -4 -10  24    0.62    0.50
 -24  -4  10    0.54    0.60
  -4 -10  24    0.54    0.29
  24  -4 -10    0.12    0.21
   4  10  24    0.61    0.56
  24   4  10    0.31    0.20
 -24   4 -10    0.53    0.44
 -10 -24   4    0.40    0.30
  -6  10  24    1.56    0.53
   6 -10  24    0.16    0.32
 -24   6  10    1.47    0.56
  10 -24   6    1.15    0.35
  24   6 -10    0.48    0.24
  24  -6  10    0.60    0.24
 -24   6 -10    1.58    0.47
 -24  -6  10    0.64    0.64
  -6 -10  24    1.60    0.61
  24  -6 -10    0.21    0.23
  -6 -10  24    1.12    0.36
   6  10  24    1.73    0.69
 -10 -24   6    0.72    0.33
  24   6  10    0.51    0.26
  10 -24   8    0.22    0.32
   8 -10  24    0.38    0.28
  24  -8  10    0.51    0.23
  -8  10  24    1.33    0.52
  24   8 -10    0.56    0.25
 -24   8  10    0.96    0.52
  24  -8 -10    0.22    0.22
  24   8  10    0.09    0.20
 -24  -8  10    0.84    0.72
 -10 -24   8    0.45    0.35
   8  10  24    0.51    0.46
  -8 -10  24    1.41    0.54
 -24   8 -10   -0.06    0.40
  -8 -10  24    0.71    0.33
  10 -10  24   -0.31    0.23
 -10  10  24    0.32    0.39
  24 -10  10    0.23    0.22
  24  10 -10   -0.06    0.22
  10 -24  10    0.13    0.28
 -24  10  10    0.10    0.42
  24  10  10   -0.38    0.20
  10  10  24    0.17    0.44
 -10 -10  24    0.12    0.40
 -24 -10  10   -0.19    0.68
 -10 -24  10    0.24    0.29
 -10 -10  24    0.05    0.26
  24 -12  10    0.33    0.24
 -24  12  10    0.43    0.47
  10 -24  12    0.45    0.38
 -12  10  24    0.74    0.44
  12 -10  24    0.25    0.25
  24  12 -10    0.50    0.30
  24  12  10    0.25    0.21
 -12 -10  24    0.76    0.54
 -10 -24  12    0.03    0.33
 -24 -12  10   -0.22    0.69
  12  10  24    0.74    0.55
 -12 -10  24    0.41    0.30
  10 -24  14    0.38    0.37
 -14  10  24    0.79    0.48
  24 -14  10    0.20    0.23
 -24  14  10    0.80    0.50
  24  14 -10    0.23    0.29
  14 -10  24    0.49    0.29
  14  10  24    0.91    0.61
 -10 -24  14    0.35    0.34
 -14 -10  24    0.23    0.26
  24  14  10   -0.01    0.21
 -14 -10  24    1.25    0.53
 -24 -14  10   -0.39    0.66
  10 -24  16    0.02    0.37
  24  16 -10    0.43    0.30
  16 -10  24    0.20    0.26
  24 -16  10    0.27    0.27
 -16  10  24    1.49    0.49
  16  10  24    1.40    0.64
  24  16  10    0.33    0.24
 -24 -16  10   -1.39    0.81
 -10 -24  16   -0.23    0.34
 -16 -10  24    0.73    0.56
  24  18 -10    0.26    0.30
  18 -10  24   -0.02    0.22
  10 -24  18   -0.02    0.31
 -18  10  24    0.33    0.42
  24 -18  10   -0.22    0.22
 -18 -10  24    0.33    0.50
  18  10  24    0.23    0.49
 -10 -24  18    0.52    0.35
 -24 -18  10   -1.45    0.65
  10 -24  20    0.16    0.41
  24 -20  10    0.53    0.34
 -20  10  24    1.64    0.55
  20 -10  24    0.40    0.29
  10  24  20    0.55    0.52
  20  10  24    0.86    0.59
 -10 -24  20   -0.37    0.34
 -20 -10  24    1.09    0.60
  24 -22  10    0.03    0.32
 -24 -22 -10    0.41    0.49
  22 -10  24   -0.16    0.26
 -22  10  24    1.16    0.47
  10  24  22   -0.18    0.52
 -22 -10  24   -0.04    0.51
   0  12  24   35.89    2.64
  24   0 -12   31.98    2.11
 -12 -24   0   34.92    2.25
   0 -12  24   33.31    2.38
 -24   0  12   30.51    2.47
  12 -24   0   35.31    2.24
  24   0  12   33.65    2.13
  24   2 -12    0.55    0.23
  12 -24   2    0.58    0.26
 -24   2  12    1.51    0.62
  24  -2  12    0.39    0.21
   2 -12  24   -0.10    0.34
  -2  12  24   -0.27    0.49
 -12 -24  -2    0.35    0.24
  -2 -12  24    0.09    0.35
 -24  -2  12    0.98    0.64
  24   2  12    0.78    0.25
  24  -2 -12    0.30    0.22
   2  12  24    0.17    0.53
  24   2  12    1.66    0.52
 -12 -24   2    0.43    0.27
   4 -12  24   48.33    3.29
 -24   4  12   51.11    3.51
 -12 -24  -4   54.41    3.18
  24  -4  12   51.03    3.13
  -4  12  24   56.79    3.61
  12 -24   4   58.31    3.35
  24   4 -12   52.89    3.14
  24   4  12   51.02    3.51
  -4 -12  24   48.53    3.34
 -12 -24   4   48.87    3.24
  24   4  12   55.42    3.12
   4  12  24   61.56    3.83
  24  -4 -12   52.47    3.08
 -24  -4  12   52.61    3.66
 -24   4 -12   56.47    3.42
  12 -24   6    0.42    0.27
  24   6 -12    0.60    0.26
  -6  12  24    0.35    0.48
   6 -12  24   -0.16    0.31
  24  -6  12    0.38    0.22
 -24   6  12    1.05    0.54
 -24  -6  12    0.46    0.62
 -24   6 -12    1.06    0.41
   6  12  24   -0.18    0.52
  24   6  12    0.85    0.47
  -6 -12  24   -0.03    0.34
 -12 -24   6    0.60    0.31
  24   6  12    0.17    0.20
  24  -8  12   30.38    2.12
   8 -12  24   31.83    2.27
  -8  12  24   32.81    2.41
  12 -24   8   33.21    2.36
 -24   8  12   32.24    2.38
  24   8 -12   33.02    2.18
   8  12  24   36.73    2.66
 -24  -8  12   33.48    2.69
  24   8  12   32.66    2.46
  -8 -12  24   31.19    2.34
 -12 -24   8   29.03    2.27
  24   8  12   34.31    2.08
  24 -10  12    0.33    0.23
  10 -12  24   -0.05    0.31
 -10  12  24    0.49    0.46
  12 -24  10    0.10    0.28
 -24  10  12    0.03    0.44
  24  10 -12    0.14    0.26
  10  12  24    1.01    0.60
  24  10  12    0.96    0.48
  24  10  12    0.16    0.21
 -12 -24  10    0.46    0.32
 -10 -12  24   -0.26    0.32
 -24 -10  12    0.16    0.64
  24 -12  12   30.11    2.20
 -24  12  12   37.26    2.44
  24  12 -12   34.21    2.28
  12 -12  24   30.55    2.26
  12 -24  12   33.20    2.48
 -12  12  24   33.85    2.44
  24  12  12   35.69    2.55
 -24 -12  12   29.98    2.66
  24  12  12   31.41    2.07
 -12 -24  12   32.43    2.44
 -12 -12  24   29.60    2.36
  12  12  24   38.34    2.72
 -24  14  12    0.60    0.43
  24  14 -12    0.22    0.31
  12 -24  14    0.30    0.36
 -14  12  24    0.45    0.45
  14 -12  24    0.10    0.28
  24 -14  12    0.24    0.26
 -12 -24  14    0.12    0.32
 -14 -12  24   -0.02    0.31
  24  14  12    0.09    0.20
  24  14  12    0.14    0.43
 -14 -12  24    1.80    0.61
  14  12  24    0.29    0.53
 -24 -14  12   -0.11    0.67
  16 -12  24   16.70    1.53
 -16  12  24   20.93    1.69
  24  16 -12   18.06    1.58
  24 -16  12   18.15    1.57
  12 -24  16   15.85    1.72
 -24 -16  12   17.84    1.94
  16  12  24   20.80    1.90
 -16 -12  24   20.45    1.80
 -12 -24  16   17.94    1.73
  24  16  12   19.36    1.70
  12 -24  18    0.22    0.34
 -18  12  24    0.27    0.42
  24  18 -12   -0.01    0.32
  18 -12  24    0.08    0.25
  24 -18  12   -0.14    0.27
 -18 -12  24    0.21    0.31
  18  12  24    0.24    0.55
  24  18  12    0.10    0.43
  12  24  18    0.33    0.47
 -18 -12  24    0.39    0.55
 -12 -24  18    0.16    0.34
  24 -20  12   19.42    1.78
  12 -24  20   19.96    1.97
  20 -12  24   17.91    1.66
 -20  12  24   23.10    1.85
 -20 -12  24   19.94    1.93
  20  12  24   24.73    2.11
 -12 -24  20   20.49    1.91
 -20 -12  24   18.01    1.76
  12  24  20   22.12    1.81
  22 -12  24   -0.01    0.28
 -22 -12  24    1.12    0.67
  12  24  22    0.44    0.50
 -14 -24   0    0.39    0.25
   0  14  24    0.06    0.52
  24   0  14    0.26    0.40
 -24   0  14    0.28    0.52
   0 -14  24    0.18    0.33
  14 -24   0    0.19    0.24
  24   0  14    0.27    0.21
  24   0 -14    0.18    0.19
 -24   2  14    0.34    0.53
  14 -24   2    0.33    0.25
  24   2 -14    0.09    0.22
 -14 -24  -2    0.42    0.25
  -2  14  24    0.50    0.54
  24  -2  14    0.22    0.21
  24  -2  14    0.10    0.37
   2 -14  24   -0.07    0.29
 -24  -2  14    0.67    0.60
  -2 -14  24    0.35    0.34
  24   2  14    0.02    0.19
 -14 -24   2    0.40    0.28
  24  -2 -14   -0.11    0.20
  24   2  14    0.57    0.42
   2  14  24    0.72    0.58
  14 -24   4    0.18    0.26
   4 -14  24    0.15    0.30
 -14 -24  -4    0.44    0.26
  24   4 -14    0.33    0.24
  24  -4  14    0.23    0.21
 -24   4  14    0.37    0.54
  -4  14  24    0.96    0.50
   4  14  24    0.49    0.54
 -14 -24   4    0.31    0.27
  24   4  14    0.50    0.46
  24   4  14    0.28    0.21
 -24  -4  14    0.38    0.64
  -4 -14  24    0.03    0.29
  14 -24   6    0.09    0.25
 -24   6  14    0.14    0.49
  -6  14  24   -0.01    0.39
   6 -14  24   -0.29    0.34
  24   6 -14    0.11    0.23
  24  -6  14   -0.03    0.19
   6  14  24    0.38    0.52
  24   6  14    0.27    0.44
  24   6  14   -0.07    0.18
 -14 -24   6    0.06    0.25
  -6 -14  24    0.25    0.31
 -24  -6  14    0.18    0.61
   8 -14  24   -0.08    0.31
 -24   8  14   -0.34    0.37
  14 -24   8    0.29    0.31
  24  -8  14    0.12    0.22
  24   8 -14    0.01    0.24
  -8  14  24    0.23    0.41
   8  14  24    0.57    0.53
  -8 -14  24    0.25    0.30
  24   8  14    0.16    0.43
 -24  -8  14    0.12    0.64
  24   8  14    0.37    0.23
 -14 -24   8    0.57    0.34
  24 -10  14    0.35    0.24
  14 -24  10    0.21    0.30
  10 -14  24   -0.17    0.31
 -24  10  14    1.03    0.52
 -10  14  24    0.85    0.48
  24  10 -14    0.04    0.27
 -24 -10  14   -0.02    0.78
  10  14  24    0.56    0.55
 -14 -24  10    0.36    0.34
  24  10  14   -0.24    0.22
 -10 -14  24    0.27    0.34
  24  10  14    0.71    0.46
  12 -14  24    0.10    0.32
  14 -24  12   -0.22    0.30
  24  12 -14    0.67    0.31
 -12  14  24    0.33    0.43
 -24  12  14    0.49    0.46
  24 -12  14    0.13    0.22
 -12 -14  24    0.30    0.32
  12  14  24    0.91    0.59
 -24 -12  14   -0.41    0.59
  24  12  14   -0.10    0.40
 -14 -24  12    0.02    0.32
  24 -14  14    0.15    0.22
  14 -24  14   -0.18    0.31
  14 -14  24   -0.01    0.31
 -24  14  14    0.07    0.41
 -14  14  24    0.21    0.37
  24  14 -14    0.07    0.29
  14  14  24   -0.15    0.50
  24  14  14    0.22    0.43
 -14 -24  14    0.00    0.29
 -14 -14  24    0.08    0.32
 -24 -14  14   -0.07    0.67
  24  16 -14    0.30    0.33
 -16  14  24    0.63    0.44
  14 -24  16   -0.13    0.36
  16 -14  24   -0.11    0.27
  24 -16  14    0.57    0.33
 -14 -24  16    0.00    0.32
 -16 -14  24    0.09    0.32
  16  14  24    0.67    0.57
 -24 -16  14   -0.23    0.82
  14  24  16    0.08    0.43
  24  16  14    0.03    0.46
  14 -24  18   -0.29    0.32
 -18  14  24    0.66    0.47
  24 -18  14   -0.15    0.27
  18 -14  24   -0.21    0.30
 -14 -24  18    0.11    0.32
 -18 -14  24   -0.03    0.30
  24  18  14   -0.12    0.43
  18  14  24    0.54    0.51
  14  24  18   -0.53    0.43
 -20  14  24    1.52    0.52
  20 -14  24    0.41    0.31
  14  24  20   -0.08    0.46
 -20 -14  24    0.27    0.32
  24  20  14    0.16    0.45
 -24   0  16   41.48    3.22
  24   0  16   47.24    2.81
  24   0  16   45.10    3.15
 -16 -24   0   47.75    2.95
   0 -16  24   44.66    3.15
   0  16  24   52.01    3.35
   2 -16  24   -0.26    0.40
  24   2 -16    0.46    0.24
  24  -2  16    0.87    0.45
 -24   2  16    0.67    0.54
  16 -24   2    0.71    0.33
  -2  16  24    0.45    0.55
  24  -2  16    0.63    0.24
 -16 -24  -2    0.87    0.31
  24   2  16    0.65    0.25
  -2 -16  24    0.19    0.40
 -24  -2  16    1.13    0.66
   2  16  24    0.51    0.58
 -16 -24   2    0.97    0.32
  24   2  16    0.97    0.49
  16 -24   4   31.43    2.16
  24  -4  16   27.98    2.12
   4 -16  24   27.90    2.27
  24   4 -16   29.34    1.99
  24  -4  16   27.46    1.95
 -24   4  16   29.73    2.32
  24   4  16   29.55    2.31
   4  16  24   31.88    2.42
 -16 -24   4   30.40    2.13
  24   4  16   29.73    1.92
 -24  -4  16   27.20    2.39
  -4 -16  24   27.51    2.25
  16 -24   6    0.29    0.32
   6 -16  24   -0.22    0.38
  24  -6  16    0.46    0.24
  -6  16  24    0.49    0.49
  24   6 -16    0.46    0.28
 -24   6  16    1.13    0.56
  24   6  16    0.50    0.23
  -6 -16  24    0.03    0.36
 -24  -6  16    0.52    0.66
 -16 -24   6    0.79    0.33
   6  16  24    0.09    0.52
  24   6  16    0.77    0.52
 -24   8  16   36.64    2.57
  24  -8  16   33.82    2.30
  24   8 -16   36.03    2.36
  16 -24   8   31.87    2.45
   8 -16  24   33.27    2.54
   8  16  24   41.55    2.80
  24   8  16   32.84    2.62
  24   8  16   37.93    2.22
  -8 -16  24   32.59    2.52
 -24  -8  16   33.37    2.79
 -16 -24   8   32.13    2.44
  24  10 -16    0.38    0.30
 -10  16  24    0.28    0.42
 -24  10  16    1.30    0.51
  16 -24  10    0.12    0.34
  24 -10  16    0.88    0.31
  10 -16  24    0.02    0.37
 -16 -24  10    0.60    0.36
  24  10  16    0.88    0.51
 -24 -10  16    1.05    0.76
  10  16  24    1.15    0.62
 -10 -16  24   -0.34    0.36
  24 -12  16   15.49    1.49
  16 -24  12   18.00    1.75
 -12  16  24   19.48    1.65
  12 -16  24   17.69    1.69
 -24  12  16   21.04    1.68
  24  12 -16   19.71    1.61
  24  12  16   18.52    1.75
 -12 -16  24   19.31    1.77
 -24 -12  16   15.99    1.89
 -16 -24  12   19.54    1.75
  12  16  24   22.73    1.93
  24 -14  16    0.32    0.30
  14 -16  24    0.21    0.37
 -14  16  24    0.48    0.45
  16 -24  14    0.25    0.41
 -24  14  16    1.59    0.52
 -16 -24  14    0.60    0.37
 -14 -16  24    0.08    0.36
  24  14  16    0.17    0.45
  14  16  24    0.12    0.56
 -24 -14  16    0.24    0.71
  16 -16  24   22.26    1.89
  16 -24  16   17.40    1.88
  24 -16  16   19.11    1.74
  16  24  16   22.10    1.77
 -24 -16  16   19.85    2.10
  24  16  16   24.16    1.97
 -16 -24  16   21.14    1.94
  16  16  24   25.75    2.09
 -16 -16  24   18.74    1.87
  18 -16  24   -0.10    0.28
 -18  16  24    1.17    0.49
  24  18  16    0.25    0.43
 -18 -16  24    0.16    0.37
  16  24  18    0.34    0.52
 -24 -18  16    0.73    0.40
   0  18  24    0.20    0.49
  24   0  18    0.03    0.19
   0 -18  24    0.07    0.37
  24   0  18    0.19    0.42
 -24   0  18    0.65    0.59
   2 -18  24   -0.14    0.34
  -2  18  24   -0.17    0.52
 -24   2  18    0.11    0.51
  24  -2  18    0.24    0.41
  24  -2  18    0.03    0.21
  18 -24   2    0.03    0.26
 -24  -2  18    0.30    0.61
  -2 -18  24    0.35    0.38
 -18 -24   2   -0.14    0.25
   2  18  24    0.30    0.51
  24   2  18   -0.18    0.17
  24   2  18    0.24    0.44
  24   4 -18   -0.05    0.25
  24  -4  18    0.38    0.41
  18 -24   4    0.22    0.27
  24  -4  18    0.10    0.20
  -4  18  24    0.11    0.52
 -24   4  18    0.58    0.52
   4 -18  24   -0.12    0.34
  -4 -18  24    0.19    0.34
  24   4  18    0.54    0.50
 -18 -24   4    0.14    0.29
   4  18  24    0.27    0.52
  24   4  18    0.03    0.19
 -24  -4  18    0.02    0.63
  18 -24   6    0.30    0.33
  24  -6  18    0.28    0.23
 -24   6  18    0.29    0.45
  -6  18  24    0.18    0.44
  24   6 -18   -0.06    0.24
   6 -18  24    0.09    0.40
  24   6  18    0.13    0.43
   6  18  24    0.16    0.52
  24   6  18   -0.22    0.19
 -24  -6  18    0.13    0.66
  -6 -18  24    0.42    0.33
 -18 -24   6    0.54    0.33
  24   8 -18    0.70    0.32
  24  -8  18    0.25    0.26
   8 -18  24   -0.20    0.36
  18 -24   8    0.24    0.35
  -8  18  24    0.74    0.46
 -24   8  18    0.92    0.51
  24   8  18    0.15    0.45
 -24  -8  18    0.20    0.69
   8  18  24    0.79    0.56
  -8 -18  24   -0.08    0.27
 -18 -24   8    0.00    0.33
  18 -24  10   -0.22    0.33
  24 -10  18   -0.08    0.20
  24  10 -18    0.06    0.28
 -10  18  24    0.35    0.43
  10 -18  24   -0.44    0.33
 -24  10  18    0.83    0.51
 -24 -10  18   -0.17    0.62
  24  10  18    0.25    0.47
  10  18  24    0.18    0.49
 -10 -18  24    0.40    0.36
 -18 -24  10   -0.21    0.29
  18 -24  12   -0.48    0.28
  12 -18  24   -0.13    0.36
 -12  18  24    0.28    0.42
  24 -12  18    0.03    0.24
 -24  12  18    0.38    0.43
 -24 -12  18    0.08    0.66
  24  12  18    0.27    0.50
 -12 -18  24   -0.12    0.29
  12  18  24    0.24    0.52
 -18 -24  12    0.46    0.38
 -24  14  18    1.04    0.49
  18 -24  14   -0.44    0.30
  14 -18  24    0.02    0.35
  24 -14  18   -0.06    0.26
 -14  18  24    0.65    0.45
 -24 -14  18    0.13    0.68
  18  24  14   -0.86    0.37
  24  14  18    0.34    0.47
 -14 -18  24   -0.02    0.33
 -18 -24  14   -0.33    0.30
  14  18  24    0.21    0.51
 -16  18  24    0.80    0.47
  16 -18  24   -0.20    0.31
  18 -24  16   -0.19    0.36
 -16 -18  24    0.12    0.35
 -24 -16  18    0.09    0.32
  24  16  18    0.13    0.46
  18  24  16   -0.21    0.47
  16  18  24    0.99    0.56
 -24   0  20   21.98    1.99
   0 -20  24   20.52    1.96
   0  20  24   23.51    1.95
  24   0  20   20.71    1.86
  24   0  20   20.43    1.54
  -2  20  24    0.52    0.59
   2 -20  24   -0.19    0.43
  24  -2  20    0.32    0.23
  20 -24   2    0.58    0.33
 -24   2  20    1.72    0.64
  24  -2  20    1.54    0.55
  24   2  20    0.69    0.27
   2  20  24    0.78    0.57
  24   2  20    0.96    0.54
 -24  -2  20    1.26    0.64
  -2 -20  24    0.42    0.45
   4 -20  24   25.28    2.27
  24  -4  20   26.14    1.89
 -24   4  20   28.84    2.27
  24  -4  20   26.74    2.10
  20 -24   4   29.37    2.10
 -20 -24   4   27.85    2.10
  20  24   4   25.86    1.92
   4  20  24   28.85    2.25
 -24  -4  20   26.28    2.36
  24   4  20   28.40    2.30
  -4 -20  24   25.56    2.22
  20 -24   6    0.23    0.30
 -24   6  20    1.62    0.60
  -6  20  24    0.61    0.54
   6 -20  24   -0.12    0.42
  24  -6  20    0.42    0.25
 -24  -6  20    0.79    0.67
  24   6  20    1.09    0.58
 -20 -24   6    0.57    0.35
  -6 -20  24    0.48    0.43
   6  20  24    0.36    0.59
  -8  20  24   19.81    1.74
  20 -24   8   22.47    1.83
   8 -20  24   17.55    1.87
 -24   8  20   21.05    1.82
  24  -8  20   19.74    1.60
 -24  -8  20   18.38    2.01
   8  20  24   23.31    1.93
  -8 -20  24   19.10    1.84
 -20 -24   8   19.68    1.78
  24   8  20   20.04    1.91
  10 -20  24   -0.12    0.42
  24 -10  20    0.22    0.26
  20 -24  10    0.19    0.35
 -24  10  20    1.66    0.58
 -10  20  24    0.52    0.50
 -10 -20  24    0.09    0.41
 -24 -10  20   -0.12    0.65
 -20 -24  10    0.70    0.39
  24  10  20    1.01    0.58
  10  20  24    0.69    0.59
 -12  20  24   19.83    1.72
 -24  12  20   21.78    1.82
  20 -24  12   20.62    1.90
  24 -12  20   18.93    1.68
  12 -20  24   19.58    1.94
  12  20  24   26.00    2.04
 -20 -24  12   21.02    1.91
 -24 -12  20   18.76    2.05
  24  12  20   21.66    1.97
 -24 -12  20   19.52    1.80
  14 -20  24   -0.04    0.41
 -24  14  20    1.69    0.51
  20 -24  14    0.14    0.37
 -24 -14  20    0.69    0.73
 -24 -14  20    0.56    0.38
  20  24  14    0.30    0.49
  14  20  24    0.07    0.49
 -14 -20  24    0.09    0.40
  22  24   0   -0.11    0.25
 -24   0  22    1.07    0.57
  24   0  22   -0.18    0.40
  24   0  22   -0.01    0.20
   0  22  24    0.00    0.49
   0 -22  24   -0.06    0.37
  24  -2  22    0.08    0.40
 -24   2  22    0.24    0.50
   2 -22  24   -0.14    0.34
  22 -24   2   -0.16    0.27
  -2  22  24    0.18    0.53
  24  -2  22    0.00    0.20
 -24  -2  22    0.51    0.48
  -2 -22  24    0.15    0.38
  24   2  22    0.36    0.48
  22  24   2   -0.26    0.27
   2  22  24   -0.30    0.51
  -4  22  24    0.52    0.51
  24  -4  22   -0.06    0.21
  22 -24   4   -0.33    0.25
   4 -22  24   -0.25    0.40
 -24   4  22    0.49    0.52
  24   4  22    0.32    0.51
  -4 -22  24    0.28    0.39
  22  24   4   -0.08    0.27
   4  22  24   -0.39    0.45
 -24  -4  22    0.64    0.55
  22 -24   6   -0.20    0.26
 -24   6  22    0.78    0.50
   6 -22  24   -0.27    0.39
  24  -6  22   -0.09    0.20
  24   6  22    0.14    0.46
 -24  -6  22    0.98    0.66
   6  22  24    0.58    0.57
  -6 -22  24    0.09    0.36
 -22 -24   6   -0.02    0.30
 -24   8  22    0.70    0.43
  24  -8  22   -0.03    0.25
   8 -22  24   -0.21    0.38
  22 -24   8   -0.12    0.24
   8  22  24    0.32    0.58
  -8 -22  24    0.41    0.38
  24   8  22    0.32    0.52
 -22 -24   8   -0.07    0.30
 -24  -8  22    0.99    0.64
 -24  10  22    1.12    0.45
  24 -10  22   -0.05    0.22
  22 -24  10   -0.24    0.30
 -24 -10  22    0.45    0.63
 -10 -22  24    0.18    0.33
  10  22  24    0.70    0.54
 -22 -24  10   -0.10    0.31
  12  22  24    0.25    0.55
 -24 -12  22    0.11    0.58
 -24 -12  22   -0.15    0.28
 -24   0  24   20.79    1.97
   0 -24  24   21.16    1.99
  24   0  24   17.64    1.81
  24  24   0   20.91    1.68
  24  24  -2    0.60    0.32
  24  -2  24    0.47    0.51
  -2 -24  24   -0.08    0.40
  24   2  24    0.83    0.56
 -24  -2  24    1.02    0.67
  24  24   2    0.69    0.34
  24  -4  24   13.12    1.22
  24 -24   4   13.50    1.38
 -24  -4  24   14.51    1.64
  24   4  24   15.92    1.66
  24  24   4   13.17    1.30
  24  -6  24    0.27    0.26
  24 -24   6    0.07    0.30
   6  24  24    1.51    0.63
 -25  -1  -1   -0.27    0.40
   1 -25   1   -0.19    0.19
  25  -1   1   -0.17    0.15
 -25   1   1   -0.15    0.40
  -1 -25  -1   -0.28    0.17
  -1   1  25   -0.78    0.40
  25   1  -1   -0.19    0.15
   1  -1  25    0.00    0.46
  -1 -25   1   -0.25    0.19
 -25  -1   1   -0.48    0.36
   1 -25  -1   -0.05    0.18
   1   1  25   -0.55    0.41
  25  -1  -1   -0.05    0.16
 -25   1  -1   -0.52    0.37
  -1  -1  25   -0.48    0.41
  25   1   1   -0.27    0.15
   3  -1  25   -0.44    0.47
  -3   1  25   -0.55    0.37
 -25   3   1   -0.52    0.37
  25  -3   1   -0.22    0.15
  25   3  -1   -0.05    0.16
 -25  -3  -1   -0.57    0.35
   1 -25   3   -0.20    0.18
  25   3   1   -0.14    0.14
  -1 -25   3   -0.40    0.19
 -25   3  -1   -0.88    0.37
  25  -3  -1   -0.13    0.13
  -3  -1  25   -0.16    0.40
   3   1  25   -0.28    0.47
  25   5  -1    0.06    0.17
 -25   5   1   -0.05    0.39
   5  -1  25   -0.12    0.54
  -5   1  25   -0.30    0.48
  25  -5   1   -0.04    0.17
 -25  -5  -1    0.03    0.43
   1 -25   5   -0.03    0.25
 -25   5  -1   -0.33    0.43
  25   5   1   -0.16    0.15
  -5  -1  25    0.32    0.51
   5   1  25    0.22    0.53
  25  -5  -1   -0.03    0.17
  -1 -25   5   -0.20    0.22
 -25  -5   1   -0.06    0.48
 -25  -7  -1   -0.03    0.42
   7  -1  25   -0.02    0.48
 -25   7   1   -0.17    0.42
  25   7  -1    0.13    0.20
   1 -25   7   -0.06    0.21
  -7   1  25   -0.14    0.48
  25  -7   1    0.12    0.17
  -1 -25   7    0.29    0.27
 -25  -7   1   -0.04    0.52
 -25   7  -1   -0.39    0.40
  25   7   1   -0.01    0.18
   7   1  25    0.57    0.56
  -7  -1  25   -0.27    0.44
  25  -7  -1   -0.14    0.18
  25  -9   1    0.00    0.16
  25   9  -1   -0.23    0.17
 -25  -9  -1    0.01    0.47
   1 -25   9   -0.44    0.24
   9  -1  25   -0.21    0.46
 -25   9   1   -0.28    0.40
  -9   1  25   -0.14    0.39
  25  -9  -1   -0.17    0.17
   9   1  25   -0.24    0.46
  -9  -1  25    0.01    0.43
  -1 -25   9   -0.24    0.26
  25   9   1   -0.21    0.17
 -25  -9   1    0.05    0.48
  11  -1  25    0.00    0.42
 -25 -11  -1   -0.10    0.51
 -25  11   1   -1.00    0.40
  25 -11   1   -0.02    0.18
   1 -25  11    0.12    0.28
 -11   1  25    0.19    0.43
  25  11  -1    0.12    0.20
 -11  -1  25   -0.13    0.40
  25 -11  -1   -0.15    0.17
  -1 -25  11   -0.06    0.27
  11   1  25   -0.24    0.44
 -25 -11   1   -0.59    0.48
  25  11   1    0.18    0.20
 -13   1  25    0.10    0.43
   1 -25  13   -0.08    0.26
  13  -1  25   -0.32    0.45
 -25 -13  -1    0.08    0.49
  25 -13   1   -0.20    0.17
  25  13  -1   -0.10    0.19
 -25 -13   1   -0.02    0.56
  13   1  25   -0.55    0.40
  25 -13  -1   -0.12    0.17
  25  13   1   -0.23    0.17
  -1 -25  13   -0.21    0.27
 -13  -1  25   -0.08    0.39
   1 -25  15    0.31    0.35
  25 -15   1    0.20    0.22
 -15   1  25    0.25    0.46
 -25 -15  -1    0.79    0.64
  25  15  -1   -0.05    0.22
  15  -1  25    0.10    0.51
  15   1  25   -0.30    0.38
  25  15   1    0.06    0.22
 -25 -15   1    0.53    0.64
  -1 -25  15    0.23    0.33
 -15  -1  25    0.16    0.40
  25 -15  -1    0.03    0.21
  17  -1  25   -0.35    0.39
   1 -25  17   -0.18    0.33
 -17   1  25    0.32    0.44
  25 -17   1   -0.18    0.20
 -25 -17  -1    0.02    0.49
  25  17  -1   -0.44    0.21
 -25 -17   1   -0.07    0.47
  25 -17  -1   -0.03    0.20
  -1 -25  17   -0.38    0.27
  25  17   1   -0.19    0.21
  17   1  25   -0.47    0.42
 -17  -1  25    0.50    0.47
   1 -25  19    0.15    0.35
  25  19  -1    0.02    0.27
  19  -1  25   -0.16    0.40
 -25 -19  -1   -0.69    0.51
  25 -19   1    0.04    0.24
 -19   1  25    0.72    0.51
  19   1  25   -0.21    0.47
  -1 -25  19    0.11    0.32
 -19  -1  25    0.71    0.52
 -25 -19   1   -0.46    0.56
  25  19   1    0.02    0.26
  25 -19  -1   -0.19    0.22
  25 -21   1   -0.27    0.23
   1 -25  21   -0.17    0.36
 -21   1  25    0.43    0.47
  25  21  -1   -0.01    0.27
  21  -1  25   -0.02    0.47
 -25 -21  -1   -0.31    0.54
 -25 -21   1   -0.57    0.57
 -21  -1  25    0.69    0.51
  -1 -25  21   -0.21    0.35
  21   1  25   -0.19    0.44
  25  21   1   -0.36    0.25
  23  -1  25   -0.73    0.41
  25  23  -1   -0.28    0.23
 -23  -1  25    0.20    0.58
  -1 -25  23   -0.20    0.34
  25  23   1   -0.08    0.27
  23   1  25   -0.63    0.42
  -1   3  25   -0.47    0.42
  25  -1   3   -0.23    0.14
 -25   1   3   -0.37    0.38
 -25  -1  -3   -0.04    0.41
  25   1  -3   -0.16    0.16
  -3 -25  -1   -0.14    0.20
   3 -25   1   -0.11    0.20
   1  -3  25   -0.38    0.50
   3 -25  -1   -0.25    0.15
  -3 -25   1   -0.18    0.20
  25   1   3   -0.13    0.14
 -25   1  -3   -0.65    0.35
   1   3  25   -0.38    0.45
 -25  -1   3    0.02    0.49
  25  -1  -3   -0.16    0.14
  -1  -3  25   -0.37    0.48
 -25   3   3   -0.04    0.41
 -25  -3  -3   -0.31    0.40
  -3   3  25   -0.48    0.42
   3 -25   3   -0.12    0.22
  25  -3   3   -0.05    0.18
   3  -3  25   -0.34    0.48
  25   3  -3   -0.24    0.16
  -3  -3  25   -0.45    0.44
 -25   3  -3   -0.16    0.35
 -25  -3   3   -0.73    0.36
  25  -3  -3   -0.09    0.17
   3   3  25   -0.20    0.55
  25   3   3   -0.10    0.16
  -3 -25   3   -0.20    0.19
   5  -3  25   -0.30    0.42
  -5   3  25   -0.44    0.42
 -25   5   3   -0.33    0.41
 -25  -5  -3   -0.06    0.37
  25  -5   3   -0.18    0.17
  25   5  -3   -0.37    0.15
   3 -25   5   -0.17    0.20
  -5  -3  25   -0.18    0.41
   5   3  25   -0.70    0.42
  -3 -25   5   -0.22    0.21
  25   5   3   -0.31    0.14
 -25  -5   3   -0.60    0.46
 -25   5  -3   -0.75    0.39
  25  -5  -3   -0.19    0.14
   7  -3  25    0.03    0.40
 -25   7   3   -0.56    0.39
  25  -7   3   -0.21    0.15
   3 -25   7   -0.16    0.21
  25   7  -3   -0.30    0.16
 -25  -7  -3    0.00    0.42
  -7   3  25   -0.59    0.38
  25  -7  -3   -0.16    0.13
 -25  -7   3   -0.91    0.40
  -7  -3  25   -0.04    0.40
   7   3  25   -0.60    0.39
  -3 -25   7   -0.13    0.24
 -25   7  -3   -0.41    0.34
  25   7   3   -0.01    0.18
  25  -9   3   -0.43    0.16
 -25   9   3   -0.51    0.42
  -9   3  25    0.09    0.39
 -25  -9  -3    0.09    0.48
   9  -3  25   -0.35    0.44
  25   9  -3   -0.17    0.17
   3 -25   9   -0.13    0.24
  25   9   3    0.21    0.19
  25  -9  -3   -0.09    0.16
  -3 -25   9   -0.41    0.25
 -25  -9   3   -0.26    0.48
  -9  -3  25   -0.09    0.45
   9   3  25   -0.21    0.47
  11  -3  25    0.20    0.44
  25 -11   3   -0.32    0.15
 -25 -11  -3   -0.41    0.44
 -25  11   3   -0.53    0.44
   3 -25  11    0.00    0.30
  25  11  -3   -0.03    0.19
 -11   3  25    0.13    0.42
 -25 -11   3   -0.75    0.48
  25 -11  -3    0.04    0.18
  25  11   3    0.01    0.17
  11   3  25    0.25    0.55
  -3 -25  11   -0.08    0.25
 -11  -3  25   -0.53    0.37
 -13   3  25    0.40    0.41
  13  -3  25   -0.73    0.35
  25 -13   3   -0.25    0.17
 -25 -13  -3   -0.34    0.41
   3 -25  13    0.08    0.28
  25  13  -3   -0.21    0.21
 -25 -13   3   -0.78    0.46
  25 -13  -3   -0.20    0.16
 -13  -3  25    0.21    0.41
  -3 -25  13   -0.27    0.26
  13   3  25   -0.37    0.43
  25  13   3   -0.08    0.19
   3 -25  15   -0.12    0.29
 -15   3  25    0.64    0.48
 -25 -15  -3   -0.43    0.48
  25 -15   3   -0.23    0.20
  15  -3  25   -0.10    0.41
  25  15  -3   -0.08    0.23
  -3 -25  15   -0.01    0.31
  25  15   3   -0.10    0.19
  15   3  25   -0.11    0.51
 -25 -15   3   -0.78    0.57
  25 -15  -3    0.00    0.18
 -15  -3  25    0.05    0.47
 -25 -17  -3   -0.27    0.46
  17  -3  25   -0.21    0.39
  25  17  -3   -0.15    0.23
   3 -25  17   -0.32    0.29
  25 -17   3   -0.11    0.20
 -17   3  25   -0.13    0.38
  25 -17  -3   -0.17    0.19
  25  17   3   -0.15    0.22
  17   3  25   -0.48    0.39
  -3 -25  17   -0.39    0.28
 -25 -17   3   -0.64    0.49
 -17  -3  25    0.04    0.46
   3 -25  19   -0.35    0.28
  25 -19   3   -0.22    0.24
 -19   3  25    0.72    0.47
  19  -3  25   -0.63    0.39
 -25 -19  -3   -0.78    0.44
  25  19  -3   -0.10    0.26
  25  19   3   -0.39    0.24
  -3 -25  19    0.10    0.34
 -25 -19   3   -0.50    0.57
  19   3  25   -0.58    0.45
 -19  -3  25    0.59    0.53
 -25 -21  -3   -0.15    0.52
 -21   3  25    0.28    0.41
  21  -3  25   -0.29    0.44
  25  21  -3   -0.40    0.23
  25 -21   3   -0.18    0.25
   3 -25  21    0.02    0.37
  25  21   3   -0.19    0.27
 -21  -3  25    0.00    0.45
  21   3  25   -0.26    0.44
  -3 -25  21   -0.04    0.35
  25 -23   3   -0.36    0.28
  23   3  25   -0.58    0.45
 -23  -3  25   -0.33    0.51
  25  23   3   -0.24    0.24
  -1   5  25    0.00    0.48
   5 -25   1   -0.03    0.20
 -25  -1  -5    0.10    0.41
  -5 -25  -1    0.20    0.23
  25   1  -5    0.14    0.20
  25  -1   5   -0.04    0.16
   1  -5  25    0.09    0.48
 -25   1   5   -0.02    0.49
  -1  -5  25   -0.30    0.43
  25   1   5    0.08    0.19
  25  -1  -5   -0.08    0.17
 -25   1  -5   -0.30    0.34
  -5 -25   1   -0.08    0.23
   1   5  25   -0.16    0.54
 -25  -1   5   -0.09    0.49
   5 -25   3    0.03    0.23
 -25  -3  -5   -0.42    0.38
 -25   3   5   -0.72    0.48
  25   3  -5    0.01    0.17
   3  -5  25   -0.35    0.42
  -3   5  25   -0.18    0.45
  25  -3   5   -0.11    0.16
 -25   3  -5    0.10    0.37
   3   5  25    0.30    0.52
 -25  -3   5   -0.40    0.43
  25  -3  -5   -0.17    0.14
  25   3   5   -0.18    0.16
  -5 -25   3   -0.25    0.19
  -3  -5  25   -0.08    0.46
  25   5  -5   -0.09    0.19
 -25  -5  -5   -0.20    0.37
 -25   5   5   -0.49    0.42
  25  -5   5   -0.02    0.16
   5 -25   5   -0.33    0.18
   5  -5  25   -0.28    0.44
  -5   5  25    0.00    0.42
  25  -5  -5   -0.12    0.16
  -5  -5  25   -0.19    0.42
 -25  -5   5   -0.55    0.41
   5   5  25   -0.31    0.46
  -5 -25   5   -0.28    0.23
 -25   5  -5   -0.15    0.38
  25   5   5   -0.13    0.17
   5 -25   7   -0.13    0.23
   7  -5  25    0.00    0.49
 -25   7   5   -0.58    0.46
  25   7  -5   -0.15    0.18
  -7   5  25   -0.27    0.38
  25  -7   5    0.08    0.17
 -25  -7  -5   -0.07    0.45
 -25   7  -5    0.04    0.38
  25  -7  -5   -0.19    0.15
  25   7   5   -0.15    0.17
  -5 -25   7   -0.13    0.24
 -25  -7   5   -0.49    0.46
   7   5  25   -0.08    0.55
  -7  -5  25    0.22    0.44
   9  -5  25   -0.53    0.39
  -9   5  25    0.11    0.41
   5 -25   9   -0.12    0.25
 -25  -9  -5   -0.08    0.38
 -25   9   5   -0.26    0.47
  25  -9   5   -0.12    0.18
  25   9  -5    0.01    0.19
   9   5  25   -0.41    0.47
  -9  -5  25    0.32    0.47
 -25   9  -5   -0.95    0.37
  -5 -25   9   -0.31    0.26
 -25  -9   5   -1.00    0.51
  25  -9  -5   -0.16    0.17
  25   9   5   -0.07    0.16
 -25  11   5   -0.41    0.45
   5 -25  11   -0.19    0.23
  25 -11   5    0.03    0.19
 -25 -11  -5   -0.37    0.40
 -11   5  25    0.19    0.42
  11  -5  25   -0.16    0.41
  25  11  -5   -0.21    0.19
  25  11   5   -0.12    0.17
 -25 -11   5   -0.23    0.56
  -5 -25  11    0.05    0.27
 -11  -5  25    0.57    0.46
  11   5  25   -0.28    0.45
  25 -11  -5   -0.21    0.17
  25 -13   5   -0.17    0.17
   5 -25  13   -0.04    0.31
 -13   5  25   -0.23    0.37
  13  -5  25   -0.62    0.38
 -25 -13  -5    0.33    0.47
  25  13  -5   -0.15    0.21
  25  13   5   -0.08    0.21
 -13  -5  25   -0.49    0.42
  -5 -25  13   -0.56    0.25
 -25 -13   5   -0.47    0.55
  13   5  25   -0.12    0.51
  25 -13  -5   -0.33    0.17
 -25 -15  -5    0.19    0.51
 -15   5  25    0.32    0.38
  15  -5  25   -0.42    0.38
   5 -25  15   -0.45    0.29
  25  15  -5   -0.09    0.23
  25 -15   5   -0.13    0.20
  25  15   5   -0.33    0.19
 -15  -5  25    0.67    0.53
 -25 -15   5   -0.55    0.55
  15   5  25   -0.28    0.54
  -5 -25  15    0.04    0.32
 -17   5  25   -0.12    0.40
  25 -17   5   -0.07    0.21
   5 -25  17   -0.35    0.31
  25  17  -5   -0.45    0.21
 -25 -17  -5    0.29    0.51
  25  17   5   -0.30    0.19
 -25 -17   5   -1.23    0.57
 -17  -5  25    0.76    0.52
  -5 -25  17   -0.37    0.29
  17   5  25   -0.71    0.43
   5 -25  19   -0.21    0.32
 -19   5  25    0.45    0.46
  19  -5  25   -0.27    0.19
  25  19  -5    0.00    0.27
 -25 -19  -5   -0.19    0.50
  25 -19   5   -0.18    0.23
 -19  -5  25    0.11    0.57
  19   5  25   -0.30    0.47
  25  19   5   -0.18    0.22
  -5 -25  19   -0.01    0.27
 -25 -19   5    0.11    0.65
   5 -25  21   -0.20    0.35
 -21   5  25    0.28    0.39
 -25 -21  -5    0.40    0.51
  25 -21   5   -0.07    0.28
  25  21  -5   -0.10    0.27
 -21  -5  25    0.20    0.50
  -5 -25  21   -0.49    0.29
  25  21   5   -0.34    0.22
  21   5  25   -0.06    0.46
  25 -23   5   -0.35    0.24
  25  23   5   -0.20    0.27
 -23  -5  25    0.65    0.59
  23   5  25   -0.46    0.50
  -7 -25  -1    0.05    0.21
 -25   1   7   -0.33    0.45
 -25  -1  -7    0.10    0.39
  25   1  -7   -0.20    0.17
   1  -7  25    0.16    0.53
  -1   7  25    0.66    0.57
   7 -25   1    0.00    0.21
  25  -1   7    0.01    0.18
  25  -1  -7   -0.17    0.15
 -25  -1   7   -0.76    0.44
 -25   1  -7    0.29    0.40
   1   7  25   -0.26    0.47
  25   1   7    0.15    0.21
  -1  -7  25   -0.15    0.51
  -7 -25   1   -0.02    0.21
  -3   7  25   -0.28    0.35
 -25  -3  -7   -0.38    0.36
  25  -3   7   -0.15    0.16
   7 -25   3   -0.32    0.18
 -25   3   7   -0.22    0.43
   3  -7  25   -0.60    0.45
  25   3  -7   -0.15    0.18
   3   7  25   -0.44    0.42
 -25  -3   7   -0.52    0.44
  -3  -7  25   -0.46    0.47
  25  -3  -7   -0.06    0.16
  -7 -25   3   -0.01    0.22
 -25   3  -7    0.16    0.32
  25   3   7   -0.18    0.15
  25   5  -7   -0.09    0.19
 -25   5   7   -0.29    0.41
   5  -7  25    0.16    0.43
 -25  -5  -7    0.06    0.40
  -5   7  25    0.06    0.42
  25  -5   7   -0.15    0.16
   7 -25   5    0.03    0.24
  -7 -25   5   -0.37    0.22
  25   5   7   -0.14    0.17
   5   7  25   -0.19    0.53
 -25  -5   7   -0.55    0.52
  25  -5  -7   -0.08    0.17
  -5  -7  25   -0.36    0.43
 -25   5  -7   -0.49    0.35
  -7   7  25   -0.14    0.38
 -25   7   7   -0.80    0.42
   7  -7  25   -0.11    0.40
   7  -7  25   -0.06    0.18
 -25  -7  -7   -0.47    0.41
   7 -25   7   -0.11    0.26
  25  -7   7   -0.21    0.14
  25   7  -7   -0.07    0.20
  25   7   7   -0.07    0.16
  25  -7  -7   -0.11    0.16
 -25   7  -7   -0.16    0.35
  -7 -25   7   -0.28    0.22
  -7  -7  25    0.12    0.50
 -25  -7   7   -0.10    0.52
   7   7  25   -0.55    0.43
   7 -25   9   -0.19    0.27
  -9   7  25    0.06    0.37
 -25   9   7    0.14    0.48
   9  -7  25   -0.02    0.17
  25  -9   7   -0.19    0.17
  25   9  -7   -0.13    0.19
 -25  -9  -7   -0.11    0.41
  25   9   7    0.03    0.17
  -9  -7  25    0.27    0.49
   9   7  25   -0.29    0.53
  25  -9  -7   -0.24    0.17
  -7 -25   9   -0.27    0.26
 -25  -9   7   -0.73    0.51
  25  11  -7   -0.32    0.20
  25 -11   7   -0.11    0.18
 -25 -11  -7    0.15    0.42
   7 -25  11    0.02    0.32
  11  -7  25   -0.05    0.19
 -25  11   7   -0.57    0.42
 -11   7  25    0.24    0.41
  25  11   7   -0.08    0.17
  25 -11  -7   -0.20    0.15
 -25 -11   7   -0.58    0.51
 -11  -7  25    0.12    0.44
  11   7  25   -0.30    0.47
  -7 -25  11    0.08    0.27
  25  13  -7   -0.41    0.22
 -13   7  25    0.44    0.40
 -25 -13  -7    0.23    0.42
  25 -13   7    0.01    0.20
  13  -7  25   -0.12    0.18
 -25  13   7   -0.19    0.40
   7 -25  13    0.04    0.31
  25  13   7   -0.13    0.18
  -7 -25  13   -0.40    0.27
 -25 -13   7   -0.94    0.59
  13   7  25   -0.72    0.47
 -13  -7  25   -0.29    0.41
 -25 -15  -7   -0.09    0.47
  15  -7  25    0.10    0.22
 -15   7  25    0.86    0.46
  25 -15   7    0.00    0.21
   7 -25  15   -0.12    0.35
  25  15  -7   -0.15    0.23
  15   7  25   -0.31    0.47
  25  15   7    0.17    0.21
 -25 -15   7   -0.68    0.57
 -15  -7  25    0.35    0.47
  -7 -25  15    0.21    0.31
 -25 -17  -7    0.36    0.47
  25  17  -7   -0.23    0.22
   7 -25  17    0.06    0.34
 -17   7  25    0.12    0.42
  25 -17   7    0.05    0.24
  17  -7  25   -0.17    0.20
  25  17   7   -0.17    0.22
  -7 -25  17   -0.19    0.26
 -25 -17   7   -0.83    0.60
  17   7  25   -0.51    0.47
 -17  -7  25    0.19    0.44
  25  19  -7   -0.40    0.29
   7 -25  19    0.15    0.40
  25 -19   7    0.05    0.28
  19  -7  25   -0.24    0.22
 -25 -19  -7   -0.72    0.40
 -19   7  25   -0.01    0.46
  19   7  25   -0.46    0.46
  -7 -25  19   -0.08    0.27
 -19  -7  25    0.12    0.50
  25  19   7   -0.22    0.19
 -25 -19   7   -1.38    0.58
 -25 -21  -7   -0.07    0.44
  21  -7  25   -0.21    0.22
   7 -25  21   -0.18    0.31
  25  21  -7   -0.18    0.28
 -21   7  25    0.76    0.46
  25 -21   7   -0.07    0.23
  21   7  25   -0.15    0.47
  25  21   7   -0.33    0.21
 -21  -7  25    0.80    0.55
  -7 -25  21   -0.07    0.32
  25 -23   7   -0.36    0.26
 -25 -23  -7   -0.22    0.46
  23  -7  25   -0.17    0.23
 -25  -1  -9    0.14    0.35
  -9 -25  -1   -0.07    0.20
   1  -9  25   -0.31    0.20
  25  -1   9   -0.04    0.17
  -1   9  25   -0.42    0.40
   9 -25   1   -0.15    0.21
  25   1  -9   -0.04    0.17
 -25   1   9    0.01    0.47
 -25  -1   9   -0.61    0.43
  25  -1  -9    0.03    0.17
  -1  -9  25   -0.27    0.48
   1   9  25    0.15    0.50
 -25   1  -9   -0.06    0.39
  -9 -25   1   -0.18    0.21
  -1  -9  25   -0.49    0.22
  25   1   9   -0.01    0.17
  25  -3   9   -0.06    0.16
   9 -25   3    0.02    0.23
 -25   3   9   -0.69    0.41
  25   3  -9   -0.06    0.17
 -25  -3  -9    0.25    0.38
   3  -9  25   -0.18    0.21
  -3   9  25   -0.38    0.40
   3   9  25    0.09    0.49
  -9 -25   3    0.05    0.23
  -3  -9  25    0.34    0.51
  -3  -9  25   -0.25    0.23
  25  -3  -9   -0.17    0.16
 -25  -3   9   -0.86    0.43
 -25   3  -9    0.24    0.38
  25   3   9   -0.15    0.17
   9 -25   5   -0.46    0.23
 -25   5   9   -0.07    0.48
 -25  -5  -9    0.15    0.38
  25   5  -9    0.00    0.20
  -5   9  25    0.08    0.42
  25  -5   9   -0.06    0.18
   5  -9  25    0.02    0.22
  25  -5  -9   -0.16    0.16
  -9 -25   5   -0.07    0.25
  25   5   9   -0.01    0.17
  -5  -9  25    0.23    0.49
 -25  -5   9    0.15    0.56
   5   9  25   -0.20    0.49
 -25   5  -9   -0.36    0.36
 -25   7   9   -0.44    0.44
   9 -25   7   -0.07    0.26
   7  -9  25   -0.09    0.22
  25  -7   9   -0.07    0.17
  25   7  -9   -0.15    0.18
 -25  -7  -9    0.11    0.37
  -7   9  25   -0.09    0.37
   7   9  25   -0.02    0.51
  -7  -9  25   -0.11    0.47
 -25  -7   9   -0.49    0.55
 -25   7  -9   -0.08    0.35
  25   7   9   -0.11    0.16
  -9 -25   7   -0.09    0.23
  25  -7  -9   -0.12    0.17
   9 -25   9   -0.21    0.26
 -25  -9  -9    0.29    0.39
  -9   9  25   -0.19    0.34
 -25   9   9   -0.19    0.47
  25  -9   9   -0.12    0.16
  25   9  -9   -0.26    0.19
   9  -9  25   -0.03    0.21
  -9  -9  25    0.21    0.50
  25  -9  -9   -0.13    0.15
  -9 -25   9   -0.19    0.26
   9   9  25   -0.46    0.50
  25   9   9   -0.20    0.17
 -25  -9   9   -0.76    0.60
   9 -25  11    0.04    0.29
  11  -9  25   -0.11    0.22
  25 -11   9   -0.15    0.19
 -11   9  25   -0.25    0.39
 -25  11   9   -0.60    0.47
 -25 -11  -9   -0.10    0.37
  25  11  -9   -0.07    0.23
  25  11   9   -0.27    0.17
  11   9  25   -0.39    0.46
 -11  -9  25    0.20    0.45
 -25 -11   9   -0.88    0.51
  -9 -25  11    0.11    0.28
  25 -13   9   -0.03    0.21
  13  -9  25   -0.25    0.21
 -13   9  25    0.10    0.40
 -25  13   9   -0.69    0.43
  25  13  -9   -0.19    0.25
 -25 -13  -9    0.14    0.41
   9 -25  13   -0.51    0.28
  -9 -25  13   -0.09    0.30
 -25 -13   9   -1.06    0.56
  13   9  25   -0.90    0.42
  25  13   9   -0.20    0.18
 -13  -9  25    0.21    0.44
 -15   9  25    0.55    0.43
  25 -15   9   -0.09    0.22
   9 -25  15   -0.49    0.27
  25  15  -9   -0.28    0.23
  15  -9  25   -0.13    0.25
  15   9  25   -0.55    0.46
  25  15   9   -0.11    0.20
  -9 -25  15    0.23    0.31
 -15  -9  25    0.33    0.46
 -25 -15   9   -0.58    0.60
  25  17  -9    0.08    0.28
   9 -25  17   -0.33    0.33
 -25 -17  -9   -0.06    0.45
 -17   9  25    0.39    0.42
  17  -9  25   -0.24    0.23
  25 -17   9   -0.03    0.25
 -17  -9  25    0.75    0.51
  -9 -25  17   -0.26    0.24
  17   9  25   -0.24    0.53
  25  17   9   -0.42    0.20
 -25 -17   9   -1.23    0.66
 -19   9  25    0.25    0.44
  25 -19   9   -0.47    0.21
 -25 -19  -9   -0.78    0.43
  25  19  -9   -0.31    0.26
   9 -25  19   -0.35    0.30
  19  -9  25   -0.31    0.22
 -19  -9  25    0.01    0.51
  -9 -25  19   -0.20    0.28
  19   9  25   -0.39    0.47
   9 -25  21   -0.49    0.33
 -25 -21  -9    0.14    0.44
  21  -9  25   -0.22    0.24
 -21   9  25    0.54    0.41
  25 -21   9   -0.31    0.26
 -21  -9  25    0.46    0.52
  -9 -25  21   -0.41    0.26
  21   9  25   -0.50    0.50
  11 -25   1   -0.19    0.21
   1 -11  25   -0.11    0.25
  -1  11  25   -0.03    0.48
  25  -1  11   -0.31    0.18
 -11 -25  -1   -0.03    0.22
 -25   1  11   -0.24    0.51
  25   1 -11   -0.18    0.17
 -25   1 -11   -0.18    0.31
  25  -1 -11   -0.07    0.19
   1  11  25   -0.11    0.49
  25   1  11   -0.11    0.17
 -11 -25   1   -0.08    0.24
 -25  -1  11   -0.26    0.51
  -1 -11  25   -0.15    0.24
  -3  11  25   -0.27    0.39
   3 -11  25   -0.20    0.24
  11 -25   3   -0.08    0.22
  25   3 -11   -0.06    0.17
 -25   3  11   -0.41    0.50
  25  -3  11   -0.23    0.15
 -11 -25  -3   -0.38    0.19
 -11 -25   3    0.26    0.25
  25   3  11   -0.03    0.18
  25  -3 -11   -0.10    0.17
 -25  -3  11   -0.70    0.47
 -25   3 -11    0.00    0.36
  -3 -11  25   -0.21    0.25
   3  11  25   -0.07    0.49
  25   5 -11   -0.09    0.18
  11 -25   5    0.04    0.27
  -5  11  25    0.02    0.39
   5 -11  25   -0.01    0.24
  25  -5  11   -0.04    0.20
 -25   5  11   -0.71    0.45
   5  11  25   -0.61    0.44
  25  -5 -11   -0.15    0.16
 -25  -5  11   -0.61    0.62
  -5 -11  25   -0.10    0.25
 -25   5 -11    0.26    0.39
 -11 -25   5   -0.27    0.22
  25   5  11    0.01    0.19
  25  -7  11   -0.08    0.17
  25   7 -11   -0.18    0.20
  -7  11  25   -0.20    0.32
   7 -11  25   -0.25    0.22
 -25   7  11   -0.82    0.49
  11 -25   7   -0.22    0.24
  -7 -11  25    0.07    0.28
 -25   7 -11    0.01    0.37
 -25  -7  11   -0.22    0.60
  25   7  11   -0.24    0.17
 -11 -25   7    0.13    0.28
   7  11  25   -0.48    0.42
 -25   9  11   -0.96    0.44
   9 -11  25    0.06    0.23
  -9  11  25   -0.18    0.39
  25  -9  11   -0.19    0.19
  11 -25   9   -0.23    0.25
 -25  -9  11   -0.47    0.59
  -9 -11  25   -0.28    0.22
 -11 -25   9   -0.07    0.27
  25   9  11   -0.20    0.16
   9  11  25   -0.82    0.43
  11 -11  25   -0.17    0.24
 -25  11  11   -0.78    0.44
  25  11 -11   -0.06    0.25
  25 -11  11   -0.23    0.19
 -11  11  25    0.00    0.42
  11 -25  11   -0.24    0.24
 -25 -11  11   -0.65    0.59
 -11 -11  25    0.05    0.25
 -11 -11  25   -0.44    0.47
  25  11  11   -0.10    0.19
  11  11  25   -0.82    0.42
 -11 -25  11   -0.24    0.28
  11 -25  13   -0.32    0.29
 -25  13  11   -0.04    0.41
  25 -13  11   -0.01    0.21
  13 -11  25   -0.23    0.24
  25  13 -11   -0.22    0.25
 -13  11  25    0.32    0.42
 -13 -11  25    0.39    0.47
  25  13  11   -0.12    0.17
 -11 -25  13   -0.16    0.31
 -25 -13  11   -0.57    0.75
  13  11  25   -0.43    0.45
  25  15 -11   -0.04    0.27
 -15  11  25    0.91    0.48
  25 -15  11   -0.05    0.23
  11 -25  15   -0.06    0.34
  15 -11  25    0.17    0.28
  15  11  25    0.00    0.46
 -25 -15  11    0.17    0.73
 -15 -11  25    0.66    0.53
 -11 -25  15    0.43    0.35
  25  15  11    0.31    0.23
  11 -25  17   -0.34    0.32
  25 -17  11   -0.42    0.20
  25  17 -11   -0.41    0.27
 -17  11  25    0.06    0.41
  17 -11  25   -0.37    0.23
  17  11  25    0.10    0.49
 -17 -11  25    0.12    0.51
 -11 -25  17   -0.25    0.29
 -25 -17  11   -0.71    0.68
  11 -25  19   -0.27    0.33
  19 -11  25   -0.08    0.24
  25  19 -11   -0.23    0.27
 -19  11  25    0.40    0.42
  25 -19  11   -0.44    0.24
 -19 -11  25    1.25    0.63
 -11 -25  19   -0.01    0.32
  19  11  25   -0.23    0.49
  21 -11  25   -0.40    0.25
  25 -21  11   -0.24    0.25
 -25 -21 -11    0.52    0.42
 -21 -11  25    0.21    0.53
  25   1 -13   -0.06    0.18
   1 -13  25   -0.30    0.24
 -13 -25  -1   -0.14    0.22
  25  -1  13   -0.20    0.17
 -25   1  13   -0.93    0.50
  -1  13  25   -0.58    0.42
  13 -25   1   -0.44    0.22
 -25  -1  13   -0.88    0.46
   1  13  25    0.00    0.47
  25   1  13   -0.05    0.17
 -13 -25   1   -0.31    0.22
  -1 -13  25   -0.56    0.26
  25  -1 -13   -0.20    0.16
   3 -13  25   -0.13    0.26
  25  -3  13   -0.17    0.16
 -25   3  13   -0.80    0.52
 -13 -25  -3   -0.24    0.22
  -3  13  25   -0.22    0.46
  25   3 -13   -0.15    0.18
  13 -25   3   -0.23    0.25
 -13 -25   3   -0.10    0.23
  25  -3 -13   -0.21    0.17
   3  13  25   -0.20    0.45
  25   3  13   -0.21    0.16
 -25  -3  13   -0.20    0.54
  25   3  13   -0.52    0.34
  -3 -13  25   -0.52    0.27
  13 -25   5   -0.49    0.22
   5 -13  25   -0.35    0.24
 -25   5  13   -0.18    0.53
  -5  13  25   -0.30    0.42
  25   5 -13   -0.05    0.21
  25   5  13   -0.19    0.17
 -25  -5  13    0.22    0.64
 -25   5 -13    0.23    0.38
  -5 -13  25   -0.32    0.27
  25   5  13   -0.09    0.41
 -13 -25   5   -0.10    0.24
   5  13  25   -0.43    0.44
   7 -13  25    0.05    0.27
  25   7 -13   -0.30    0.22
  -7  13  25   -0.52    0.37
  25  -7  13   -0.16    0.18
 -25   7  13   -0.51    0.46
  13 -25   7   -0.33    0.28
 -13 -25   7    0.02    0.27
  -7 -13  25   -0.10    0.30
  25   7  13   -0.09    0.19
  25   7  13   -0.55    0.40
 -25  -7  13   -0.26    0.56
   7  13  25    0.06    0.54
  25   9 -13   -0.21    0.25
  13 -25   9   -0.50    0.28
   9 -13  25   -0.43    0.25
  -9  13  25   -0.35    0.35
 -25   9  13   -0.43    0.44
  25  -9  13   -0.20    0.16
   9  13  25   -0.31    0.50
 -13 -25   9   -0.23    0.28
  -9 -13  25   -0.27    0.31
 -25  -9  13   -1.22    0.66
  25   9  13   -0.15    0.17
  25   9  13   -0.33    0.40
  25 -11  13    0.08    0.20
 -25  11  13   -0.19    0.46
  11 -13  25   -0.45    0.24
  25  11 -13   -0.04    0.23
 -11  13  25    0.07    0.37
  25  11  13   -0.21    0.42
  25  11  13   -0.16    0.19
  11  13  25   -0.65    0.47
 -25 -11  13   -0.71    0.61
 -11 -13  25   -0.34    0.27
 -13 -25  11    0.06    0.32
  25 -13  13   -0.08    0.19
  13 -25  13   -0.54    0.30
 -25  13  13    0.26    0.44
  13 -13  25   -0.40    0.25
 -13  13  25    0.31    0.40
  25  13 -13    0.03    0.26
  25  13  13   -0.27    0.42
  13  13  25   -0.27    0.48
  25  13  13   -0.18    0.17
 -13 -13  25   -0.22    0.27
 -13 -25  13    0.06    0.32
 -25 -13  13   -0.74    0.64
  15 -13  25   -0.14    0.27
  25 -15  13   -0.17    0.25
  25  15 -13   -0.17    0.28
 -15  13  25    0.09    0.39
  13 -25  15   -0.70    0.30
 -13 -25  15    0.20    0.34
  15  13  25   -0.15    0.55
 -25 -15  13   -0.76    0.65
 -15 -13  25    0.06    0.30
  25  15  13   -0.44    0.40
  25  17 -13   -0.15    0.29
 -17  13  25    0.30    0.45
  13 -25  17   -0.64    0.33
  17 -13  25   -0.51    0.26
  25 -17  13   -0.37    0.23
  25  17  13   -0.32    0.43
  17  13  25   -0.16    0.48
 -17 -13  25   -0.05    0.37
 -25 -17  13   -1.20    0.75
 -13 -25  17   -0.08    0.30
  19 -13  25   -0.42    0.25
 -19  13  25    0.89    0.43
  25 -19  13   -0.22    0.27
 -25   1  15    0.11    0.53
   1 -15  25   -0.27    0.31
  25  -1  15   -0.11    0.43
 -15 -25  -1    0.36    0.28
  25   1 -15    0.11    0.22
  25  -1  15   -0.09    0.21
  -1  15  25    0.40    0.54
  -1 -15  25   -0.14    0.31
  25   1  15    0.46    0.24
   1  15  25    0.21    0.50
  25   1  15    0.40    0.43
 -15 -25   1   -0.33    0.25
 -25  -1  15   -0.81    0.50
 -15 -25  -3   -0.38    0.23
   3 -15  25   -0.56    0.26
 -25   3  15   -0.77    0.50
  25   3 -15   -0.06    0.22
  -3  15  25    0.22    0.53
  25  -3  15   -0.03    0.19
  15 -25   3   -0.26    0.24
   3  15  25   -0.23    0.45
  25   3  15   -0.27    0.39
  -3 -15  25   -0.19    0.30
 -25  -3  15   -0.67    0.60
  25   3  15   -0.18    0.16
 -15 -25   3    0.01    0.26
  25   5 -15   -0.41    0.21
  -5  15  25    0.35    0.47
 -25   5  15   -0.33    0.46
  15 -25   5   -0.18    0.27
   5 -15  25   -0.13    0.30
  25  -5  15   -0.17    0.17
  25   5  15    0.15    0.44
 -15 -25   5   -0.12    0.26
   5  15  25   -0.22    0.53
  25   5  15   -0.12    0.17
 -25  -5  15   -1.21    0.58
  -5 -15  25    0.06    0.31
  15 -25   7   -0.25    0.29
  -7  15  25   -0.02    0.40
  25  -7  15   -0.08    0.19
   7 -15  25   -0.17    0.27
 -25   7  15    0.36    0.52
  25   7 -15   -0.25    0.21
   7  15  25   -0.21    0.43
  -7 -15  25   -0.27    0.26
  25   7  15    0.00    0.19
 -25  -7  15   -0.44    0.59
 -15 -25   7    0.32    0.30
  25   7  15    0.04    0.47
  25  -9  15    0.08    0.23
  -9  15  25    0.12    0.39
   9 -15  25   -0.38    0.26
  25   9 -15   -0.26    0.26
 -25   9  15   -0.15    0.44
  15 -25   9   -0.53    0.28
  -9 -15  25   -0.10    0.28
  25   9  15   -0.19    0.40
  25   9  15    0.01    0.18
 -25  -9  15   -0.01    0.70
 -15 -25   9   -0.05    0.31
   9  15  25   -0.49    0.51
 -11  15  25    0.84    0.46
  25 -11  15    0.12    0.27
  25  11 -15    0.29    0.31
  11 -15  25    0.09    0.32
  15 -25  11   -0.36    0.30
 -25  11  15    0.58    0.48
 -25 -11  15    0.12    0.81
 -11 -15  25    0.14    0.33
 -15 -25  11   -0.03    0.27
  25  11  15    0.71    0.52
  11  15  25    0.23    0.56
 -25  13  15    0.27    0.40
  25  13 -15   -0.07    0.29
 -13  15  25    0.17    0.39
  25 -13  15   -0.09    0.24
  13 -15  25    0.00    0.29
  15 -25  13   -0.37    0.35
 -25 -13  15   -1.06    0.68
 -15 -25  13   -0.29    0.27
 -13 -15  25   -0.17    0.26
  25  13  15   -0.36    0.39
  13  15  25   -0.28    0.48
  25  15 -15   -0.33    0.29
  25 -15  15   -0.22    0.23
  15 -15  25   -0.23    0.28
  15 -25  15   -0.47    0.33
 -15  15  25    0.21    0.40
 -25  15  15    0.29    0.41
  15  15  25   -0.11    0.50
 -25 -15  15   -0.06    0.80
 -15 -15  25    0.04    0.32
 -15 -25  15   -0.11    0.32
 -17  15  25    0.78    0.44
  25 -17  15    0.00    0.26
  17 -15  25   -0.19    0.31
  15 -25  17   -0.19    0.31
 -15 -25  17   -0.06    0.29
  17  15  25   -0.71    0.40
 -17 -15  25    0.22    0.35
  25  17  15   -0.31    0.37
 -19 -15  25   -0.06    0.30
   1 -17  25   -0.38    0.32
  25  -1  17   -0.24    0.33
  -1  17  25   -0.15    0.50
  25  -1  17   -0.23    0.18
 -17 -25  -1    0.03    0.25
 -25   1  17   -0.28    0.50
   1  17  25   -0.13    0.44
  25   1  17   -0.20    0.18
 -25  -1  17   -0.32    0.54
  25   1  17    0.28    0.45
 -17 -25   1   -0.23    0.24
  -1 -17  25   -0.45    0.35
  25  -3  17   -0.24    0.18
  17 -25   3   -0.16    0.25
 -25   3  17   -0.41    0.49
  -3  17  25    0.08    0.49
   3 -17  25   -0.17    0.30
  25   3 -17   -0.31    0.22
  25  -3  17   -0.07    0.37
 -17 -25  -3   -0.16    0.24
   3  17  25    0.01    0.44
  25   3  17    0.13    0.43
 -25  -3  17   -0.39    0.54
  25   3  17   -0.05    0.19
  -3 -17  25   -0.52    0.34
 -17 -25   3   -0.06    0.27
  25   5 -17   -0.37    0.25
  17 -25   5   -0.41    0.23
  25  -5  17   -0.17    0.18
  -5  17  25    0.39    0.46
   5 -17  25   -0.42    0.30
 -25   5  17   -0.17    0.44
  25   5  17   -0.09    0.41
  -5 -17  25   -0.62    0.29
 -25  -5  17   -0.75    0.57
  25   5  17   -0.20    0.18
   5  17  25    0.11    0.52
 -17 -25   5   -0.53    0.27
   7 -17  25   -0.06    0.34
  25   7 -17   -0.04    0.24
  -7  17  25    0.41    0.45
 -25   7  17   -0.34    0.40
  25  -7  17   -0.16    0.20
  17 -25   7   -0.33    0.24
  25   7  17   -0.20    0.40
 -25  -7  17   -0.77    0.68
   7  17  25   -0.13    0.51
  -7 -17  25   -0.28    0.32
 -17 -25   7   -0.40    0.28
  25   7  17   -0.29    0.17
  25  -9  17   -0.17    0.19
 -25   9  17    0.48    0.46
  17 -25   9   -0.36    0.28
  25   9 -17    0.00    0.27
   9 -17  25   -0.30    0.34
  -9  17  25   -0.20    0.39
 -17 -25   9   -0.66    0.28
 -25  -9  17   -1.12    0.66
  25   9  17   -0.05    0.43
  -9 -17  25    0.17    0.35
   9  17  25   -0.41    0.49
  17 -25  11   -0.49    0.28
  25  11 -17   -0.24    0.26
  11 -17  25   -0.13    0.31
  25 -11  17   -0.09    0.22
 -11  17  25   -0.12    0.38
 -25  11  17    0.28    0.47
 -17 -25  11   -0.23    0.28
  11  17  25   -0.52    0.49
 -11 -17  25   -0.38    0.32
 -25 -11  17   -0.60    0.66
  25  11  17   -0.26    0.41
 -13  17  25    0.33    0.42
  25  13 -17   -0.41    0.24
 -25  13  17    0.40    0.47
  13 -17  25   -0.55    0.32
  17 -25  13   -0.40    0.28
  25 -13  17   -0.20    0.22
  13  17  25   -0.41    0.50
 -17 -25  13   -0.66    0.30
 -25 -13  17   -1.22    0.65
 -13 -17  25   -0.30    0.31
  25  13  17   -0.14    0.41
  15 -17  25   -0.51    0.24
 -25  15  17    0.52    0.40
 -15  17  25    0.43    0.47
  17 -25  15   -0.46    0.30
  25 -15  17   -0.12    0.28
  15  17  25   -0.54    0.41
 -17 -25  15   -0.04    0.32
 -15 -17  25    0.02    0.38
 -25 -15  17   -0.43    0.71
  25  15  17   -0.16    0.44
 -17  17  25    0.50    0.39
 -17 -17  25   -0.07    0.32
   1 -19  25   -0.56    0.32
  -1  19  25   -0.02    0.48
  25  -1  19   -0.24    0.38
  25  -1  19   -0.25    0.19
 -25   1  19    0.22    0.53
 -25  -1  19   -0.08    0.56
 -19 -25   1   -0.23    0.24
   1  19  25    0.00    0.52
  25   1  19   -0.20    0.19
  -1 -19  25   -0.44    0.32
  25   1  19   -0.02    0.44
  25  -3  19   -0.04    0.21
  25  -3  19   -0.05    0.40
   3 -19  25   -0.46    0.33
  -3  19  25    0.02    0.46
 -25   3  19    0.35    0.54
  19 -25   3   -0.23    0.24
 -25  -3  19   -0.13    0.59
  -3 -19  25   -0.02    0.32
   3  19  25    0.21    0.52
  25   3  19   -0.17    0.19
  25   3  19   -0.48    0.42
 -19 -25   3    0.08    0.28
  19 -25   5   -0.19    0.27
   5 -19  25   -0.56    0.30
  25  -5  19   -0.11    0.20
 -25   5  19   -0.15    0.46
  -5  19  25    0.32    0.48
  25   5  19   -0.12    0.46
   5  19  25   -0.37    0.49
  -5 -19  25   -0.15    0.34
 -25  -5  19   -0.36    0.60
 -19 -25   5   -0.39    0.29
  -7  19  25    0.14    0.46
  25  -7  19   -0.32    0.20
  25   7 -19   -0.33    0.26
   7 -19  25   -0.49    0.32
 -25   7  19   -0.19    0.46
  19 -25   7   -0.21    0.28
  -7 -19  25   -0.18    0.31
 -25  -7  19   -0.66    0.61
  25   7  19   -0.13    0.46
   7  19  25   -0.26    0.47
 -19 -25   7   -0.02    0.30
 -25   9  19   -0.03    0.48
  19 -25   9   -0.29    0.28
  -9  19  25    0.78    0.49
  25  -9  19   -0.17    0.22
  25   9 -19   -0.13    0.27
   9 -19  25   -0.22    0.35
  -9 -19  25   -0.25    0.31
 -19 -25   9   -0.30    0.26
 -25  -9  19   -1.05    0.61
  25   9  19   -0.06    0.46
   9  19  25   -0.61    0.49
  25 -11  19   -0.28    0.21
 -25  11  19    0.37    0.48
  19 -25  11   -0.19    0.32
  11 -19  25   -0.02    0.35
 -11  19  25    0.25    0.43
 -25 -11  19    0.17    0.68
  11  19  25   -0.10    0.49
 -11 -19  25   -0.37    0.31
 -19 -25  11   -0.06    0.29
  25  11  19   -0.53    0.41
  25 -13  19   -0.35    0.21
  19 -25  13   -0.33    0.30
  13 -19  25   -0.03    0.30
 -25  13  19    0.74    0.48
 -13  19  25    0.96    0.47
  13  19  25    0.34    0.49
 -13 -19  25    0.29    0.37
  25  13  19   -0.19    0.39
 -25 -13  19   -0.73    0.70
 -25  15  19    0.73    0.39
 -25 -15  19   -0.63    0.67
 -15 -19  25    0.17    0.35
 -25   1  21    0.07    0.51
  -1  21  25    0.25    0.51
   1 -21  25   -0.12    0.34
  25  -1  21   -0.22    0.37
  25  -1  21    0.03    0.21
  -1 -21  25   -0.40    0.35
   1  21  25   -0.35    0.49
  25   1  21    0.01    0.21
 -25  -1  21    0.21    0.54
  25   1  21   -0.52    0.34
  25  -3  21    0.07    0.23
 -25   3  21    0.47    0.53
  -3  21  25    0.11    0.53
  21 -25   3   -0.26    0.25
   3 -21  25    0.02    0.39
  25  -3  21   -0.20    0.40
   3  21  25   -0.25    0.49
 -21 -25   3    0.18    0.31
  25   3  21   -0.39    0.40
 -25  -3  21    0.72    0.62
  -3 -21  25   -0.42    0.36
  -5  21  25   -0.02    0.53
 -25   5  21    0.84    0.53
  21 -25   5   -0.13    0.30
  25  -5  21    0.00    0.22
   5 -21  25   -0.13    0.39
  -5 -21  25   -0.42    0.36
 -21 -25   5   -0.29    0.25
 -25  -5  21    0.12    0.61
  25   5  21   -0.08    0.43
   5  21  25   -0.03    0.47
  -7  21  25   -0.21    0.42
  25  -7  21   -0.33    0.20
 -25   7  21    0.90    0.49
   7 -21  25   -0.24    0.32
  21 -25   7   -0.27    0.29
   7  21  25   -0.17    0.54
  -7 -21  25    0.15    0.37
 -25  -7  21   -0.48    0.61
  25   7  21    0.02    0.49
 -21 -25   7   -0.17    0.29
  21 -25   9   -0.40    0.29
   9 -21  25   -0.70    0.28
  25  -9  21   -0.24    0.19
  -9  21  25    0.63    0.46
 -25   9  21    0.46    0.41
 -25  -9  21   -0.08    0.69
 -21 -25   9   -0.30    0.31
  25   9  21   -0.50    0.42
   9  21  25    0.08    0.53
  -9 -21  25   -0.03    0.37
 -25  11  21    0.50    0.40
  21 -25  11   -0.52    0.26
  11  21  25    0.14    0.56
 -11 -21  25   -0.60    0.34
 -25 -11  21   -0.18    0.30
 -25 -11  21   -0.28    0.58
  25  -1  23   -0.01    0.48
  -1  23  25    0.16    0.48
   1 -23  25   -0.27    0.34
  25   1  23   -0.66    0.41
   1  23  25    0.31    0.55
  -1 -23  25   -0.29    0.31
   3 -23  25   -0.37    0.31
  25  -3  23   -0.42    0.20
  25  -3  23   -0.59    0.36
  -3 -23  25    0.31    0.39
   3  23  25    0.12    0.52
  25   3  23   -0.60    0.38
  23  25   3    0.04    0.31
  25  -5  23   -0.26    0.20
  23 -25   5   -0.29    0.26
  25   5  23   -0.50    0.46
   5  23  25   -0.01    0.46
 -23 -25   5   -0.23    0.29
  23 -25   7   -0.24    0.25
  25  -7  23   -0.14    0.24
   7  23  25    0.42    0.52
 -26   0   0   -0.54    0.37
   0 -26   0    0.05    0.21
   0   0  26    0.22    0.51
  26   0   0    0.12    0.18
   2   0  26   -0.17    0.47
  26  -2   0   -0.03    0.17
  26   2   0   -0.21    0.16
   0 -26   2   -0.19    0.20
 -26   2   0   -0.21    0.43
  -2   0  26   -0.13    0.47
 -26  -2   0   -0.44    0.43
 -26  -4   0   -0.26    0.43
  26   4   0    0.10    0.18
 -26   4   0   -0.50    0.37
  -4   0  26    0.17    0.48
  26  -4   0    0.07    0.17
   0 -26   4    0.15    0.24
   4   0  26   -0.04    0.56
   6   0  26   -0.26    0.48
 -26   6   0   -0.34    0.41
  -6   0  26   -0.58    0.40
   0 -26   6   -0.26    0.21
  26   6   0   -0.07    0.16
  26  -6   0   -0.19    0.14
 -26  -6   0   -0.66    0.44
   8   0  26   -0.14    0.47
  26   8   0   -0.09    0.17
 -26  -8   0   -0.05    0.44
  26  -8   0   -0.09    0.16
   0 -26   8   -0.14    0.25
  -8   0  26    0.27    0.48
 -26   8   0   -0.58    0.41
 -10   0  26    0.63    0.51
  26  10   0    0.49    0.24
  10   0  26    0.61    0.55
   0 -26  10    0.13    0.29
  26 -10   0    0.49    0.24
 -26  10   0    0.09    0.46
 -26 -10   0    0.73    0.61
 -12   0  26    0.78    0.51
  26  12   0   -0.25    0.18
  26 -12   0   -0.10    0.17
   0 -26  12    0.07    0.28
  12   0  26   -0.17    0.41
 -26 -12   0   -0.14    0.50
   0 -26  14    0.48    0.34
  26  14   0   -0.19    0.23
 -14   0  26    0.63    0.49
  14   0  26   -0.27    0.53
 -26 -14   0   -0.45    0.55
  26 -14   0    0.07    0.19
   0 -26  16    0.13    0.32
  16   0  26    0.04    0.47
  26 -16   0   -0.01    0.21
 -16   0  26   -0.23    0.42
  26  16   0   -0.19    0.23
 -26 -16   0   -0.52    0.50
   0 -26  18    0.12    0.33
  26  18   0   -0.15    0.23
 -18   0  26    0.35    0.52
  18   0  26    0.06    0.51
  26 -18   0   -0.25    0.22
 -26 -18   0    0.03    0.59
  20   0  26   -0.64    0.47
 -20   0  26    0.74    0.47
 -26 -20   0   -0.35    0.49
  26  20   0   -0.10    0.27
   0 -26  20    0.17    0.35
  26 -20   0   -0.28    0.23
  26  22   0   -0.11    0.25
  22   0  26    0.02    0.48
  26   0   2    0.05    0.16
  -2 -26   0    0.02    0.19
  26   0  -2   -0.09    0.17
 -26   0   2   -0.29    0.44
   0   2  26   -0.29    0.45
 -26   0  -2   -0.28    0.37
   2 -26   0    0.10    0.22
   0  -2  26    0.02    0.48
   2  -2  26    6.51    1.11
  26   2  -2    6.14    0.70
 -26  -2  -2    6.35    0.96
  26  -2   2    5.33    0.68
  -2   2  26    6.29    1.05
 -26   2   2    7.62    0.99
  -2 -26   2    6.69    0.82
  -2  -2  26    4.88    0.96
  26   2   2    5.54    0.67
 -26  -2   2    5.56    0.89
  26  -2  -2    6.18    0.70
   2   2  26    5.99    1.09
 -26   2  -2    4.85    0.79
  -4   2  26    0.14    0.53
   2 -26   4    0.34    0.26
 -26   4   2    0.24    0.48
  26  -4   2    0.26    0.21
  26   4  -2    0.62    0.24
   4  -2  26    0.64    0.59
 -26  -4  -2    0.70    0.51
   4   2  26    0.65    0.58
  26   4   2    0.38    0.22
  -4  -2  26    0.55    0.59
  26  -4  -2    0.43    0.21
 -26  -4   2    0.50    0.51
 -26   4  -2    0.52    0.44
  -2 -26   4    0.33    0.27
 -26  -6  -2    1.78    0.69
   2 -26   6    1.53    0.38
   6  -2  26    3.55    0.84
  26  -6   2    1.67    0.33
  26   6  -2    1.81    0.33
 -26   6   2    2.05    0.57
  -6   2  26    2.30    0.69
   6   2  26    2.17    0.77
  -2 -26   6    1.72    0.40
 -26  -6   2    2.63    0.73
 -26   6  -2    2.78    0.62
  26   6   2    1.60    0.32
  -6  -2  26    3.44    0.80
  26  -6  -2    1.70    0.31
   2 -26   8   -0.12    0.24
 -26  -8  -2    0.03    0.46
  -8   2  26    0.34    0.50
   8  -2  26   -0.02    0.49
  26  -8   2   -0.07    0.19
 -26   8   2   -0.23    0.44
  26   8  -2    0.11    0.18
  26   8   2    0.23    0.20
 -26  -8   2    0.01    0.49
 -26   8  -2   -0.15    0.41
  26  -8  -2   -0.01    0.16
   8   2  26    0.16    0.56
  -8  -2  26   -0.36    0.36
  -2 -26   8    0.14    0.26
  10  -2  26    2.30    0.74
  26 -10   2    1.24    0.30
 -26 -10  -2    3.17    0.78
   2 -26  10    2.05    0.47
 -10   2  26    3.21    0.72
 -26  10   2    2.64    0.66
  26  10  -2    1.59    0.34
 -26  10  -2    2.41    0.61
 -26 -10   2    2.54    0.81
  26 -10  -2    1.97    0.34
  26  10   2    1.72    0.33
  10   2  26    2.55    0.78
 -10  -2  26    2.43    0.67
  -2 -26  10    2.12    0.45
 -12   2  26    0.45    0.47
  12  -2  26   -0.47    0.47
  26 -12   2    0.18    0.22
 -26 -12  -2    0.47    0.55
   2 -26  12   -0.03    0.27
  26  12  -2   -0.26    0.21
 -26 -12   2    0.01    0.58
 -12  -2  26    0.21    0.44
  12   2  26   -0.11    0.47
  26  12   2    0.23    0.21
  26 -12  -2   -0.10    0.19
  -2 -26  12    0.27    0.29
 -26 -14  -2    1.83    0.75
  26 -14   2    1.81    0.37
   2 -26  14    1.53    0.45
  26  14  -2    0.91    0.32
  14  -2  26    1.41    0.59
 -14   2  26    1.90    0.62
 -26 -14   2    2.42    0.84
  -2 -26  14    1.44    0.42
  26  14   2    0.93    0.31
  14   2  26    1.60    0.67
  26 -14  -2    1.27    0.31
 -14  -2  26    2.88    0.73
  26  16  -2   -0.07    0.23
 -16   2  26    0.22    0.48
   2 -26  16    0.10    0.36
  26 -16   2   -0.18    0.21
 -26 -16  -2    0.29    0.54
  16  -2  26   -0.03    0.39
  -2 -26  16    0.07    0.33
 -16  -2  26    0.37    0.55
  16   2  26    0.00    0.48
  26 -16  -2   -0.15    0.20
 -26 -16   2    0.01    0.60
  26  16   2   -0.13    0.22
  18  -2  26    0.64    0.49
 -26 -18  -2    0.44    0.63
  26  18  -2    0.13    0.29
 -18   2  26    1.52    0.60
  26 -18   2    0.08    0.28
   2 -26  18    0.73    0.42
  18   2  26    1.66    0.67
 -18  -2  26    0.65    0.60
 -26 -18   2    0.67    0.66
  26 -18  -2    0.22    0.28
  -2 -26  18    0.97    0.41
  26  18   2    0.35    0.28
  20  -2  26   -0.61    0.43
 -20   2  26    0.47    0.46
  26  20  -2   -0.20    0.24
 -26 -20  -2   -0.10    0.50
   2 -26  20   -0.24    0.32
  26 -20   2   -0.29    0.23
 -20  -2  26    0.79    0.49
  26  20   2   -0.21    0.25
  -2 -26  20   -0.05    0.30
 -26 -20   2   -0.54    0.53
  20   2  26   -0.14    0.45
  22  -2  26    1.30    0.62
  26  22  -2    0.37    0.34
  26 -22   2    0.41    0.35
  22   2  26    1.36    0.64
  26  22   2    0.59    0.33
  -4 -26   0   -0.07    0.19
 -26   0  -4    0.24    0.42
   0  -4  26    0.52    0.52
   0   4  26   -0.50    0.41
 -26   0   4   -0.22    0.42
  26   0  -4   -0.11    0.16
  26   0   4   -0.12    0.14
   4 -26   0    0.08    0.22
 -26  -2  -4    0.58    0.49
  26   2  -4    0.50    0.21
 -26   2   4    0.40    0.53
  -2   4  26    0.17    0.50
  26  -2   4    0.30    0.21
   4 -26   2    0.37    0.26
   2  -4  26    0.49    0.59
  26   2   4    0.43    0.23
   2   4  26    0.71    0.62
 -26  -2   4    0.40    0.54
  -2  -4  26    0.38    0.46
 -26   2  -4    0.88    0.48
  26  -2  -4    0.15    0.20
  -4 -26   2    0.20    0.27
   4  -4  26    0.22    0.51
  -4   4  26   -0.04    0.42
  26  -4   4   -0.18    0.15
  26   4  -4   -0.02    0.17
 -26   4   4   -0.03    0.44
   4 -26   4   -0.15    0.19
 -26  -4  -4    0.18    0.44
 -26   4  -4    0.01    0.38
 -26  -4   4   -0.58    0.42
  -4 -26   4   -0.16    0.22
  -4  -4  26   -0.02    0.45
  26   4   4    0.02    0.17
  26  -4  -4   -0.06    0.17
   4   4  26    0.01    0.55
   6  -4  26    1.16    0.57
  26   6  -4    0.67    0.24
   4 -26   6    0.68    0.31
  26  -6   4    0.58    0.23
  -6   4  26    0.97    0.55
 -26   6   4    1.04    0.55
 -26  -6  -4    0.62    0.51
  26  -6  -4    0.74    0.24
  -4 -26   6    0.70    0.33
 -26  -6   4    0.27    0.57
   6   4  26    1.11    0.65
  -6  -4  26    1.53    0.63
  26   6   4    0.85    0.25
 -26   6  -4    0.88    0.51
 -26  -8  -4   -0.04    0.44
  26  -8   4   -0.10    0.17
   8  -4  26    0.07    0.42
  26   8  -4   -0.11    0.17
 -26   8   4   -0.09    0.40
   4 -26   8   -0.12    0.24
  -8   4  26   -0.17    0.40
  -8  -4  26   -0.07    0.42
 -26  -8   4   -0.46    0.53
 -26   8  -4   -0.26    0.36
  26   8   4   -0.21    0.14
  26  -8  -4   -0.17    0.15
  -4 -26   8   -0.10    0.22
   8   4  26   -0.03    0.48
 -10   4  26   -0.02    0.36
  10  -4  26    0.09    0.46
   4 -26  10   -0.17    0.25
 -26 -10  -4   -0.19    0.42
 -26  10   4   -0.24    0.43
  26  10  -4   -0.34    0.19
  26 -10   4   -0.14    0.18
  26 -10  -4   -0.09    0.17
  10   4  26   -0.02    0.52
  -4 -26  10   -0.12    0.25
 -10  -4  26   -0.08    0.45
  26  10   4   -0.13    0.16
 -26 -10   4   -0.70    0.48
  26 -12   4    0.11    0.21
 -12   4  26   -0.11    0.38
 -26 -12  -4    0.02    0.48
  26  12  -4   -0.29    0.19
  12  -4  26    0.06    0.46
   4 -26  12   -0.24    0.29
 -26 -12   4   -0.98    0.50
  12   4  26    0.01    0.57
  -4 -26  12    0.09    0.28
  26  12   4   -0.05    0.18
 -12  -4  26   -0.08    0.42
  26 -12  -4   -0.10    0.17
  26 -14   4    0.03    0.23
 -26 -14  -4    0.38    0.55
  14  -4  26   -0.39    0.40
 -14   4  26    0.05    0.38
  26  14  -4   -0.31    0.21
   4 -26  14    0.27    0.35
 -14  -4  26    0.32    0.52
  26  14   4    0.02    0.21
  -4 -26  14   -0.05    0.32
  14   4  26   -0.46    0.49
  26 -14  -4    0.07    0.20
 -26 -14   4   -0.42    0.62
  16  -4  26   -0.19    0.37
  26  16  -4   -0.04    0.24
 -16   4  26   -0.10    0.41
   4 -26  16    0.08    0.36
  26 -16   4   -0.21    0.20
 -26 -16  -4   -0.02    0.49
 -16  -4  26    0.72    0.54
  26  16   4   -0.27    0.22
  16   4  26    0.04    0.51
 -26 -16   4   -0.10    0.59
  -4 -26  16    0.06    0.29
 -26 -18  -4   -0.12    0.49
   4 -26  18    0.09    0.32
  26  18  -4   -0.19    0.24
 -18   4  26    0.41    0.48
  26 -18   4   -0.26    0.23
  -4 -26  18   -0.03    0.32
  26  18   4   -0.36    0.24
 -26 -18   4   -0.61    0.60
  18   4  26   -0.99    0.46
 -18  -4  26    0.00    0.54
  26  20  -4   -0.12    0.24
 -26 -20  -4    0.30    0.55
   4 -26  20    0.09    0.36
  26 -20   4    0.06    0.26
 -20   4  26    0.68    0.48
 -20  -4  26    0.26    0.43
  20   4  26   -0.20    0.49
  -4 -26  20    0.22    0.33
 -26 -20   4   -0.73    0.56
  26  20   4    0.12    0.29
  26 -22   4   -0.04    0.29
 -26 -22  -4    0.09    0.58
 -22  -4  26    0.60    0.61
  26  22   4    0.27    0.29
  22   4  26   -0.04    0.52
   0   6  26   -0.38    0.48
  -6 -26   0   -0.15    0.20
  26   0   6   -0.17    0.14
 -26   0   6    0.12    0.47
  26   0  -6   -0.09    0.16
 -26   0  -6   -0.42    0.34
   0  -6  26    0.06    0.46
  26   2  -6    1.83    0.34
  -2   6  26    2.86    0.78
 -26  -2  -6    2.61    0.62
   2  -6  26    2.90    0.81
  26  -2   6    1.79    0.33
 -26   2   6    2.32    0.65
   6 -26   2    2.30    0.42
 -26  -2   6    3.61    0.80
  26   2   6    1.87    0.34
  -6 -26   2    1.94    0.40
  -2  -6  26    3.44    0.78
 -26   2  -6    3.22    0.63
  26  -2  -6    1.46    0.30
   2   6  26    2.82    0.80
  26   4  -6    0.55    0.24
 -26  -4  -6    1.06    0.53
   4  -6  26    0.71    0.59
  -4   6  26    1.18    0.56
  26  -4   6    0.68    0.24
   6 -26   4    0.59    0.30
 -26   4   6    0.95    0.52
 -26   4  -6    0.06    0.40
 -26  -4   6    0.90    0.65
  -4  -6  26    0.92    0.60
  -6 -26   4    0.51    0.29
  26   4   6    0.55    0.23
   4   6  26    1.32    0.68
  26  -4  -6    0.58    0.22
  -6   6  26    2.84    0.68
   6  -6  26    2.47    0.70
  26  -6   6    1.21    0.29
  26   6  -6    1.23    0.30
 -26   6   6    2.43    0.65
 -26  -6  -6    2.31    0.63
   6 -26   6    1.62    0.38
  26  -6  -6    1.54    0.29
 -26  -6   6    2.23    0.76
   6   6  26    3.40    0.85
  26   6   6    1.58    0.31
  -6  -6  26    2.12    0.67
 -26   6  -6    2.25    0.57
  -6 -26   6    1.38    0.39
 -26   8   6   -0.10    0.45
  26   8  -6   -0.11    0.22
   8  -6  26   -0.04    0.41
 -26  -8  -6    0.33    0.46
  -8   6  26    0.26    0.44
  26  -8   6   -0.12    0.17
   6 -26   8   -0.18    0.26
 -26  -8   6   -0.51    0.52
 -26   8  -6   -0.55    0.34
  26   8   6   -0.02    0.17
  -8  -6  26   -0.36    0.40
  -6 -26   8    0.06    0.27
   8   6  26    0.16    0.54
  26  -8  -6   -0.09    0.15
 -10   6  26    1.74    0.58
 -26 -10  -6    2.54    0.69
  10  -6  26    1.73    0.64
 -26  10   6    1.02    0.53
   6 -26  10    1.33    0.42
  26 -10   6    1.39    0.33
  26  10  -6    0.85    0.31
 -10  -6  26    2.83    0.72
  10   6  26    2.11    0.80
  -6 -26  10    1.26    0.41
  26 -10  -6    1.37    0.30
  26  10   6    1.44    0.31
 -26 -10   6    1.64    0.76
  26 -12   6    0.30    0.25
   6 -26  12    0.30    0.32
 -26 -12  -6    0.89    0.54
 -12   6  26    0.62    0.46
  26  12  -6    0.14    0.28
 -26  12   6    0.02    0.50
  26  12   6    0.49    0.25
  -6 -26  12    0.11    0.32
  12   6  26    0.50    0.60
 -26 -12   6   -0.21    0.67
 -12  -6  26    0.98    0.60
  26 -12  -6    0.18    0.21
 -14   6  26    2.55    0.62
  26  14  -6    0.55    0.31
  26 -14   6    0.69    0.32
   6 -26  14    1.15    0.44
 -26 -14  -6    1.97    0.71
  26  14   6    0.88    0.28
 -26 -14   6    0.59    0.71
 -14  -6  26    2.22    0.70
  14   6  26    2.54    0.79
  -6 -26  14    0.63    0.39
  26 -16   6   -0.31    0.20
  26  16  -6   -0.21    0.24
 -26 -16  -6   -0.17    0.48
   6 -26  16   -0.13    0.30
 -16   6  26    0.13    0.39
 -26 -16   6   -0.95    0.53
  16   6  26   -0.20    0.46
  -6 -26  16    0.05    0.30
  26  16   6   -0.13    0.19
 -16  -6  26    0.31    0.46
  26  18  -6    0.32    0.34
 -26 -18  -6    0.00    0.55
  26 -18   6   -0.05    0.28
   6 -26  18    0.18    0.34
 -18   6  26    1.12    0.57
  -6 -26  18   -0.08    0.31
 -18  -6  26    1.10    0.62
  26  18   6    0.10    0.27
  18   6  26    0.41    0.63
 -26 -18   6    0.90    0.82
  26 -20   6    0.20    0.28
  26  20  -6   -0.25    0.26
   6 -26  20    0.13    0.36
 -20   6  26    1.00    0.52
 -26 -20  -6    0.21    0.51
  20   6  26   -0.05    0.55
  26  20   6   -0.11    0.24
  -6 -26  20   -0.11    0.32
 -20  -6  26    1.04    0.54
  26 -22   6    0.73    0.38
 -26 -22  -6    0.86    0.64
  26  22   6    1.00    0.38
  26   0   8    0.11    0.18
  26   0  -8   -0.07    0.17
   0   8  26    0.35    0.46
 -26   0  -8   -0.03    0.36
 -26   0   8   -0.54    0.49
  -8 -26   0    0.00    0.21
   0  -8  26    0.13    0.48
 -26   2   8    0.05    0.49
   2  -8  26   -0.14    0.49
  26   2  -8    0.06    0.17
 -26  -2  -8    0.12    0.42
  -2   8  26    0.19    0.44
  26  -2   8   -0.15    0.15
   8 -26   2    0.16    0.24
 -26  -2   8   -0.52    0.42
  26  -2  -8    0.15    0.19
  26   2   8   -0.03    0.18
   2   8  26    0.47    0.55
  -8 -26   2   -0.03    0.23
 -26   2  -8    0.26    0.42
  -2  -8  26   -0.07    0.42
  26   4  -8   -0.09    0.17
   8 -26   4   -0.01    0.24
  -4   8  26    0.15    0.43
  26  -4   8    0.12    0.19
 -26  -4  -8   -0.27    0.38
 -26   4   8   -0.31    0.46
  -4  -8  26    0.11    0.50
   4   8  26    0.14    0.49
 -26  -4   8   -0.09    0.51
  26   4   8   -0.13    0.17
 -26   4  -8   -0.10    0.37
  26  -4  -8   -0.20    0.15
  -8 -26   4    0.11    0.25
  26  -6   8   -0.02    0.18
  26   6  -8   -0.26    0.19
   8 -26   6   -0.04    0.24
  -6   8  26   -0.06    0.37
 -26  -6  -8   -0.39    0.39
 -26   6   8   -0.58    0.51
  -8 -26   6   -0.09    0.26
 -26  -6   8   -0.52    0.53
  26  -6  -8   -0.06    0.17
 -26   6  -8   -0.29    0.33
   6   8  26   -0.13    0.48
  -6  -8  26   -0.26    0.45
  26   6   8   -0.17    0.16
  -8   8  26    0.07    0.40
   8  -8  26   -0.05    0.17
   8 -26   8    0.01    0.27
 -26  -8  -8   -0.30    0.38
 -26   8   8   -0.55    0.44
  26   8  -8   -0.35    0.21
  26  -8   8   -0.15    0.18
  -8  -8  26    0.07    0.43
   8   8  26   -0.19    0.47
  26  -8  -8   -0.22    0.16
 -26  -8   8   -0.37    0.57
  -8 -26   8    0.02    0.25
  26   8   8   -0.08    0.19
 -26   8  -8   -0.33    0.34
  26  10  -8    0.14    0.25
   8 -26  10    0.21    0.32
  26 -10   8    0.25    0.23
 -26 -10  -8   -0.21    0.45
 -26  10   8   -0.31    0.50
 -10   8  26    0.77    0.49
  10  -8  26    0.09    0.21
 -10  -8  26    0.78    0.52
  -8 -26  10    0.18    0.33
 -26 -10   8   -0.13    0.71
  26  10   8    0.38    0.22
  10   8  26    0.07    0.58
  26 -10  -8    0.04    0.19
 -26 -12  -8   -0.65    0.43
 -26  12   8   -0.57    0.46
  26  12  -8   -0.13    0.24
  26 -12   8   -0.25    0.18
  12  -8  26    0.01    0.20
   8 -26  12    0.07    0.34
 -12   8  26    0.46    0.42
 -26 -12   8   -0.63    0.58
  26  12   8   -0.12    0.16
  12   8  26   -0.41    0.53
 -12  -8  26    0.28    0.45
  -8 -26  12   -0.04    0.27
  14  -8  26   -0.08    0.21
  26 -14   8   -0.18    0.21
 -26 -14  -8   -0.12    0.46
  26  14  -8   -0.03    0.25
   8 -26  14   -0.26    0.28
 -14   8  26    0.21    0.40
  -8 -26  14   -0.20    0.30
  14   8  26   -0.61    0.50
 -26 -14   8   -0.68    0.61
  26  14   8   -0.10    0.19
 -14  -8  26    0.24    0.48
  16  -8  26   -0.21    0.23
  26 -16   8    0.10    0.26
   8 -26  16   -0.28    0.36
  26  16  -8    0.15    0.28
 -26 -16  -8    0.14    0.48
 -16   8  26    0.35    0.43
 -26 -16   8   -0.97    0.70
 -16  -8  26    0.34    0.48
  16   8  26   -0.14    0.53
  -8 -26  16    0.23    0.33
  26  16   8    0.12    0.21
  18  -8  26   -0.11    0.22
  26 -18   8   -0.42    0.22
  26  18  -8   -0.22    0.29
   8 -26  18   -0.15    0.28
 -26 -18  -8   -0.13    0.43
 -18   8  26    0.68    0.50
  -8 -26  18   -0.01    0.30
  26  18   8    0.11    0.25
 -26 -18   8   -0.35    0.69
  18   8  26   -0.14    0.54
 -18  -8  26   -0.03    0.53
 -26 -20  -8    0.12    0.44
  20  -8  26    0.08    0.25
 -20   8  26    0.49    0.45
  26  20  -8   -0.05    0.29
  26 -20   8    0.07    0.28
   8 -26  20   -0.56    0.31
  20   8  26   -0.29    0.49
 -20  -8  26    0.59    0.52
  -8 -26  20   -0.26    0.28
  26   0  10    0.57    0.25
  26   0 -10    0.43    0.23
 -26   0  10   -0.01    0.55
   0 -10  26    0.15    0.24
 -10 -26   0    0.50    0.26
 -26   0 -10    0.02    0.45
   0  10  26    0.54    0.54
  -2  10  26    2.32    0.68
  10 -26   2    1.68    0.39
 -26   2  10    2.27    0.74
   2 -10  26    1.71    0.38
  26   2 -10    1.89    0.35
 -26  -2 -10    1.57    0.63
  26  -2  10    1.64    0.33
 -10 -26  -2    1.80    0.38
 -10 -26   2    1.33    0.36
 -26  -2  10    3.36    0.79
   2  10  26    2.63    0.76
  26   2  10    2.14    0.34
  26  -2 -10    1.75    0.33
  -2 -10  26    1.82    0.42
 -26   2 -10    2.62    0.60
  -4  10  26   -0.01    0.43
 -26  -4 -10   -0.29    0.41
  26  -4  10   -0.20    0.17
 -26   4  10   -1.18    0.47
  26   4 -10   -0.21    0.18
  10 -26   4   -0.40    0.22
   4 -10  26    0.07    0.25
   4  10  26   -0.15    0.48
 -10 -26   4   -0.11    0.23
  26  -4 -10   -0.08    0.18
  26   4  10    0.00    0.16
 -26  -4  10   -0.60    0.46
 -26   4 -10   -0.21    0.30
 -26  -6 -10    1.21    0.67
  26  -6  10    1.33    0.32
   6 -10  26    1.52    0.36
  -6  10  26    2.32    0.63
 -26   6  10    1.27    0.65
  10 -26   6    1.53    0.44
  26   6 -10    1.13    0.34
 -10 -26   6    1.47    0.41
 -26  -6  10    1.83    0.77
  26  -6 -10    1.46    0.30
   6  10  26    3.03    0.82
 -26   6 -10    2.33    0.55
  26   6  10    1.57    0.31
  -8  10  26    0.23    0.49
 -26  -8 -10    0.54    0.48
  26   8 -10   -0.20    0.25
  10 -26   8    0.19    0.34
  26  -8  10    0.10    0.20
 -26   8  10   -0.13    0.48
   8 -10  26    0.07    0.24
 -10 -26   8    0.30    0.30
 -26  -8  10    0.91    0.68
  26   8  10    0.18    0.20
  -8 -10  26    0.84    0.60
   8  10  26    0.31    0.54
  26  10 -10    0.96    0.34
  10 -10  26    1.13    0.33
 -26 -10 -10    0.95    0.54
 -26  10  10    1.03    0.62
  26 -10  10    0.82    0.32
  10 -26  10    1.01    0.41
 -10  10  26    1.76    0.59
  26  10  10    1.27    0.30
 -26 -10  10    1.22    0.81
 -10 -26  10    0.86    0.41
 -10 -10  26    1.50    0.67
  10  10  26    1.93    0.75
 -26 -12 -10   -0.03    0.40
  12 -10  26   -0.23    0.20
  10 -26  12   -0.47    0.28
 -26  12  10    0.09    0.47
  26  12 -10   -0.20    0.24
  26 -12  10   -0.20    0.21
 -12  10  26    0.15    0.39
 -10 -26  12   -0.09    0.25
 -12 -10  26    0.26    0.46
  12  10  26   -0.37    0.45
  26  12  10   -0.08    0.17
 -26 -12  10   -0.42    0.68
  14 -10  26    0.38    0.27
  26 -14  10    0.39    0.32
  26  14 -10    0.43    0.31
 -14  10  26    1.34    0.52
  10 -26  14    0.70    0.42
 -26 -14 -10    1.09    0.57
 -26 -14  10   -0.10    0.80
 -10 -26  14    1.01    0.41
  26  14  10    0.81    0.25
 -14 -10  26    1.26    0.62
  14  10  26    0.75    0.63
 -16  10  26    0.33    0.44
  26  16 -10   -0.51    0.24
  16 -10  26   -0.20    0.24
  10 -26  16   -0.24    0.37
 -26 -16 -10   -0.06    0.42
  26 -16  10   -0.22    0.24
 -16 -10  26    0.81    0.56
 -26 -16  10   -1.07    0.63
 -10 -26  16   -0.03    0.27
  16  10  26   -0.41    0.47
  26  16  10   -0.04    0.21
  26 -18  10    0.22    0.33
 -26 -18 -10    0.40    0.48
  10 -26  18    0.33    0.41
  18 -10  26    0.08    0.30
 -18  10  26    1.62    0.54
  26  18 -10    0.46    0.34
 -10 -26  18    0.36    0.38
  18  10  26    1.48    0.75
 -26 -18  10   -0.10    0.71
 -18 -10  26    0.44    0.59
 -26 -20 -10    0.48    0.46
  26 -20  10   -0.11    0.29
 -20 -10  26    0.70    0.55
  26   0  12   -0.03    0.18
  26   0 -12    0.01    0.19
 -26   0  12   -0.36    0.51
   0 -12  26   -0.23    0.26
   0  12  26   -0.26    0.44
 -12 -26   0   -0.01    0.23
 -26   0 -12   -0.32    0.38
 -12 -26  -2   -0.21    0.24
  26   2 -12    0.01    0.21
  12 -26   2   -0.01    0.25
  26  -2  12    0.07    0.21
   2 -12  26   -0.15    0.26
  -2  12  26    0.48    0.52
 -26   2  12   -0.29    0.57
 -26  -2  12   -0.06    0.64
  26  -2 -12    0.17    0.20
 -26   2 -12   -0.38    0.39
   2  12  26    0.02    0.51
  26   2  12    0.06    0.19
  -2 -12  26   -0.20    0.25
 -12 -26   2   -0.09    0.24
  26  -4  12   -0.30    0.18
  12 -26   4   -0.15    0.26
   4 -12  26    0.04    0.25
 -26   4  12    0.14    0.53
  26   4 -12   -0.19    0.22
  -4  12  26   -0.17    0.40
  26  -4 -12   -0.16    0.16
   4  12  26   -0.06    0.46
 -26   4 -12    0.16    0.39
  -4 -12  26   -0.23    0.26
 -12 -26   4    0.42    0.30
 -26  -4  12   -0.98    0.49
  26   4  12   -0.16    0.17
   6 -12  26    0.72    0.34
  26  -6  12    0.43    0.25
  26   6 -12   -0.10    0.22
  12 -26   6    0.05    0.29
 -26   6  12   -0.19    0.54
  -6  12  26    0.96    0.54
 -12 -26   6    0.26    0.30
   6  12  26    1.27    0.67
 -26   6 -12    0.40    0.44
  -6 -12  26    0.04    0.29
  26   6  12    0.48    0.24
 -26  -6  12    0.17    0.64
  -8  12  26    0.07    0.42
 -26   8  12    0.37    0.50
  26  -8  12    0.05    0.20
  26   8 -12   -0.38    0.20
   8 -12  26    0.07    0.26
  12 -26   8   -0.21    0.28
  26   8  12    0.00    0.18
 -26  -8  12   -0.33    0.60
  -8 -12  26   -0.10    0.28
 -12 -26   8    0.04    0.28
   8  12  26   -0.62    0.44
  10 -12  26    0.37    0.27
  26 -10  12   -0.29    0.18
 -26  10  12   -0.37    0.47
  26  10 -12   -0.13    0.23
 -10  12  26    0.04    0.41
  12 -26  10   -0.23    0.28
 -12 -26  10   -0.32    0.27
  26  10  12   -0.14    0.17
  10  12  26   -0.32    0.53
 -26 -10  12    0.08    0.66
 -10 -12  26    0.22    0.31
  26 -12  12    0.09    0.25
  12 -26  12   -0.68    0.31
  12 -12  26    0.08    0.26
 -12  12  26    0.86    0.50
  26  12 -12   -0.01    0.27
 -26  12  12    0.26    0.48
  26  12  12   -0.03    0.19
  12  12  26   -0.30    0.50
 -26 -12  12   -0.63    0.66
 -12 -26  12   -0.06    0.27
 -14  12  26    0.77    0.48
  14 -12  26    0.31    0.30
  26 -14  12   -0.08    0.27
  12 -26  14    0.37    0.41
  26  14 -12    0.25    0.33
 -26  14  12    0.42    0.48
 -12 -26  14    0.01    0.33
  26  14  12    0.37    0.22
  14  12  26    0.61    0.62
 -26 -14  12   -0.27    0.70
  26 -16  12   -0.01    0.26
  26  16 -12   -0.02    0.30
  12 -26  16   -0.48    0.32
 -16  12  26    0.36    0.45
  16 -12  26   -0.27    0.26
 -26 -16  12   -0.62    0.67
  16  12  26   -0.41    0.48
 -12 -26  16    0.12    0.33
 -18  12  26    0.97    0.44
  26 -18  12   -0.27    0.27
  18 -12  26   -0.29    0.28
  26  18 -12   -0.02    0.33
  12 -26  18   -0.25    0.40
 -12 -26  18   -0.22    0.31
 -26   0  14    0.25    0.56
  26   0 -14    0.01    0.21
  26   0  14   -0.12    0.17
   0 -14  26   -0.23    0.29
   0  14  26    0.19    0.52
 -14 -26   0   -0.12    0.24
  14 -26   2    1.94    0.43
  -2  14  26    3.60    0.78
 -14 -26  -2    1.15    0.38
  26  -2  14    1.97    0.36
 -26   2  14    2.21    0.78
   2 -14  26    1.29    0.41
  26   2 -14    1.03    0.34
  26  -2 -14    1.77    0.34
 -26  -2  14    2.07    0.83
  26   2  14    1.70    0.34
   2  14  26    3.52    0.82
  -2 -14  26    0.90    0.43
 -14 -26   2    1.19    0.40
  14 -26   4   -0.19    0.26
   4 -14  26    0.02    0.29
  26   4 -14   -0.24    0.21
  26  -4  14   -0.08    0.22
  -4  14  26    0.14    0.49
 -26   4  14    0.14    0.51
  -4 -14  26   -0.47    0.29
 -14 -26   4    0.20    0.30
 -26  -4  14   -0.33    0.62
  26   4  14   -0.06    0.20
   4  14  26    0.14    0.52
  26   4  14    0.06    0.44
 -26   4 -14   -0.01    0.39
  26   6 -14    1.12    0.35
 -26   6  14    1.39    0.64
  26  -6  14    1.10    0.34
  14 -26   6    1.36    0.43
   6 -14  26    1.28    0.42
  -6  14  26    1.56    0.60
 -26   6 -14    1.49    0.55
 -26  -6  14    0.96    0.83
  26   6  14    1.84    0.34
 -14 -26   6    1.23    0.41
   6  14  26    2.62    0.76
  26   6  14    2.07    0.65
  -6 -14  26    0.91    0.41
  -8  14  26    0.20    0.45
 -26   8  14   -0.57    0.47
  14 -26   8   -0.54    0.23
  26  -8  14   -0.14    0.20
  26   8 -14   -0.22    0.25
   8 -14  26   -0.20    0.30
  26   8  14   -0.12    0.17
   8  14  26   -0.34    0.49
 -14 -26   8    0.24    0.31
  -8 -14  26   -0.27    0.30
  26   8  14   -0.37    0.39
  26  10 -14    0.23    0.29
 -26  10  14    1.23    0.57
  10 -14  26    0.56    0.36
  26 -10  14    0.37    0.30
  14 -26  10    0.52    0.39
 -10  14  26    1.46    0.54
 -14 -26  10    0.69    0.40
  10  14  26    0.84    0.65
  26  10  14    0.43    0.50
 -26 -10  14    1.20    0.82
  26  10  14    0.72    0.26
 -10 -14  26    0.28    0.34
 -12  14  26    1.31    0.52
  26  12 -14    0.00    0.29
  12 -14  26    0.08    0.30
  26 -12  14    0.04    0.27
  14 -26  12    0.34    0.40
 -26  12  14    0.97    0.54
  12  14  26    0.76    0.65
 -12 -14  26    0.46    0.36
  26  12  14    0.20    0.45
 -26 -12  14   -0.72    0.72
 -14 -26  12    0.28    0.36
 -26  14  14    2.17    0.63
  26 -14  14    0.36    0.34
  14 -14  26    0.56    0.36
  26  14 -14    0.49    0.38
  14 -26  14    1.09    0.47
 -14  14  26    1.26    0.54
  14  14  26    1.70    0.72
 -14 -26  14    0.19    0.38
  26  14  14    1.68    0.63
 -26 -14  14    0.51    0.82
 -14 -14  26    0.24    0.35
  26  16 -14   -0.25    0.27
  14 -26  16   -0.34    0.30
 -16  14  26    0.24    0.38
  26 -16  14   -0.30    0.21
  16 -14  26   -0.18    0.30
  26  16  14   -0.11    0.42
 -26 -16  14   -0.79    0.84
 -16 -14  26   -0.33    0.28
 -14 -26  16   -0.27    0.27
  16  14  26   -0.02    0.48
  18 -14  26    0.14    0.33
   0  16  26    0.01    0.49
 -16 -26   0   -0.10    0.26
   0 -16  26   -0.58    0.32
  26   0  16   -0.25    0.39
 -26   0  16   -0.17    0.51
  26   0  16   -0.08    0.19
  -2  16  26   -0.14    0.44
 -26   2  16   -0.35    0.51
  26   2 -16   -0.27    0.24
  26  -2  16    0.18    0.23
   2 -16  26   -0.11    0.34
 -16 -26  -2   -0.25    0.24
  -2 -16  26   -0.49    0.33
  26   2  16    0.00    0.20
 -16 -26   2   -0.17    0.25
   2  16  26    0.74    0.58
  26   2  16    0.01    0.42
 -26  -2  16    0.29    0.67
  26  -4  16   -0.10    0.20
 -26   4  16   -0.34    0.47
   4 -16  26   -0.13    0.33
  16 -26   4   -0.45    0.27
  -4  16  26    0.09    0.46
  26   4 -16   -0.25    0.25
  26   4  16    0.06    0.48
 -26  -4  16   -0.36    0.60
   4  16  26   -0.37    0.45
  26   4  16    0.09    0.22
 -16 -26   4   -0.13    0.23
  -4 -16  26   -0.06    0.35
   6 -16  26   -0.06    0.31
  26   6 -16    0.22    0.28
  -6  16  26    0.15    0.41
  26  -6  16   -0.04    0.22
  16 -26   6   -0.09    0.27
 -26   6  16   -0.02    0.46
 -26  -6  16   -0.64    0.65
 -16 -26   6   -0.65    0.26
  26   6  16   -0.04    0.43
   6  16  26   -0.47    0.42
  26   6  16   -0.03    0.19
  -6 -16  26   -0.21    0.31
  -8  16  26    1.00    0.50
  26   8 -16    0.13    0.27
 -26   8  16   -0.01    0.44
   8 -16  26    0.00    0.31
  16 -26   8   -0.37    0.28
  26  -8  16   -0.17    0.20
   8  16  26   -0.19    0.53
 -16 -26   8   -0.27    0.27
  26   8  16    0.06    0.47
  -8 -16  26    0.06    0.31
 -26  -8  16   -0.47    0.67
  26   8  16    0.04    0.19
  16 -26  10   -0.46    0.26
 -10  16  26    0.21    0.41
  26  10 -16   -0.08    0.26
  26 -10  16   -0.17    0.21
  10 -16  26   -0.03    0.32
 -26  10  16   -0.08    0.45
 -16 -26  10   -0.49    0.32
 -26 -10  16   -1.38    0.63
  26  10  16   -0.21    0.40
 -10 -16  26    0.10    0.35
  10  16  26   -0.54    0.54
 -26  12  16    0.43    0.50
 -12  16  26    0.56    0.46
  26  12 -16   -0.19    0.28
  16 -26  12   -0.61    0.26
  12 -16  26    0.05    0.33
  26 -12  16    0.04    0.26
 -16 -26  12   -0.23    0.27
  12  16  26   -0.14    0.57
  26  12  16    0.44    0.50
 -12 -16  26    0.12    0.34
 -26 -12  16   -0.79    0.67
  14 -16  26   -0.18    0.31
 -26  14  16    0.20    0.45
 -14  16  26    0.59    0.45
  26 -14  16   -0.37    0.21
  26  14 -16   -0.10    0.30
  16 -26  14   -0.27    0.35
  14  16  26   -0.67    0.46
  26  14  16   -0.22    0.42
 -26 -14  16   -1.29    0.80
 -14 -16  26   -0.35    0.27
 -16 -26  14   -0.53    0.27
  16 -16  26   -0.05    0.31
 -16  16  26    0.98    0.47
 -26 -16  16    0.44    0.81
 -16 -16  26   -0.05    0.31
 -26   0  18   -0.12    0.53
 -18 -26   0    0.04    0.29
  26   0  18    0.10    0.23
   0  18  26    0.37    0.52
  26   0  18   -0.13    0.42
   0 -18  26   -0.04    0.37
 -18 -26  -2    0.69    0.36
   2 -18  26    0.96    0.43
 -26   2  18    0.53    0.62
  -2  18  26    1.33    0.60
  26  -2  18    1.00    0.52
  26  -2  18    0.64    0.30
  26   2  18    1.03    0.54
 -26  -2  18    0.83    0.70
  -2 -18  26    0.80    0.43
   2  18  26    1.15    0.60
  26   2  18    0.62    0.27
 -18 -26   2    0.76    0.38
  -4  18  26    0.20    0.49
 -26   4  18   -0.72    0.47
  26  -4  18   -0.45    0.35
   4 -18  26   -0.02    0.32
  26  -4  18   -0.34    0.18
  18 -26   4   -0.36    0.23
 -18 -26   4   -0.36    0.25
 -26  -4  18   -0.40    0.61
   4  18  26   -0.12    0.47
  26   4  18   -0.11    0.18
  -4 -18  26   -0.35    0.29
  26   4  18   -0.94    0.40
  18 -26   6    0.51    0.38
   6 -18  26    1.42    0.48
  -6  18  26    1.05    0.54
  26   6 -18    0.30    0.31
 -26   6  18    0.05    0.57
  26  -6  18    0.36    0.31
  26   6  18    0.82    0.54
   6  18  26    0.85    0.62
 -26  -6  18    0.52    0.75
 -18 -26   6    0.38    0.38
  -6 -18  26   -0.06    0.37
  18 -26   8   -0.20    0.30
  26  -8  18   -0.51    0.21
  -8  18  26    0.14    0.44
   8 -18  26    0.21    0.37
  26   8 -18   -0.03    0.29
 -26   8  18    0.16    0.54
  26   8  18   -0.30    0.42
 -26  -8  18   -0.43    0.65
  -8 -18  26   -0.12    0.36
 -18 -26   8   -0.01    0.30
   8  18  26   -0.23    0.53
  10 -18  26    0.48    0.44
 -10  18  26    1.41    0.57
 -26  10  18    0.88    0.60
  26  10 -18    0.24    0.34
  26 -10  18    0.10    0.30
  18 -26  10    0.65    0.41
 -10 -18  26    0.38    0.43
  26  10  18    0.09    0.48
  10  18  26    0.81    0.61
 -18 -26  10    0.25    0.38
 -26 -10  18   -0.22    0.68
 -12  18  26    0.42    0.47
 -26  12  18    0.17    0.45
  12 -18  26   -0.22    0.32
  18 -26  12   -0.49    0.31
  26  12 -18   -0.22    0.25
  26 -12  18   -0.47    0.20
 -18 -26  12   -0.13    0.30
 -26 -12  18   -0.14    0.69
  12  18  26    0.28    0.50
  26  12  18   -0.26    0.48
 -12 -18  26    0.05    0.38
 -14  18  26    1.32    0.48
 -26  14  18    1.46    0.51
 -14 -18  26    0.23    0.36
 -26 -14  18   -0.05    0.77
 -20 -26   0   -0.26    0.26
  26   0  20    0.05    0.23
 -26   0  20    0.47    0.57
  26   0  20   -0.05    0.42
   0  20  26    0.92    0.57
   0 -20  26   -0.40    0.36
 -26   2  20   -0.13    0.48
 -20 -26  -2   -0.43    0.28
  26  -2  20   -0.11    0.42
  -2  20  26   -0.23    0.49
   2 -20  26   -0.14    0.39
  26  -2  20   -0.12    0.20
  26   2  20   -0.04    0.19
  26   2  20    0.05    0.46
 -26  -2  20   -0.15    0.55
   2  20  26   -0.11    0.50
 -20 -26   2   -0.23    0.29
  -2 -20  26   -0.43    0.36
  20 -26   4   -0.13    0.30
  -4  20  26    0.46    0.54
   4 -20  26   -0.38    0.33
  26  -4  20   -0.20    0.39
  26  -4  20    0.11    0.24
 -26   4  20    0.01    0.45
 -26  -4  20    0.16    0.63
   4  20  26   -0.31    0.49
  26   4  20   -0.03    0.47
 -20 -26   4   -0.10    0.25
  -4 -20  26    0.18    0.39
 -26   6  20    0.38    0.48
  26  -6  20    0.22    0.27
  -6  20  26    0.27    0.51
  20 -26   6   -0.40    0.30
   6 -20  26   -0.13    0.33
  -6 -20  26    0.08    0.40
  26   6  20   -0.32    0.44
 -26  -6  20   -0.31    0.62
   6  20  26    0.32    0.59
 -20 -26   6    0.29    0.35
  20 -26   8   -0.06    0.31
  26  -8  20   -0.18    0.21
   8 -20  26    0.32    0.36
 -26   8  20    0.49    0.44
  26   8 -20   -0.11    0.29
  -8  20  26    0.45    0.51
 -26  -8  20    0.36    0.69
  26   8  20   -0.46    0.42
   8  20  26   -0.32    0.52
 -20 -26   8   -0.12    0.28
  -8 -20  26    0.05    0.35
  10 -20  26   -0.17    0.31
  26 -10  20   -0.38    0.22
 -26  10  20    0.36    0.41
  20 -26  10   -0.37    0.33
 -10  20  26    0.83    0.45
 -26 -10  20   -0.60    0.58
 -10 -20  26    0.18    0.35
  10  20  26   -0.71    0.46
   0 -22  26   -0.08    0.34
   0  22  26    0.63    0.55
  26   0  22   -0.21    0.44
  26  -2  22    0.51    0.30
   2 -22  26    1.45    0.50
  -2  22  26    1.48    0.59
  26  -2  22    1.18    0.56
   2  22  26    1.27    0.59
  26   2  22    1.19    0.62
 -22 -26   2    0.45    0.41
  -2 -22  26    0.85    0.45
  -4  22  26    0.55    0.51
  22 -26   4   -0.05    0.31
  26  -4  22   -0.02    0.24
   4 -22  26   -0.05    0.36
  26   4  22    0.20    0.53
  -4 -22  26    0.72    0.44
   4  22  26    0.85    0.56
 -22 -26   4    0.43    0.38
  22 -26   6    0.61    0.41
  -6  22  26    1.89    0.62
   6  22  26    1.78    0.67
 -27  -1  -1   -0.19    0.41
  27   1  -1   -0.02    0.17
   1  -1  27    0.28    0.56
 -27   1   1   -0.06    0.40
   1 -27   1   -0.17    0.18
  27  -1   1   -0.04    0.17
  -1   1  27   -0.26    0.40
  -1 -27   1   -0.09    0.19
 -27   1  -1    0.19    0.38
   1   1  27   -0.26    0.52
  27  -1  -1   -0.06    0.18
  -1  -1  27    0.00    0.47
 -27  -1   1   -0.04    0.44
  27   1   1   -0.13    0.15
   3  -1  27    0.04    0.48
  -3   1  27   -0.08    0.43
  27  -3   1    0.01    0.19
  27   3  -1   -0.07    0.15
 -27  -3  -1   -0.01    0.42
 -27   3   1   -0.40    0.36
   1 -27   3   -0.03    0.19
   3   1  27    0.10    0.49
  -1 -27   3   -0.10    0.19
  -3  -1  27   -0.11    0.49
  27   3   1    0.05    0.17
  27  -3  -1   -0.17    0.16
 -27  -3   1   -0.11    0.43
 -27   3  -1    0.02    0.37
 -27   5   1   -0.01    0.45
  -5   1  27    0.25    0.47
  27  -5   1    0.12    0.20
  27   5  -1   -0.04    0.18
   5  -1  27    0.20    0.56
 -27  -5  -1    0.07    0.44
   1 -27   5    0.19    0.25
  27   5   1   -0.13    0.13
  -1 -27   5    0.10    0.22
 -27  -5   1   -0.20    0.44
 -27   5  -1    0.03    0.44
  -5  -1  27   -0.30    0.46
  27  -5  -1   -0.07    0.16
   5   1  27    0.25    0.61
   7  -1  27   -0.46    0.44
 -27   7   1    0.07    0.45
  27   7  -1   -0.12    0.18
 -27  -7  -1   -0.09    0.44
  -7   1  27    0.14    0.49
  27  -7   1   -0.06    0.19
   1 -27   7    0.09    0.25
  27   7   1    0.09    0.19
 -27   7  -1   -0.14    0.43
  -7  -1  27    0.24    0.49
  27  -7  -1   -0.07    0.18
  -1 -27   7    0.06    0.23
 -27  -7   1    0.14    0.51
   7   1  27   -0.59    0.48
 -27  -9  -1   -0.05    0.49
  -9   1  27   -0.13    0.41
   1 -27   9    0.08    0.25
 -27   9   1   -0.86    0.41
   9  -1  27   -0.42    0.42
  27   9  -1   -0.31    0.17
  27  -9   1   -0.13    0.17
  27  -9  -1   -0.20    0.17
   9   1  27   -0.65    0.45
  27   9   1   -0.29    0.19
  -9  -1  27   -0.32    0.40
 -27  -9   1    0.11    0.57
 -27   9  -1   -0.42    0.39
  -1 -27   9   -0.17    0.23
  11  -1  27   -0.23    0.44
   1 -27  11    0.26    0.31
 -27 -11  -1   -0.36    0.47
 -11   1  27   -0.13    0.44
  27 -11   1   -0.16    0.20
  27  11  -1   -0.34    0.20
 -11  -1  27    0.14    0.46
  -1 -27  11    0.01    0.27
 -27 -11   1   -0.28    0.48
  11   1  27   -0.15    0.56
  27 -11  -1   -0.15    0.19
 -13   1  27    0.27    0.44
   1 -27  13    0.12    0.28
  27 -13   1   -0.31    0.19
  27  13  -1   -0.30    0.21
 -27 -13  -1   -0.02    0.56
  13  -1  27   -0.02    0.53
 -27 -13   1   -0.36    0.52
  27 -13  -1    0.06    0.20
  -1 -27  13   -0.20    0.23
 -13  -1  27    0.21    0.48
  13   1  27   -0.34    0.45
  27  13   1   -0.32    0.18
  27 -15   1   -0.45    0.23
 -27 -15  -1    0.09    0.58
  15  -1  27    0.19    0.48
   1 -27  15    0.09    0.32
 -15   1  27    0.29    0.52
  27  15  -1    0.04    0.25
 -27 -15   1   -0.53    0.52
 -15  -1  27    0.46    0.53
  -1 -27  15    0.30    0.32
  27 -15  -1    0.11    0.23
  27  15   1   -0.19    0.21
  15   1  27   -0.14    0.49
 -17   1  27    0.35    0.49
  27 -17   1   -0.23    0.23
  27  17  -1   -0.21    0.24
   1 -27  17   -0.21    0.31
  17  -1  27   -0.29    0.48
 -27 -17  -1   -0.73    0.53
 -17  -1  27   -0.09    0.47
  27  17   1   -0.36    0.19
 -27 -17   1   -0.99    0.53
  27 -17  -1   -0.01    0.24
  17   1  27   -0.42    0.45
  -1 -27  17    0.10    0.34
  27 -19   1   -0.33    0.23
   1 -27  19   -0.34    0.30
 -27 -19  -1   -0.36    0.57
  27  19  -1   -0.02    0.24
 -19   1  27    0.13    0.46
  19  -1  27   -0.41    0.45
  -1 -27  19   -0.02    0.30
 -27 -19   1   -0.35    0.56
  19   1  27   -0.18    0.47
 -19  -1  27    0.68    0.53
  27  19   1   -0.05    0.26
  21  -1  27   -0.56    0.38
  27  21  -1   -0.36    0.23
  27 -21   1   -0.28    0.26
 -27 -21  -1   -0.47    0.56
  27  21   1   -0.13    0.25
 -27 -21   1   -0.78    0.61
  21   1  27   -0.11    0.49
  27   1  -3   -0.05    0.17
 -27   1   3   -0.07    0.48
  27  -1   3   -0.23    0.15
  -1   3  27    0.26    0.50
 -27  -1  -3   -0.27    0.40
   1  -3  27    0.12    0.49
   3 -27   1   -0.11    0.21
 -27   1  -3    0.02    0.38
  -1  -3  27    0.28    0.47
  27   1   3   -0.09    0.16
  27  -1  -3   -0.22    0.16
 -27  -1   3   -0.38    0.44
  -3 -27   1    0.20    0.22
   1   3  27   -0.12    0.48
  27  -3   3    0.00    0.16
   3 -27   3    0.03    0.22
   3  -3  27   -0.04    0.47
 -27  -3  -3    0.13    0.46
 -27   3   3   -0.07    0.42
  -3   3  27    0.24    0.49
  27   3  -3   -0.06    0.17
  -3  -3  27    0.02    0.45
 -27   3  -3   -0.38    0.35
   3   3  27   -0.23    0.52
  27  -3  -3   -0.10    0.15
  -3 -27   3    0.15    0.20
  27   3   3   -0.06    0.16
 -27  -3   3   -0.02    0.45
  27  -5   3   -0.03    0.18
   3 -27   5   -0.05    0.22
 -27   5   3   -0.34    0.43
  27   5  -3   -0.13    0.19
 -27  -5  -3    0.20    0.46
   5  -3  27   -0.13    0.52
  -5   3  27   -0.06    0.42
 -27   5  -3   -0.15    0.39
  -5  -3  27    0.30    0.47
 -27  -5   3    0.06    0.50
  27   5   3   -0.04    0.17
  27  -5  -3    0.03    0.18
  -3 -27   5    0.06    0.23
   5   3  27    0.25    0.55
 -27   7   3   -0.48    0.44
  27  -7   3   -0.20    0.17
   7  -3  27   -0.44    0.47
  -7   3  27    0.06    0.46
   3 -27   7   -0.05    0.22
  27   7  -3   -0.41    0.15
 -27  -7  -3   -0.03    0.46
  -3 -27   7   -0.21    0.21
 -27  -7   3   -0.16    0.51
  -7  -3  27   -0.10    0.47
  27  -7  -3   -0.10    0.17
  27   7   3   -0.11    0.17
   7   3  27   -0.52    0.55
 -27   7  -3   -0.56    0.35
  27   9  -3   -0.38    0.19
 -27   9   3   -0.51    0.44
   3 -27   9   -0.03    0.26
   9  -3  27   -0.20    0.49
  -9   3  27    0.10    0.47
  27  -9   3   -0.18    0.18
 -27  -9  -3   -0.48    0.43
   9   3  27   -0.42    0.45
 -27  -9   3   -0.63    0.50
  -9  -3  27   -0.29    0.45
 -27   9  -3   -0.16    0.39
  -3 -27   9   -0.11    0.25
  27   9   3   -0.12    0.20
  27  -9  -3   -0.09    0.17
 -11   3  27   -0.31    0.42
 -27  11   3   -0.93    0.43
 -27 -11  -3   -0.43    0.48
  27 -11   3   -0.35    0.17
  11  -3  27   -0.13    0.50
  27  11  -3   -0.17    0.20
   3 -27  11    0.34    0.33
 -27 -11   3   -0.36    0.53
  27  11   3   -0.42    0.18
  11   3  27   -0.21    0.54
 -11  -3  27   -0.31    0.47
  -3 -27  11   -0.15    0.28
  27 -11  -3   -0.24    0.18
  13  -3  27   -0.29    0.43
 -27 -13  -3   -0.69    0.50
   3 -27  13    0.06    0.31
  27 -13   3   -0.07    0.20
  27  13  -3   -0.14    0.23
 -13   3  27   -0.03    0.43
 -13  -3  27   -0.23    0.44
  27 -13  -3   -0.23    0.20
 -27 -13   3   -0.11    0.56
  13   3  27   -0.39    0.47
  -3 -27  13   -0.01    0.31
  27  13   3   -0.30    0.20
  27 -15   3   -0.27    0.21
  27  15  -3   -0.05    0.24
   3 -27  15    0.11    0.31
 -15   3  27    0.32    0.49
  15  -3  27   -0.04    0.45
 -27 -15  -3   -0.50    0.51
 -15  -3  27    0.06    0.51
  -3 -27  15    0.20    0.33
  27  15   3   -0.19    0.20
  27 -15  -3   -0.48    0.18
  15   3  27    0.47    0.57
 -27 -15   3   -0.01    0.60
 -27 -17  -3   -0.43    0.52
  27  17  -3   -0.17    0.23
  17  -3  27   -0.03    0.45
 -17   3  27    0.21    0.45
   3 -27  17   -0.08    0.35
  27 -17   3   -0.30    0.22
 -27 -17   3   -1.04    0.53
  -3 -27  17   -0.16    0.27
  17   3  27   -0.51    0.54
  27  17   3   -0.12    0.22
 -17  -3  27   -0.06    0.46
  19  -3  27   -0.33    0.47
 -27 -19  -3   -0.69    0.48
  27 -19   3   -0.21    0.21
   3 -27  19   -0.04    0.32
 -19   3  27   -0.14    0.41
  27  19  -3   -0.31    0.24
  19   3  27   -0.26    0.42
  27  19   3   -0.30    0.24
 -27 -19   3   -0.08    0.63
 -19  -3  27    0.47    0.48
  -3 -27  19    0.06    0.29
  27 -21   3   -0.16    0.24
 -27 -21  -3   -0.94    0.46
  21   3  27   -0.55    0.45
  27  21   3   -0.32    0.21
  -1   5  27    0.13    0.48
   1  -5  27    0.68    0.59
 -27  -1  -5   -0.02    0.41
   5 -27   1   -0.01    0.23
  27   1  -5    0.06    0.19
  27  -1   5    0.14    0.19
 -27   1   5   -0.10    0.53
  27   1   5   -0.05    0.18
  27  -1  -5   -0.03    0.18
   1   5  27   -0.03    0.51
 -27  -1   5   -0.47    0.48
  -5 -27   1   -0.04    0.20
  -1  -5  27    0.09    0.51
 -27   1  -5    0.10    0.43
   5 -27   3   -0.12    0.19
 -27   3   5   -0.31    0.49
  -3   5  27   -0.04    0.46
   3  -5  27    0.11    0.50
 -27  -3  -5    0.15    0.46
  27  -3   5   -0.02    0.16
  27   3  -5   -0.10    0.18
 -27  -3   5   -0.37    0.49
  -5 -27   3   -0.06    0.23
   3   5  27    0.09    0.54
 -27   3  -5   -0.18    0.37
  27  -3  -5   -0.05    0.16
  -3  -5  27    0.33    0.52
  27   3   5   -0.01    0.16
 -27  -5  -5   -0.35    0.44
 -27   5   5   -0.94    0.48
  -5   5  27   -0.11    0.41
   5 -27   5   -0.19    0.21
   5  -5  27   -0.10    0.46
  27  -5   5   -0.15    0.17
  27   5  -5   -0.17    0.20
  27  -5  -5   -0.15    0.15
 -27   5  -5   -0.11    0.38
   5   5  27   -0.09    0.59
 -27  -5   5   -0.14    0.48
  -5 -27   5   -0.13    0.21
  -5  -5  27   -0.05    0.49
  27   5   5   -0.06    0.16
  27   7  -5   -0.37    0.20
  -7   5  27    0.07    0.42
  27  -7   5   -0.13    0.19
 -27  -7  -5   -0.29    0.43
   7  -5  27    0.00    0.47
 -27   7   5   -0.73    0.47
   5 -27   7   -0.03    0.23
  27  -7  -5   -0.12    0.17
   7   5  27   -1.13    0.44
  27   7   5    0.04    0.20
 -27  -7   5    0.30    0.62
  -5 -27   7    0.13    0.27
 -27   7  -5   -0.07    0.39
  -7  -5  27    0.03    0.50
  27   9  -5   -0.35    0.18
   9  -5  27   -0.14    0.48
  -9   5  27    0.11    0.43
 -27   9   5   -0.89    0.49
 -27  -9  -5   -0.56    0.48
   5 -27   9   -0.28    0.23
  27  -9   5   -0.39    0.18
  27  -9  -5   -0.24    0.15
   9   5  27   -0.49    0.45
  -9  -5  27   -0.16    0.46
 -27  -9   5   -0.35    0.52
  27   9   5   -0.03    0.18
  -5 -27   9   -0.17    0.25
  27 -11   5   -0.40    0.18
 -11   5  27    0.02    0.37
  27  11  -5    0.00    0.24
  11  -5  27   -0.33    0.46
 -27 -11  -5   -0.82    0.44
   5 -27  11   -0.14    0.26
 -27  11   5   -1.11    0.44
 -11  -5  27   -0.24    0.52
  -5 -27  11   -0.07    0.27
 -27 -11   5   -0.82    0.56
  11   5  27   -0.07    0.55
  27 -11  -5   -0.04    0.19
  27  11   5   -0.17    0.20
 -27 -13  -5   -0.62    0.50
  13  -5  27   -0.37    0.37
 -13   5  27   -0.09    0.39
   5 -27  13   -0.08    0.32
  27 -13   5   -0.29    0.21
  27  13  -5   -0.23    0.20
 -13  -5  27    0.10    0.48
  -5 -27  13   -0.11    0.28
  27 -13  -5   -0.26    0.18
  27  13   5   -0.36    0.20
  13   5  27   -0.55    0.46
 -27 -13   5   -0.62    0.59
   5 -27  15   -0.34    0.28
  27 -15   5   -0.20    0.23
 -15   5  27    0.40    0.41
 -27 -15  -5    0.00    0.52
  27  15  -5   -0.25    0.20
  15   5  27    0.05    0.57
 -15  -5  27    0.44    0.51
  27  15   5   -0.35    0.21
 -27 -15   5   -0.23    0.64
  -5 -27  15   -0.14    0.26
 -27 -17  -5    0.00    0.50
   5 -27  17   -0.33    0.34
  27 -17   5   -0.45    0.23
 -17   5  27    0.07    0.42
  27  17  -5   -0.21    0.28
 -17  -5  27    0.15    0.55
  17   5  27   -0.55    0.51
  -5 -27  17    0.09    0.29
  27  17   5   -0.22    0.20
 -27 -17   5   -0.44    0.65
 -19   5  27    0.71    0.48
 -27 -19  -5   -0.40    0.48
  27 -19   5   -0.07    0.24
  27  19  -5   -0.24    0.26
   5 -27  19   -0.20    0.30
  19   5  27   -0.23    0.46
  -5 -27  19   -0.20    0.25
 -19  -5  27    0.76    0.51
 -27 -19   5   -0.69    0.64
  27  19   5   -0.17    0.23
 -27 -21  -5   -0.19    0.57
  27 -21   5   -0.38    0.22
  27  21   5    0.04    0.24
  27  -1   7    0.04    0.17
   1  -7  27    0.83    0.56
  -1   7  27    0.56    0.54
  -7 -27  -1   -0.21    0.20
 -27  -1  -7   -0.27    0.45
  27   1  -7   -0.09    0.17
 -27   1   7   -0.93    0.49
  27  -1  -7    0.20    0.19
  -1  -7  27    0.39    0.54
  -7 -27   1   -0.01    0.21
  27   1   7   -0.19    0.18
   1   7  27    0.57    0.54
 -27  -1   7   -0.41    0.51
 -27   1  -7   -0.22    0.44
  -3   7  27    0.22    0.48
  27   3  -7   -0.24    0.17
   7 -27   3   -0.31    0.21
  27  -3   7   -0.05    0.16
   3  -7  27   -0.22    0.49
 -27  -3  -7    0.07    0.46
  -7 -27   3   -0.26    0.21
 -27   3  -7   -0.67    0.37
 -27  -3   7   -0.66    0.53
  27   3   7   -0.14    0.17
   3   7  27    0.50    0.53
  -3  -7  27    0.27    0.48
  27  -3  -7   -0.10    0.15
   7 -27   5   -0.41    0.22
  27  -5   7    0.06    0.19
   5  -7  27    0.09    0.44
 -27  -5  -7   -0.83    0.41
  -5   7  27   -0.08    0.49
  27   5  -7   -0.28    0.23
 -27   5   7   -1.24    0.49
  27  -5  -7   -0.01    0.17
 -27  -5   7   -0.31    0.59
  -7 -27   5    0.06    0.26
   5   7  27   -0.16    0.52
  27   5   7    0.13    0.18
  -5  -7  27    0.37    0.53
 -27   5  -7    0.06    0.38
 -27   7   7   -0.93    0.46
  27   7  -7   -0.43    0.20
  -7   7  27    0.04    0.39
 -27  -7  -7   -0.80    0.42
  27  -7   7   -0.21    0.17
   7 -27   7   -0.53    0.24
  -7 -27   7   -0.08    0.27
  -7  -7  27    0.19    0.46
  27   7   7   -0.03    0.16
 -27  -7   7   -0.34    0.58
 -27   7  -7   -0.42    0.35
   7   7  27   -1.00    0.51
  27  -7  -7   -0.28    0.14
  27   9  -7   -0.18    0.22
   7 -27   9   -0.37    0.26
  -9   7  27   -0.12    0.40
 -27  -9  -7   -0.17    0.46
 -27   9   7   -1.09    0.45
  27  -9   7   -0.11    0.20
  27  -9  -7   -0.08    0.17
  27   9   7   -0.11    0.17
 -27  -9   7   -0.26    0.61
   9   7  27   -0.28    0.52
  -9  -7  27    0.29    0.50
  -7 -27   9   -0.05    0.25
  27  11  -7   -0.32    0.21
 -11   7  27    0.02    0.39
 -27  11   7   -0.47    0.45
   7 -27  11   -0.52    0.27
  27 -11   7   -0.18    0.21
 -27 -11  -7    0.14    0.44
 -11  -7  27   -0.29    0.50
  27  11   7   -0.11    0.18
  27 -11  -7   -0.19    0.18
  11   7  27   -0.61    0.50
  -7 -27  11   -0.33    0.27
 -27 -11   7   -0.72    0.63
  27  13  -7    0.12    0.25
 -27 -13  -7   -0.12    0.47
   7 -27  13   -0.70    0.29
  27 -13   7   -0.14    0.22
 -13   7  27   -0.06    0.40
 -13  -7  27   -0.01    0.45
  -7 -27  13   -0.01    0.29
  27  13   7   -0.21    0.18
  13   7  27   -0.23    0.54
 -27 -13   7   -0.80    0.68
  27  15  -7    0.01    0.25
 -15   7  27   -0.02    0.43
   7 -27  15   -0.37    0.33
 -27 -15  -7   -0.21    0.44
  27 -15   7   -0.06    0.24
  15   7  27   -0.31    0.48
  -7 -27  15   -0.15    0.30
 -15  -7  27    0.35    0.48
 -27 -15   7   -1.05    0.68
  27  15   7   -0.15    0.22
  27 -17   7   -0.29    0.22
 -17   7  27    0.20    0.45
  27  17  -7   -0.36    0.26
 -27 -17  -7   -0.19    0.49
 -27 -17   7   -0.61    0.60
  27  17   7   -0.29    0.23
  17   7  27   -0.45    0.48
  -7 -27  17    0.20    0.32
 -17  -7  27    0.33    0.57
 -19   7  27    0.90    0.49
 -27 -19  -7    0.00    0.47
  27 -19   7   -0.20    0.25
   7 -27  19   -0.36    0.37
  27  19  -7    0.10    0.31
  27  19   7    0.03    0.27
  19   7  27   -0.06    0.49
 -19  -7  27    0.69    0.45
  -7 -27  19   -0.14    0.31
 -27 -19   7   -1.24    0.68
  27   1  -9   -0.21    0.18
  27  -1   9   -0.05    0.18
  -1   9  27    0.24    0.50
  -9 -27  -1   -0.24    0.24
 -27  -1  -9   -0.82    0.36
 -27   1  -9   -0.58    0.41
  27   1   9   -0.15    0.17
  -9 -27   1   -0.09    0.22
 -27  -1   9   -0.64    0.55
  27  -1  -9   -0.24    0.17
   1   9  27   -0.53    0.42
 -27  -3  -9   -0.52    0.37
 -27   3   9   -0.56    0.52
   9 -27   3   -0.31    0.21
  -3   9  27    0.06    0.48
  27   3  -9   -0.38    0.20
  27  -3   9   -0.35    0.17
  -9 -27   3   -0.31    0.23
 -27  -3   9   -0.86    0.52
   3   9  27   -0.28    0.49
  27   3   9   -0.18    0.16
  27  -3  -9   -0.11    0.17
 -27   3  -9   -0.79    0.40
  -5   9  27    0.74    0.48
 -27  -5  -9   -0.37    0.42
  27  -5   9   -0.31    0.17
   9 -27   5   -0.26    0.25
  27  -5  -9    0.11    0.18
  -9 -27   5   -0.22    0.24
 -27   5  -9    0.07    0.40
   5   9  27   -0.56    0.51
 -27  -5   9   -0.76    0.57
  -5  -9  27   -0.51    0.51
  27   5   9   -0.01    0.19
  27   7  -9   -0.36    0.22
 -27   7   9   -0.70    0.43
 -27  -7  -9    0.00    0.42
   9 -27   7   -0.48    0.24
  -7   9  27    0.62    0.48
  -7  -9  27   -0.33    0.48
  27   7   9   -0.15    0.17
  27  -7  -9   -0.20    0.15
   7   9  27   -0.81    0.59
  -9 -27   7    0.06    0.28
  27  -9   9   -0.37    0.18
  27   9  -9   -0.17    0.23
   9 -27   9   -0.69    0.26
 -27  -9  -9   -0.15    0.44
  -9   9  27   -0.05    0.38
 -27   9   9   -0.96    0.45
  -9 -27   9    0.03    0.28
  27   9   9   -0.09    0.19
 -27  -9   9   -0.38    0.63
   9   9  27   -0.52    0.52
  -9  -9  27    0.60    0.53
 -11   9  27    0.22    0.46
  27  11  -9   -0.15    0.23
   9 -27  11   -0.61    0.30
 -27  11   9   -0.45    0.42
 -27 -11  -9   -0.16    0.40
  27 -11   9   -0.29    0.20
  11   9  27   -0.58    0.46
 -11  -9  27    0.41    0.53
 -27 -11   9   -0.64    0.66
  27  11   9   -0.11    0.20
  -9 -27  11   -0.34    0.23
 -27 -13  -9    0.05    0.48
  27  13  -9   -0.15    0.23
  13  -9  27   -0.35    0.23
   9 -27  13   -0.67    0.31
  27 -13   9   -0.34    0.20
 -13   9  27    0.23    0.45
  27  13   9   -0.28    0.17
  13   9  27   -0.55    0.50
 -27 -13   9   -0.87    0.59
 -13  -9  27    0.15    0.54
  -9 -27  13    0.18    0.34
   9 -27  15   -0.51    0.32
  15  -9  27   -0.22    0.23
  27  15  -9   -0.20    0.26
  27 -15   9   -0.33    0.21
 -27 -15  -9    0.37    0.48
 -15   9  27    0.09    0.45
  15   9  27   -0.29    0.51
  -9 -27  15   -0.13    0.29
  27  15   9   -0.30    0.19
 -15  -9  27    0.56    0.52
 -27 -15   9   -0.66    0.66
  27 -17   9   -0.22    0.25
  17  -9  27    0.01    0.25
  27  17  -9    0.10    0.28
   9 -27  17   -0.75    0.32
 -27 -17  -9    0.00    0.52
 -17   9  27    0.14    0.38
 -17  -9  27    1.04    0.58
  17   9  27   -0.67    0.51
 -27 -17   9   -0.97    0.63
  -9 -27  17    0.04    0.29
  27  17   9   -0.38    0.21
  19  -9  27   -0.15    0.24
 -27 -19  -9    0.44    0.51
  27 -19   9   -0.26    0.24
 -19  -9  27    0.23    0.48
   1 -11  27    0.26    0.26
 -11 -27  -1   -0.34    0.24
  27  -1  11   -0.07    0.19
 -27   1  11   -0.18    0.59
  -1  11  27    0.40    0.54
 -27  -1 -11   -0.24    0.40
  27   1 -11   -0.38    0.21
 -27  -1  11   -0.15    0.54
 -11 -27   1   -0.08    0.24
  27   1  11    0.04    0.20
 -27   1 -11    0.20    0.41
  27  -1 -11   -0.28    0.18
   1  11  27    0.28    0.54
 -27   3  11   -0.84    0.47
  11 -27   3   -0.36    0.26
  27  -3  11   -0.20    0.17
   3 -11  27   -0.10    0.22
 -27  -3 -11    0.37    0.44
  -3  11  27   -0.11    0.44
   3  11  27    0.04    0.52
  27  -3 -11   -0.12    0.18
 -11 -27   3   -0.45    0.23
 -27  -3  11   -0.61    0.56
  27   3  11   -0.08    0.18
 -27   3 -11   -0.48    0.37
  27  -5  11   -0.14    0.17
  -5  11  27   -0.34    0.42
  11 -27   5   -0.42    0.27
 -27   5  11   -0.40    0.48
   5 -11  27   -0.02    0.24
 -27  -5 -11   -0.34    0.39
  27   5 -11   -0.34    0.20
   5  11  27   -0.20    0.48
 -27   5 -11   -0.13    0.38
 -11 -27   5    0.05    0.27
  27   5  11   -0.16    0.18
  27  -5 -11   -0.06    0.17
  11 -27   7   -0.61    0.27
 -27   7  11   -0.48    0.50
  27  -7  11   -0.13    0.21
  -7  11  27   -0.08    0.36
   7 -11  27   -0.28    0.23
 -27  -7 -11    0.23    0.42
  27   7 -11   -0.47    0.20
  27   7  11    0.02    0.18
   7  11  27   -0.55    0.51
 -27  -7  11   -0.94    0.64
 -11 -27   7   -0.30    0.26
  27  -9  11   -0.30    0.18
  27   9 -11   -0.03    0.25
 -27   9  11   -0.50    0.43
 -27  -9 -11    0.07    0.42
  -9  11  27    0.10    0.39
   9 -11  27   -0.05    0.25
  11 -27   9   -0.35    0.26
   9  11  27   -0.12    0.54
 -27  -9  11   -1.49    0.65
 -11 -27   9   -0.19    0.27
  27   9  11   -0.03    0.18
  27  11 -11   -0.05    0.26
  27 -11  11   -0.35    0.18
 -11  11  27   -0.10    0.36
 -27  11  11    0.14    0.50
 -27 -11 -11   -0.16    0.38
  11 -11  27   -0.32    0.24
  11 -27  11   -0.48    0.29
 -11 -27  11   -0.31    0.28
  11  11  27   -0.16    0.49
  27  11  11    0.02    0.20
 -27 -11  11   -0.61    0.69
 -27 -13 -11    0.04    0.44
  27  13 -11   -0.47    0.27
 -27  13  11   -0.50    0.42
 -13  11  27   -0.14    0.43
  11 -27  13   -0.48    0.29
  13 -11  27   -0.59    0.22
  27 -13  11   -0.05    0.24
 -11 -27  13   -0.06    0.32
  27  13  11   -0.15    0.18
  13  11  27   -0.31    0.51
 -27 -13  11   -1.23    0.70
  15 -11  27   -0.31    0.27
  27 -15  11   -0.24    0.21
  11 -27  15   -0.65    0.27
  27  15 -11    0.04    0.29
 -27 -15 -11    0.25    0.42
 -15  11  27   -0.06    0.44
  27  15  11   -0.22    0.19
  15  11  27   -0.03    0.52
 -11 -27  15   -0.07    0.36
  11 -27  17    0.03    0.38
  17 -11  27   -0.24    0.27
  27 -17  11   -0.23    0.25
 -27 -17 -11    0.43    0.48
 -17  11  27    0.66    0.43
  27  17 -11    0.00    0.33
 -17 -11  27    0.48    0.59
  17  11  27   -0.32    0.53
 -11 -27  17   -0.24    0.26
 -27 -17  11   -1.33    0.67
 -19 -11  27    1.00    0.59
 -13 -27  -1   -0.37    0.23
   1 -13  27   -0.23    0.27
  27   1 -13   -0.42    0.18
  -1  13  27    0.05    0.52
 -27  -1 -13   -0.14    0.42
 -27   1  13   -0.46    0.55
  27  -1  13   -0.18    0.18
 -27  -1  13   -0.45    0.53
  27   1  13   -0.29    0.18
   1  13  27   -0.16    0.46
 -27   1 -13    0.01    0.40
  -1 -13  27    0.10    0.30
  27  -1 -13   -0.33    0.20
 -13 -27   1    0.03    0.26
   3 -13  27   -0.13    0.28
  27  -3  13   -0.40    0.18
 -27   3  13   -0.21    0.52
  27   3 -13   -0.50    0.21
  13 -27   3   -0.59    0.24
  -3  13  27   -0.33    0.42
 -27   3 -13   -0.38    0.35
   3  13  27    0.10    0.53
  -3 -13  27   -0.12    0.28
  27  -3 -13   -0.14    0.19
  27   3  13   -0.24    0.17
 -13 -27   3   -0.31    0.24
 -27  -3  13   -0.69    0.53
  27  -5  13   -0.29    0.18
  27   5 -13   -0.53    0.20
   5 -13  27   -0.31    0.25
  13 -27   5   -0.16    0.26
  -5  13  27    0.09    0.44
 -27   5  13   -0.19    0.52
 -27  -5  13   -0.18    0.64
   5  13  27   -0.41    0.55
 -27   5 -13   -0.17    0.38
  27   5  13   -0.14    0.18
 -13 -27   5   -0.20    0.24
  -5 -13  27   -0.05    0.27
  27   7 -13   -0.18    0.22
 -27   7  13   -0.48    0.45
  27  -7  13   -0.23    0.20
  13 -27   7   -0.33    0.27
   7 -13  27   -0.10    0.24
  -7  13  27    0.06    0.37
   7  13  27   -0.48    0.54
 -13 -27   7   -0.46    0.30
 -27  -7  13   -1.37    0.58
  -7 -13  27   -0.28    0.26
  27   7  13   -0.20    0.15
   9 -13  27    0.00    0.26
  13 -27   9   -0.31    0.26
 -27   9  13   -0.45    0.47
  27  -9  13   -0.38    0.20
  -9  13  27    0.13    0.39
  27   9 -13   -0.17    0.23
  27   9  13   -0.14    0.17
 -27  -9  13   -1.07    0.63
   9  13  27   -0.48    0.48
 -13 -27   9   -0.18    0.32
  27  11 -13   -0.33    0.25
  13 -27  11   -0.37    0.31
 -11  13  27    0.39    0.45
  11 -13  27   -0.48    0.25
 -27  11  13    0.08    0.47
  27 -11  13   -0.44    0.21
 -13 -27  11   -0.62    0.32
  11  13  27   -0.24    0.57
 -27 -11  13   -1.06    0.74
  27  11  13   -0.10    0.20
  27 -13  13   -0.16    0.24
  13 -27  13   -0.36    0.27
 -27  13  13    0.15    0.48
  27  13 -13   -0.23    0.26
  13 -13  27   -0.47    0.26
 -13  13  27    0.25    0.47
 -13 -27  13   -0.11    0.28
  13  13  27   -0.24    0.51
  27  13  13    0.04    0.19
  13 -27  15   -0.29    0.32
  27 -15  13    0.03    0.24
 -15  13  27    0.15    0.38
  15 -13  27   -0.34    0.28
  27  15 -13    0.01    0.30
 -27 -15  13   -1.38    0.67
  15  13  27   -0.21    0.42
 -13 -27  15   -0.08    0.37
  17 -13  27   -0.23    0.26
 -27 -17  13   -0.90    0.73
  -1  15  27    0.13    0.51
  27   1 -15   -0.36    0.19
 -27   1  15   -0.62    0.53
  27  -1  15    0.07    0.22
   1 -15  27    0.21    0.32
 -15 -27  -1   -0.26    0.27
  27   1  15   -0.09    0.21
 -27  -1  15    0.31    0.60
 -15 -27   1    0.20    0.28
  -1 -15  27    0.07    0.31
   1  15  27    0.56    0.54
 -27   3  15    0.30    0.56
  -3  15  27    0.46    0.54
  27  -3  15   -0.03    0.22
  27   3 -15   -0.40    0.22
  15 -27   3   -0.17    0.27
   3 -15  27   -0.09    0.30
 -15 -27   3    0.12    0.30
  -3 -15  27   -0.01    0.28
 -27  -3  15   -0.35    0.60
 -27   3 -15    0.16    0.44
  27   3  15   -0.09    0.19
   3  15  27   -0.05    0.54
  15 -27   5   -0.22    0.28
   5 -15  27   -0.12    0.29
  27  -5  15   -0.18    0.18
  27   5 -15   -0.07    0.21
  -5  15  27    0.22    0.51
 -27   5  15   -0.23    0.49
   5  15  27   -0.16    0.55
 -27  -5  15    0.12    0.68
 -27   5 -15    0.48    0.44
 -15 -27   5    0.13    0.29
  27   5  15    0.23    0.47
  -5 -15  27    0.03    0.32
  27   5  15   -0.04    0.18
   7 -15  27   -0.14    0.29
  27   7 -15   -0.13    0.25
  15 -27   7   -0.50    0.28
 -27   7  15   -0.44    0.43
  27  -7  15   -0.08    0.22
  -7  15  27    0.36    0.45
 -15 -27   7   -0.36    0.29
  27   7  15   -0.03    0.18
   7  15  27   -0.09    0.52
  27   7  15   -0.04    0.49
 -27  -7  15   -0.54    0.65
  -7 -15  27   -0.12    0.30
  27   9 -15    0.08    0.27
   9 -15  27   -0.17    0.30
  27  -9  15   -0.22    0.20
  15 -27   9   -0.08    0.34
  -9  15  27   -0.17    0.39
 -27   9  15   -0.41    0.45
 -15 -27   9   -0.09    0.30
  -9 -15  27   -0.04    0.32
 -27  -9  15   -0.99    0.59
  27   9  15   -0.10    0.19
   9  15  27    0.18    0.56
  27   9  15    0.02    0.44
  27  11 -15   -0.32    0.28
 -11  15  27    0.05    0.46
  11 -15  27   -0.01    0.33
 -27  11  15    0.16    0.50
  15 -27  11   -0.51    0.29
  27 -11  15   -0.03    0.24
  27  11  15   -0.48    0.42
 -27 -11  15   -0.60    0.72
  11  15  27    0.30    0.55
 -11 -15  27   -0.27    0.34
 -15 -27  11   -0.55    0.26
 -27  13  15    0.30    0.49
  27  13 -15   -0.04    0.29
  27 -13  15   -0.26    0.20
  13 -15  27   -0.55    0.32
 -13  15  27    0.50    0.43
  15 -27  13    0.02    0.33
 -13 -15  27   -0.12    0.34
  13  15  27    0.36    0.54
 -27 -13  15   -0.82    0.64
 -15 -27  13   -0.11    0.30
  27  13  15   -0.21    0.43
 -15  15  27    0.39    0.41
  15 -15  27   -0.50    0.29
  -1  17  27    0.08    0.50
 -27   1  17   -0.17    0.58
 -17 -27  -1   -0.53    0.23
  27  -1  17   -0.37    0.20
   1 -17  27   -0.21    0.31
  27   1  17   -0.41    0.41
 -17 -27   1   -0.38    0.26
  27   1  17   -0.36    0.20
   1  17  27   -0.13    0.48
  -1 -17  27   -0.29    0.31
 -27  -1  17    0.28    0.60
  27  -3  17   -0.29    0.22
  -3  17  27    0.08    0.50
 -27   3  17   -0.25    0.56
   3 -17  27    0.19    0.37
 -27  -3  17   -0.23    0.67
  27   3  17   -0.10    0.21
  -3 -17  27    0.06    0.37
  27   3  17   -0.79    0.46
 -17 -27   3   -0.29    0.29
   3  17  27   -0.43    0.50
  -5  17  27   -0.16    0.46
   5 -17  27   -0.30    0.30
  27   5 -17    0.01    0.27
  27  -5  17   -0.33    0.23
  17 -27   5   -0.28    0.28
 -27   5  17   -0.40    0.55
  27   5  17   -0.77    0.48
   5  17  27   -0.10    0.56
  -5 -17  27   -0.16    0.34
 -17 -27   5    0.15    0.31
  27   5  17   -0.26    0.18
 -27  -5  17   -0.16    0.68
  27   7 -17   -0.12    0.26
 -27   7  17   -0.08    0.53
  27  -7  17   -0.41    0.22
  -7  17  27    0.57    0.52
  17 -27   7   -0.66    0.26
   7 -17  27   -0.07    0.29
  27   7  17   -0.38    0.48
 -27  -7  17   -0.79    0.64
   7  17  27   -0.21    0.58
 -17 -27   7   -0.73    0.28
  27   7  17   -0.19    0.19
  -7 -17  27    0.09    0.36
 -27   9  17    0.02    0.52
  17 -27   9   -0.25    0.30
   9 -17  27   -0.12    0.33
  27  -9  17   -0.17    0.22
  27   9 -17   -0.30    0.26
  -9  17  27    0.29    0.48
   9  17  27   -0.68    0.44
 -27  -9  17   -1.06    0.63
  -9 -17  27   -0.04    0.34
  27   9  17   -0.53    0.46
 -17 -27   9    0.05    0.30
  27 -11  17   -0.16    0.24
  27  11 -17   -0.27    0.24
  11 -17  27   -0.14    0.37
 -11  17  27    0.90    0.47
 -27  11  17    0.44    0.48
  11  17  27   -0.10    0.52
  27  11  17   -0.89    0.38
 -11 -17  27    0.14    0.36
 -17 -27  11   -0.52    0.29
 -27 -11  17   -0.91    0.62
 -27  13  17    0.77    0.48
  17 -27  13   -0.53    0.28
  13 -17  27   -0.40    0.32
 -13  17  27    0.97    0.44
  27  13 -17    0.14    0.31
 -27 -13  17   -0.34    0.69
 -13 -17  27    0.17    0.32
   1 -19  27   -0.30    0.35
  27  -1  19   -0.49    0.41
 -27   1  19   -0.41    0.48
  27  -1  19   -0.03    0.21
 -19 -27  -1   -0.38    0.29
  -1  19  27    0.64    0.58
 -19 -27   1   -0.24    0.29
   1  19  27    0.33    0.57
  27   1  19   -0.25    0.21
  -1 -19  27    0.28    0.37
 -27  -1  19   -0.51    0.52
  27   1  19   -0.14    0.45
  -3  19  27    0.17    0.55
  27  -3  19   -0.32    0.21
   3 -19  27   -0.14    0.35
 -27   3  19    0.20    0.51
  27  -3  19   -0.34    0.38
   3  19  27    0.31    0.60
  -3 -19  27   -0.33    0.34
  27   3  19   -0.24    0.43
 -19 -27   3   -0.33    0.28
  27   3  19   -0.09    0.19
 -27  -3  19   -0.27    0.61
  19 -27   5   -0.27    0.28
   5 -19  27   -0.33    0.34
  -5  19  27    0.07    0.52
 -27   5  19    0.13    0.48
  27  -5  19   -0.21    0.21
 -19 -27   5   -0.07    0.27
  -5 -19  27   -0.38    0.34
  27   5  19   -0.19    0.47
   5  19  27    0.20    0.51
 -27  -5  19    0.20    0.67
  19 -27   7   -0.50    0.25
  27   7 -19    0.07    0.31
  27  -7  19   -0.15    0.22
   7 -19  27   -0.08    0.38
  -7  19  27   -0.02    0.46
 -27   7  19    0.60    0.48
 -19 -27   7   -0.14    0.33
 -27  -7  19   -0.57    0.65
  -7 -19  27   -0.29    0.33
  27   7  19   -0.39    0.42
   7  19  27    0.11    0.49
  27  -9  19   -0.26    0.21
   9 -19  27   -0.27    0.35
  -9  19  27    0.52    0.42
  19 -27   9   -0.42    0.26
 -27   9  19    0.47    0.42
  27   9 -19    0.00    0.26
 -27  -9  19   -0.60    0.60
 -19 -27   9   -0.05    0.31
  -9 -19  27   -0.14    0.33
   9  19  27    0.49    0.54
 -11 -19  27   -0.30    0.30
 -27 -11  19   -0.37    0.66
  -1  21  27    0.12    0.48
  27  -1  21   -0.49    0.20
   1 -21  27   -0.26    0.33
  27  -1  21   -0.23    0.43
 -21 -27  -1   -0.37    0.29
  27   1  21   -0.32    0.21
 -21 -27   1   -0.32    0.28
  27   1  21   -0.44    0.44
   1  21  27    0.23    0.49
  -1 -21  27   -0.21    0.37
   3 -21  27   -0.33    0.35
  27  -3  21   -0.61    0.40
  27  -3  21   -0.27    0.23
  -3  21  27    1.00    0.56
  27   3  21   -0.36    0.42
   3  21  27   -0.34    0.52
  -3 -21  27   -0.06    0.37
  21 -27   5   -0.44    0.26
  27  -5  21   -0.03    0.25
  -5  21  27    0.35    0.48
  -5 -21  27    0.17    0.37
   5  21  27    0.13    0.50
 -21 -27   5    0.03    0.33
 -28   0   0   27.02    2.16
   0   0  28   27.01    2.42
  28   0   0   26.68    1.83
  -2   0  28    0.28    0.64
   0 -28   2    0.35    0.27
   2   0  28   -0.13    0.68
  28  -2   0    0.05    0.22
  28   2   0    0.11    0.22
 -28   2   0   -0.39    0.47
 -28  -2   0    0.24    0.54
  28   4   0   37.80    2.41
   0 -28   4   38.51    2.54
 -28  -4   0   38.36    2.86
 -28   4   0   37.10    2.68
  -4   0  28   39.54    2.96
  28  -4   0   36.27    2.37
   4   0  28   39.85    3.12
   6   0  28    0.28    0.65
 -28  -6   0   -0.62    0.52
  -6   0  28    0.13    0.52
 -28   6   0   -0.62    0.47
  28  -6   0    0.42    0.24
  28   6   0    0.33    0.25
   0 -28   6    0.29    0.28
  28  -8   0   25.12    1.73
   8   0  28   24.50    2.29
   0 -28   8   25.56    1.96
  -8   0  28   24.38    2.15
 -28   8   0   24.24    1.95
  28   8   0   23.61    1.74
 -28  -8   0   25.52    2.23
 -10   0  28    0.78    0.57
 -28 -10   0   -0.52    0.62
  10   0  28    0.66    0.67
  28 -10   0    0.10    0.23
   0 -28  10    0.49    0.33
  28  10   0    0.39    0.23
 -28  10   0   -0.98    0.48
  12   0  28   28.98    2.52
  28 -12   0   31.73    2.04
   0 -28  12   31.55    2.31
 -12   0  28   27.52    2.37
  28  12   0   29.54    2.05
 -28 -12   0   28.85    2.52
  28 -14   0    0.35    0.25
  28  14   0    0.69    0.28
  14   0  28    0.70    0.56
   0 -28  14    0.23    0.35
 -28 -14   0   -0.05    0.61
 -14   0  28    0.64    0.52
 -16   0  28   19.26    1.85
  28  16   0   19.96    1.59
  28 -16   0   20.46    1.58
   0 -28  16   20.52    1.86
  16   0  28   19.10    1.94
 -28 -16   0   21.25    2.05
  18   0  28    0.20    0.54
 -18   0  28    0.84    0.52
   0 -28  18    0.08    0.34
  28  18   0   -0.04    0.23
  28 -18   0   -0.01    0.24
 -28 -18   0    0.06    0.64
  20   0  28   15.97    1.72
  28  20   0   16.69    1.47
 -28 -20   0   15.85    1.78
 -28   0  -2   -1.16    0.50
  28   0  -2    0.07    0.21
   0  -2  28    0.77    0.66
   0   2  28    0.57    0.68
 -28   0   2   -0.14    0.59
  28   0   2    0.21    0.21
   2 -28   2    0.06    0.25
  28  -2   2    0.04    0.23
 -28   2   2   -0.77    0.50
  28   2  -2   -0.10    0.23
 -28  -2  -2    0.15    0.50
   2  -2  28    0.27    0.64
  -2   2  28    0.59    0.63
 -28  -2   2   -0.29    0.59
 -28   2  -2    0.10    0.49
  -2  -2  28    0.71    0.62
  -2 -28   2    0.19    0.26
  28  -2  -2   -0.20    0.22
   2   2  28    0.26    0.69
  28   2   2   -0.21    0.22
  28  -4   2    0.26    0.21
  -4   2  28    0.79    0.57
 -28  -4  -2   -1.11    0.56
   4  -2  28    0.63    0.65
   2 -28   4   -0.07    0.29
  28   4  -2   -0.01    0.22
 -28   4   2   -0.34    0.57
  28  -4  -2    0.29    0.23
 -28   4  -2   -0.98    0.49
  -4  -2  28    0.71    0.60
 -28  -4   2   -1.06    0.57
  -2 -28   4   -0.08    0.27
  28   4   2    0.00    0.22
   4   2  28    0.60    0.68
   6  -2  28   -0.02    0.59
  -6   2  28    0.17    0.51
  28  -6   2    0.17    0.21
 -28  -6  -2   -0.52    0.47
 -28   6   2   -0.73    0.46
  28   6  -2    0.05    0.22
   2 -28   6   -0.18    0.27
   6   2  28    0.67    0.66
  -6  -2  28    0.19    0.53
  -2 -28   6    0.02    0.26
  28  -6  -2   -0.32    0.19
 -28  -6   2   -0.26    0.57
  28   6   2   -0.17    0.22
 -28   6  -2   -0.66    0.45
  28  -8   2    0.40    0.25
  28   8  -2    0.29    0.24
 -28   8   2   -0.43    0.52
   2 -28   8   -0.31    0.33
  -8   2  28    0.89    0.59
   8  -2  28    0.45    0.56
 -28  -8  -2   -0.11    0.60
  28   8   2    0.13    0.22
 -28   8  -2   -1.02    0.48
 -28  -8   2   -1.16    0.63
  -2 -28   8    0.16    0.31
  -8  -2  28    0.57    0.60
  28  -8  -2    0.04    0.21
   8   2  28    1.04    0.68
   2 -28  10    0.01    0.31
  28 -10   2    0.14    0.21
 -10   2  28    0.37    0.48
 -28 -10  -2    0.08    0.57
  28  10  -2    0.25    0.23
 -28  10   2   -0.76    0.49
  10  -2  28    0.35    0.47
  28 -10  -2    0.01    0.21
  28  10   2   -0.25    0.19
 -10  -2  28    0.25    0.54
  -2 -28  10    0.12    0.31
  10   2  28    0.52    0.58
 -28 -10   2   -0.93    0.50
   2 -28  12    0.12    0.39
 -28 -12  -2    0.00    0.65
  12  -2  28    0.79    0.58
  28  12  -2    0.48    0.27
  28 -12   2    0.43    0.25
 -12   2  28    1.20    0.61
  28 -12  -2    0.44    0.23
 -12  -2  28    1.00    0.59
  -2 -28  12    0.26    0.37
  28  12   2    0.43    0.27
  12   2  28    0.03    0.49
 -28 -12   2   -1.46    0.66
  28 -14   2    0.12    0.24
   2 -28  14    0.10    0.36
 -28 -14  -2    0.51    0.63
  28  14  -2    0.09    0.25
  14  -2  28    0.23    0.50
 -14   2  28    0.76    0.51
  -2 -28  14    0.09    0.32
 -14  -2  28    0.35    0.47
  14   2  28   -0.19    0.48
 -28 -14   2   -0.45    0.62
  28 -14  -2    0.20    0.22
  28  14   2    0.18    0.23
  16  -2  28    0.50    0.56
 -28 -16  -2    0.39    0.65
   2 -28  16    0.33    0.44
  28 -16   2    0.47    0.27
 -16   2  28    1.53    0.57
  28  16  -2    0.70    0.30
  -2 -28  16    0.16    0.35
 -16  -2  28    1.26    0.60
  28 -16  -2    0.42    0.26
  28  16   2    0.76    0.29
  16   2  28    0.57    0.59
 -28 -16   2   -0.22    0.72
  28 -18   2    0.13    0.27
  18  -2  28    0.78    0.58
 -18   2  28    0.56    0.54
   2 -28  18   -0.37    0.38
 -28 -18  -2   -0.05    0.58
  28  18  -2   -0.26    0.25
  -2 -28  18    0.11    0.33
  28  18   2    0.29    0.26
 -18  -2  28    0.68    0.54
  18   2  28    0.66    0.55
 -28 -18   2   -0.62    0.60
 -28 -20  -2    0.11    0.58
  28 -20   2    0.43    0.30
  20  -2  28    0.57    0.52
 -28 -20   2   -0.38    0.71
  20   2  28    0.52    0.52
  28  20   2    0.53    0.33
  28   0   4   38.61    2.46
  28   0  -4   36.12    2.43
 -28   0   4   37.44    2.84
   0   4  28   45.01    3.22
 -28   0  -4   38.85    2.80
   0  -4  28   43.05    3.15
   2  -4  28    1.10    0.75
 -28   2   4   -0.83    0.53
   4 -28   2    0.10    0.28
  28   2  -4    0.11    0.23
  -2   4  28    0.55    0.63
  28  -2   4    0.40    0.26
 -28  -2  -4    0.40    0.50
  -2  -4  28    0.43    0.64
  28  -2  -4    0.05    0.22
 -28   2  -4    0.11    0.51
  -4 -28   2    0.44    0.27
 -28  -2   4   -1.12    0.55
  28   2   4    0.23    0.23
   2   4  28   -0.01    0.65
  28   4  -4   29.23    1.99
   4 -28   4   31.26    2.15
 -28   4   4   27.76    2.25
  -4   4  28   28.19    2.42
  28  -4   4   28.03    1.96
 -28  -4  -4   31.72    2.39
   4  -4  28   28.61    2.50
 -28  -4   4   30.32    2.46
 -28   4  -4   29.32    2.21
  28   4   4   29.33    1.98
  -4 -28   4   26.51    2.05
   4   4  28   34.58    2.75
  -4  -4  28   28.03    2.42
  28  -4  -4   29.50    1.95
 -28  -6  -4    0.30    0.51
  28  -6   4    0.27    0.23
  28   6  -4    0.25    0.23
   4 -28   6    0.49    0.31
 -28   6   4    0.45    0.56
   6  -4  28    0.41    0.57
  -6   4  28    0.42    0.52
   6   4  28    0.89    0.71
  28  -6  -4    0.06    0.23
 -28  -6   4   -0.49    0.62
  -6  -4  28    0.16    0.53
  28   6   4    0.03    0.23
  -4 -28   6    0.17    0.27
 -28   6  -4    0.37    0.48
  28   8  -4   35.25    2.24
  -8   4  28   31.22    2.57
   8  -4  28   37.99    2.80
 -28   8   4   34.84    2.48
 -28  -8  -4   31.13    2.59
  28  -8   4   32.53    2.18
   4 -28   8   35.60    2.43
   8   4  28   36.50    2.91
  -8  -4  28   32.48    2.65
  28   8   4   31.37    2.17
 -28   8  -4   32.88    2.38
  -4 -28   8   33.21    2.37
 -28  -8   4   32.56    2.73
  28  -8  -4   32.82    2.15
  28  10  -4    0.21    0.25
 -10   4  28    0.94    0.59
 -28 -10  -4    0.85    0.61
  28 -10   4    0.25    0.23
   4 -28  10    0.21    0.33
  10  -4  28    0.53    0.58
 -28  10   4    0.26    0.53
  28 -10  -4    0.13    0.22
  10   4  28    0.90    0.69
  -4 -28  10    0.30    0.33
 -28 -10   4   -0.52    0.60
 -10  -4  28    0.69    0.53
  28  10   4   -0.12    0.21
 -28 -12  -4   22.40    2.04
 -12   4  28   21.41    1.95
  28 -12   4   22.98    1.68
  28  12  -4   22.16    1.68
  12  -4  28   22.51    2.00
   4 -28  12   23.78    1.95
  -4 -28  12   22.29    1.88
  28 -12  -4   22.71    1.62
  12   4  28   20.63    2.11
 -12  -4  28   20.83    1.95
  28  12   4   22.96    1.66
 -28 -12   4   20.47    2.16
  28  14  -4    0.11    0.23
  14  -4  28    0.40    0.48
 -14   4  28    0.94    0.51
 -28 -14  -4    1.08    0.60
  28 -14   4    0.32    0.27
   4 -28  14    0.40    0.39
  14   4  28   -0.10    0.56
  28  14   4    0.20    0.24
  28 -14  -4    0.21    0.24
  -4 -28  14    0.13    0.34
 -14  -4  28    1.05    0.55
 -28 -14   4   -0.62    0.67
 -28 -16  -4   22.20    2.05
  28  16  -4   21.67    1.74
 -16   4  28   22.53    1.96
  28 -16   4   21.35    1.69
   4 -28  16   22.10    1.97
  -4 -28  16   22.14    1.93
 -28 -16   4   20.98    2.17
 -16  -4  28   21.57    2.00
  16   4  28   22.68    2.17
  28  16   4   21.20    1.65
  28 -18   4    0.17    0.26
 -28 -18  -4    0.24    0.52
   4 -28  18    0.05    0.40
  28  18  -4    0.06    0.27
 -18   4  28    0.78    0.47
  -4 -28  18   -0.07    0.33
 -28 -18   4   -1.15    0.62
 -18  -4  28    0.95    0.54
  28  18   4    0.38    0.27
  18   4  28   -0.20    0.53
  28 -20   4   13.08    1.29
 -28 -20  -4   12.43    1.47
 -28 -20   4   11.75    1.63
  28  20   4   11.65    1.17
  -6 -28   0   -0.09    0.28
  28   0  -6    0.12    0.23
 -28   0  -6   -0.14    0.47
 -28   0   6   -0.55    0.55
  28   0   6    0.33    0.22
   0   6  28   -0.20    0.55
   0  -6  28    0.48    0.57
  28  -2   6   -0.11    0.21
  28   2  -6   -0.24    0.21
 -28   2   6   -0.20    0.55
   6 -28   2   -0.26    0.23
   2  -6  28   -0.15    0.59
  -2   6  28    0.42    0.56
 -28  -2  -6    0.44    0.50
  28   2   6   -0.24    0.21
  -6 -28   2   -0.05    0.25
 -28   2  -6   -0.09    0.45
   2   6  28   -0.30    0.60
 -28  -2   6   -0.73    0.60
  28  -2  -6   -0.35    0.22
  -2  -6  28    1.08    0.64
 -28   4   6   -0.06    0.55
 -28  -4  -6    0.03    0.53
  28  -4   6    0.36    0.24
  -4   6  28    1.13    0.61
  28   4  -6    0.51    0.27
   4  -6  28    0.36    0.64
   6 -28   4    0.45    0.34
  28   4   6    0.27    0.23
 -28   4  -6   -0.49    0.50
   4   6  28    0.21    0.59
  28  -4  -6    0.14    0.24
  -6 -28   4   -0.10    0.29
  -4  -6  28    1.40    0.61
 -28  -4   6   -1.07    0.55
   6  -6  28    0.03    0.59
  28  -6   6   -0.02    0.19
  28   6  -6    0.00    0.23
 -28  -6  -6   -0.15    0.47
   6 -28   6   -0.19    0.21
 -28   6   6   -0.11    0.49
  -6   6  28    0.28    0.50
  28   6   6   -0.49    0.23
  -6  -6  28    0.22    0.50
   6   6  28    0.19    0.65
 -28   6  -6   -0.15    0.41
  28  -6  -6   -0.46    0.22
 -28  -6   6   -1.01    0.64
  -6 -28   6   -0.04    0.25
 -28   8   6   -0.21    0.56
 -28  -8  -6    0.32    0.52
  -8   6  28    1.26    0.56
   6 -28   8    0.47    0.38
  28  -8   6    0.43    0.23
  28   8  -6    0.69    0.28
  -6 -28   8    0.02    0.32
   8   6  28    1.02    0.63
 -28  -8   6   -0.42    0.73
  28   8   6    0.26    0.26
  -8  -6  28    0.72    0.55
  28  -8  -6    0.17    0.23
 -28   8  -6   -1.09    0.48
  28  10  -6    0.17    0.25
 -28  10   6    0.01    0.51
   6 -28  10    0.07    0.32
  28 -10   6    0.09    0.21
 -10   6  28    0.72    0.52
 -28 -10  -6    0.43    0.52
 -10  -6  28    0.58    0.52
  28  10   6   -0.03    0.22
  28 -10  -6    0.10    0.23
  10   6  28    0.94    0.68
 -28 -10   6   -0.77    0.69
  -6 -28  10    0.29    0.33
 -28 -12  -6    0.72    0.60
 -12   6  28    1.08    0.51
   6 -28  12    0.08    0.34
  28  12  -6    0.85    0.31
  28 -12   6    0.06    0.23
  28  12   6    0.63    0.26
 -28 -12   6   -0.56    0.81
  -6 -28  12    0.41    0.38
  12   6  28    0.56    0.62
  28 -12  -6    0.29    0.25
 -12  -6  28    1.43    0.58
   6 -28  14   -0.14    0.35
 -14   6  28    0.73    0.50
 -28 -14  -6   -0.20    0.48
  28 -14   6   -0.02    0.23
  28  14  -6   -0.01    0.26
 -28 -14   6   -1.58    0.63
  28  14   6    0.02    0.23
  -6 -28  14    0.09    0.32
 -14  -6  28    0.25    0.50
  14   6  28    0.05    0.57
 -28 -16  -6    0.35    0.57
 -16   6  28    1.00    0.49
   6 -28  16    0.51    0.43
  28  16  -6    0.12    0.30
  28 -16   6    0.38    0.28
  -6 -28  16    0.32    0.40
  16   6  28    0.03    0.60
  28  16   6    0.42    0.27
 -16  -6  28    1.02    0.59
 -28 -16   6   -0.52    0.78
  28 -18   6   -0.24    0.23
 -28 -18  -6    0.23    0.50
 -18   6  28    0.97    0.45
  28  18  -6   -0.15    0.28
   6 -28  18    0.15    0.42
 -28 -18   6   -1.30    0.61
 -18  -6  28    1.12    0.57
  18   6  28   -0.28    0.51
  -6 -28  18   -0.18    0.29
  28  18   6   -0.06    0.25
   0   8  28   28.89    2.38
  -8 -28   0   21.88    1.79
  28   0  -8   24.84    1.75
  28   0   8   23.74    1.73
 -28   0  -8   27.57    2.06
 -28   0   8   23.24    2.10
  28   2  -8    0.34    0.26
  -2   8  28    0.58    0.64
  28  -2   8    0.56    0.25
 -28  -2  -8    0.96    0.50
 -28   2   8   -0.58    0.49
  -2  -8  28   -0.33    0.63
  28   2   8    0.25    0.25
   2   8  28   -0.75    0.56
 -28  -2   8    0.35    0.60
  -8 -28   2    0.27    0.26
  28  -2  -8    0.04    0.23
 -28   2  -8    0.79    0.48
 -28  -4  -8   36.39    2.66
  28  -4   8   32.72    2.25
  28   4  -8   33.24    2.26
 -28   4   8   33.31    2.59
  -4   8  28   35.89    2.73
   8 -28   4   39.60    2.50
  28  -4  -8   32.79    2.21
   4   8  28   41.89    3.04
 -28   4  -8   34.16    2.48
  28   4   8   32.55    2.23
 -28  -4   8   33.76    2.76
  -8 -28   4   33.91    2.41
  -4  -8  28   37.76    2.80
  -6   8  28    0.28    0.46
   8 -28   6    0.33    0.32
  28   6  -8    0.57    0.28
 -28   6   8    1.26    0.61
 -28  -6  -8    0.77    0.54
  28  -6   8    0.21    0.22
  28  -6  -8    0.13    0.24
   6   8  28    0.26    0.59
  28   6   8    0.02    0.22
  -8 -28   6    0.22    0.28
  -6  -8  28    1.14    0.62
 -28  -6   8    0.02    0.73
 -28   6  -8    0.40    0.45
  28   8  -8   24.55    1.78
 -28   8   8   24.53    1.99
   8 -28   8   23.64    1.93
  -8   8  28   21.84    1.99
  28  -8   8   22.57    1.73
 -28  -8  -8   23.37    2.06
  28  -8  -8   25.00    1.70
  -8 -28   8   23.11    1.90
  -8  -8  28   26.34    2.17
 -28  -8   8   21.70    2.24
  28   8   8   23.03    1.70
   8   8  28   31.23    2.49
  28  10  -8    0.47    0.28
   8 -28  10    0.13    0.30
  28 -10   8    0.30    0.26
 -10   8  28    0.43    0.47
 -28 -10  -8    0.90    0.55
 -28  10   8    0.43    0.53
  -8 -28  10    0.37    0.34
  28  10   8   -0.06    0.23
 -28 -10   8   -0.63    0.68
  10   8  28    0.65    0.69
 -10  -8  28    1.24    0.66
  28  12  -8   25.53    1.91
 -28  12   8   30.18    2.14
   8 -28  12   26.88    2.16
 -28 -12  -8   24.25    2.18
 -12   8  28   25.00    2.13
  28 -12   8   23.18    1.84
 -12  -8  28   26.10    2.22
  -8 -28  12   24.75    2.08
  12   8  28   29.49    2.49
  28  12   8   25.69    1.82
 -28 -12   8   22.73    2.39
 -14   8  28    0.66    0.55
   8 -28  14   -0.01    0.35
 -28 -14  -8    0.31    0.50
  28 -14   8    0.29    0.26
  28  14  -8    0.16    0.29
  28  14   8    0.25    0.25
 -14  -8  28    2.31    0.66
  -8 -28  14    0.07    0.31
  14   8  28    0.05    0.58
 -28 -14   8   -0.43    0.77
  28 -16   8   14.83    1.39
 -28 -16  -8   14.45    1.58
 -16   8  28   17.25    1.58
   8 -28  16   16.80    1.69
  28  16  -8   14.82    1.40
 -28 -16   8   12.73    1.83
  28  16   8   14.06    1.26
 -16  -8  28   14.47    1.58
  16   8  28   16.50    1.82
  -8 -28  16   14.33    1.56
  28 -18   8   -0.12    0.25
 -28 -18  -8    0.66    0.50
 -28 -18   8   -1.52    0.67
 -18  -8  28    0.94    0.56
  28  18   8    0.06    0.24
   0  10  28    0.35    0.61
 -10 -28   0    0.16    0.29
 -28   0 -10    0.16    0.48
 -28   0  10    0.38    0.60
  28   0  10   -0.02    0.20
  28   0 -10    0.25    0.23
  -2  10  28    0.03    0.48
 -28  -2 -10    0.73    0.51
  28   2 -10    0.12    0.23
  28  -2  10    0.12    0.22
 -28   2  10   -0.25    0.53
  28  -2 -10   -0.35    0.22
 -10 -28   2    0.26    0.29
 -28  -2  10    0.19    0.62
 -28   2 -10    0.80    0.49
   2  10  28    0.43    0.62
  28   2  10   -0.29    0.20
  -4  10  28    0.37    0.51
  28  -4  10    0.22    0.22
  10 -28   4    0.16    0.29
 -28  -4 -10    0.32    0.51
  28   4 -10    0.42    0.26
 -28   4  10    0.13    0.57
 -10 -28   4    0.20    0.32
 -28   4 -10    0.05    0.44
   4  10  28    1.13    0.63
 -28  -4  10    0.21    0.71
  28  -4 -10    0.10    0.22
  28   4  10    0.18    0.23
  28   6 -10    0.61    0.29
  -6  10  28    0.68    0.50
 -28  -6 -10    0.73    0.53
 -28   6  10    0.00    0.55
  10 -28   6    0.25    0.30
  28  -6  10    0.27    0.24
 -28  -6  10    0.04    0.70
 -10 -28   6    0.08    0.29
 -28   6 -10    0.30    0.42
  28   6  10   -0.31    0.22
  28  -6 -10   -0.26    0.22
   6  10  28    0.46    0.62
 -28  -8 -10    0.40    0.45
  10 -28   8    0.24    0.34
  28   8 -10    0.42    0.29
  28  -8  10    0.39    0.25
 -28   8  10    0.28    0.55
  -8  10  28    0.58    0.51
   8  10  28    1.13    0.66
 -10 -28   8   -0.10    0.33
 -28  -8  10   -0.75    0.67
  28   8  10    0.00    0.23
  10 -28  10    0.16    0.31
  28 -10  10    0.05    0.22
  28  10 -10    0.17    0.28
 -10  10  28    0.38    0.49
 -28 -10 -10    0.41    0.45
 -28  10  10   -0.15    0.50
 -10 -28  10   -0.27    0.27
  10  10  28    0.82    0.65
 -28 -10  10   -0.66    0.70
  28  10  10   -0.40    0.23
  28 -12  10    0.50    0.28
 -12  10  28    0.92    0.52
 -28  12  10    0.62    0.56
  28  12 -10    0.03    0.30
 -28 -12 -10    0.85    0.56
  10 -28  12    0.13    0.38
 -10 -28  12   -0.34    0.36
 -28 -12  10   -1.37    0.76
 -12 -10  28    1.20    0.61
  12  10  28    0.79    0.63
  28  12  10   -0.06    0.25
 -14  10  28    0.68    0.50
  28 -14  10    0.02    0.22
  28  14 -10   -0.02    0.29
 -28 -14 -10    0.94    0.54
  10 -28  14    0.01    0.34
 -10 -28  14    0.25    0.36
 -28 -14  10   -1.45    0.74
 -14 -10  28    1.14    0.59
  14  10  28   -0.59    0.50
  28  14  10   -0.16    0.23
 -28 -16 -10    1.10    0.58
  10 -28  16   -0.11    0.39
  28  16 -10    0.29    0.35
 -16  10  28    1.65    0.56
  28 -16  10    0.30    0.31
 -16 -10  28    1.58    0.61
 -10 -28  16    0.21    0.40
 -28 -16  10   -1.12    0.74
  16  10  28    0.28    0.67
  28  16  10    0.48    0.27
 -18 -10  28    1.48    0.64
 -28 -18  10   -1.50    0.74
  28   0  12   32.27    2.14
 -12 -28   0   31.33    2.25
  28   0 -12   31.59    2.12
 -28   0  12   30.74    2.53
 -28   0 -12   33.20    2.44
 -28   2  12    0.76    0.64
 -28  -2 -12    0.77    0.51
  -2  12  28   -0.15    0.56
  28  -2  12    0.27    0.25
  28   2 -12    0.38    0.26
  28   2  12    0.43    0.24
 -28   2 -12    0.92    0.51
  28  -2 -12    0.38    0.26
 -28  -2  12    1.01    0.68
 -12 -28   2    0.64    0.33
   2  12  28   -0.05    0.59
  -4  12  28   24.72    2.10
 -28   4  12   22.13    2.01
  12 -28   4   27.01    1.96
 -28  -4 -12   23.57    2.02
  28  -4  12   22.12    1.70
  28   4 -12   22.81    1.72
 -12 -28   4   23.29    1.89
   4  12  28   23.46    2.21
 -28   4 -12   24.29    1.90
  28   4  12   22.30    1.68
 -28  -4  12   24.16    2.23
  28  -4 -12   23.62    1.69
  -6  12  28    0.36    0.52
  28  -6  12    0.27    0.25
  12 -28   6    0.09    0.31
 -28   6  12    0.94    0.60
   6 -12  28   -0.09    0.36
  28   6 -12    0.48    0.28
 -28  -6 -12    1.42    0.53
  28   6  12    0.43    0.26
   6  12  28    0.95    0.67
 -12 -28   6    0.69    0.35
 -28  -6  12    0.43    0.69
 -28   6 -12    1.67    0.52
 -28  -8 -12   22.25    2.12
  28   8 -12   27.77    1.95
 -28   8  12   25.58    2.13
   8 -12  28   25.18    1.98
  -8  12  28   26.59    2.17
  12 -28   8   25.96    2.10
  28  -8  12   24.10    1.87
 -12 -28   8   25.56    2.09
   8  12  28   33.38    2.55
  28   8  12   27.59    1.86
 -28  -8  12   27.76    2.51
 -28 -10 -12    1.43    0.57
  12 -28  10    0.49    0.38
 -28  10  12    0.93    0.58
  10 -12  28    0.28    0.36
  28 -10  12    0.46    0.28
  28  10 -12    0.27    0.31
 -10  12  28    0.00    0.47
  10  12  28    0.41    0.60
 -12 -28  10    0.65    0.37
  28  10  12    0.30    0.25
 -28 -10  12    0.27    0.81
  28  12 -12   20.86    1.67
  12 -28  12   17.87    1.78
  12 -12  28   17.61    1.59
  28 -12  12   18.51    1.58
 -28  12  12   19.79    1.75
 -12  12  28   20.04    1.78
 -28 -12 -12   16.03    1.73
  12  12  28   23.59    2.11
 -28 -12  12   18.41    2.12
 -12 -28  12   17.62    1.74
  28  12  12   20.11    1.50
 -28 -14 -12    0.38    0.49
  14 -12  28    0.10    0.29
  28 -14  12    0.23    0.25
  12 -28  14    0.03    0.36
 -14  12  28    1.11    0.52
  28  14 -12   -0.06    0.28
  14  12  28    0.86    0.62
 -12 -28  14    0.37    0.37
 -28 -14  12   -0.31    0.72
  28  14  12    0.03    0.23
  16 -12  28   17.05    1.52
 -28 -16  12   16.35    2.07
 -28   0  14    0.54    0.61
 -28   0 -14    1.02    0.48
   0 -14  28    0.54    0.36
 -14 -28   0    0.25    0.28
  28   0 -14    0.29    0.26
  28   0  14    0.29    0.24
   0  14  28    1.30    0.66
 -28   2  14    0.10    0.55
 -28  -2 -14    0.44    0.43
  -2  14  28   -0.26    0.52
   2 -14  28   -0.16    0.30
  28   2 -14    0.11    0.26
  28  -2  14    0.39    0.26
 -14 -28   2    0.41    0.31
  28   2  14   -0.08    0.20
 -28  -2  14    0.43    0.66
   2  14  28    0.06    0.56
 -28   2 -14    0.65    0.48
  -2 -14  28   -0.06    0.30
  28  -4  14    0.37    0.26
 -28   4  14    0.60    0.60
  28   4 -14    0.13    0.24
  14 -28   4   -0.15    0.25
  -4  14  28    0.56    0.56
   4 -14  28    0.15    0.32
 -14 -28   4    0.10    0.29
  -4 -14  28    0.11    0.32
 -28   4 -14    0.97    0.50
 -28  -4  14   -0.06    0.65
  28   4  14    0.31    0.26
   4  14  28    0.45    0.63
   6 -14  28   -0.22    0.30
 -28   6  14   -0.44    0.55
  14 -28   6    0.18    0.32
  28  -6  14    0.14    0.24
  28   6 -14    0.12    0.26
  -6  14  28    0.46    0.50
 -28  -6  14   -0.07    0.68
   6  14  28    0.10    0.52
  28   6  14   -0.52    0.19
 -14 -28   6   -0.07    0.25
  14 -28   8   -0.04    0.32
   8 -14  28   -0.01    0.33
 -28   8  14    0.27    0.56
  28   8 -14    0.23    0.29
  -8  14  28    0.79    0.54
  28  -8  14    0.23    0.25
   8  14  28    0.67    0.66
 -28  -8  14   -0.04    0.74
 -14 -28   8   -0.01    0.34
  28   8  14    0.18    0.24
  10 -14  28   -0.17    0.31
 -10  14  28    0.59    0.50
  28  10 -14    0.10    0.33
  14 -28  10    0.17    0.33
 -28  10  14    0.18    0.54
  28 -10  14    0.15    0.25
 -28 -10  14    0.18    0.80
 -14 -28  10    0.20    0.33
  28  10  14   -0.01    0.26
  10  14  28    0.64    0.62
  12 -14  28    0.25    0.34
  14 -28  12    0.47    0.42
 -12  14  28    1.06    0.51
  28  12 -14    0.28    0.32
  28 -12  14    0.10    0.24
 -28  12  14    1.49    0.59
 -28 -12  14   -0.10    0.73
 -14 -28  12    0.56    0.40
  12  14  28    1.29    0.68
  14 -14  28   -0.17    0.31
 -28 -14  14   -1.12    0.67
 -16 -28   0   20.88    1.75
   0 -16  28   21.19    1.91
  28   0  16   21.13    1.62
 -28   0  16   21.35    2.06
   0  16  28   23.04    2.06
   2 -16  28   -0.21    0.38
  28  -2  16    0.74    0.30
  28   2 -16    0.41    0.28
  -2  16  28    0.57    0.64
 -28   2  16    0.21    0.66
   2  16  28    0.84    0.68
 -28  -2  16    1.48    0.73
  28   2  16    0.53    0.25
  -2 -16  28    0.12    0.40
 -16 -28   2    0.58    0.34
 -28   2 -16    0.97    0.53
  -4  16  28   24.91    2.12
  28   4 -16   21.71    1.75
 -28   4  16   22.63    2.11
   4 -16  28   21.73    2.01
  16 -28   4   26.43    2.03
  28  -4  16   23.84    1.78
 -16 -28   4   21.69    1.89
   4  16  28   29.38    2.34
 -28   4 -16   24.52    1.95
  -4 -16  28   22.08    1.99
  28   4  16   23.79    1.72
 -28  -4  16   22.95    2.25
   6 -16  28   -0.14    0.38
  16 -28   6    0.15    0.33
  -6  16  28    0.40    0.60
 -28   6  16    1.66    0.70
  28  -6  16    0.37    0.29
  28   6 -16    0.49    0.31
   6  16  28    0.89    0.69
 -28  -6  16   -0.03    0.68
  -6 -16  28    0.25    0.40
 -16 -28   6    0.95    0.40
  28   6  16    0.41    0.27
 -28   8  16   16.50    1.62
   8 -16  28   15.27    1.59
  16 -28   8   15.04    1.58
  28  -8  16   14.35    1.36
  28   8 -16   15.24    1.42
  -8  16  28   15.10    1.53
  28   8  16   16.76    1.70
   8  16  28   20.70    1.87
 -28  -8  16   13.65    1.87
  28   8  16   16.27    1.31
 -16 -28   8   14.72    1.54
  -8 -16  28   14.95    1.56
  28 -10  16    0.50    0.27
  16 -28  10    0.19    0.36
 -28  10  16    1.19    0.56
 -10  16  28    0.67    0.49
  10 -16  28   -0.10    0.38
  28  10 -16    0.52    0.32
 -10 -16  28    0.20    0.42
 -28 -10  16   -0.17    0.70
  28  10  16    0.38    0.51
  10  16  28    0.04    0.52
 -16 -28  10    0.36    0.37
  16 -28  12   17.23    1.82
  28  12 -16   19.90    1.69
 -28  12  16   21.37    1.78
 -12  16  28   19.91    1.74
  12 -16  28   17.31    1.73
 -28 -12  16   17.31    2.11
  28   0  18    0.13    0.23
   0 -18  28    0.08    0.36
   0  18  28    0.63    0.57
 -28   0  18   -0.10    0.57
 -18 -28   0   -0.03    0.31
   2 -18  28   -0.31    0.35
  28  -2  18   -0.01    0.23
 -28   2  18    0.45    0.57
  -2  18  28    0.23    0.55
 -18 -28   2   -0.03    0.28
  28   2  18    0.04    0.25
   2  18  28    0.21    0.53
 -28  -2  18    0.18    0.68
  28   2  18   -0.03    0.41
  -2 -18  28    0.02    0.38
   4 -18  28   -0.08    0.42
  28  -4  18    0.16    0.22
 -28   4  18   -0.07    0.50
  -4  18  28    0.20    0.54
  28   4  18    0.05    0.48
 -18 -28   4    0.02    0.31
 -28  -4  18    0.10    0.72
   4  18  28    0.72    0.59
  -4 -18  28    0.03    0.36
  28   4  18    0.33    0.25
 -28   6  18    0.27    0.52
  18 -28   6   -0.41    0.30
  28  -6  18   -0.04    0.22
  28   6 -18   -0.05    0.30
  -6  18  28    0.41    0.51
   6 -18  28   -0.28    0.38
  28   6  18    0.06    0.43
  -6 -18  28   -0.19    0.33
  28   6  18   -0.19    0.20
   6  18  28    0.73    0.55
 -18 -28   6    0.04    0.31
 -28  -6  18   -0.37    0.69
   8 -18  28   -0.85    0.32
  28  -8  18    0.12    0.24
  28   8 -18   -0.02    0.27
 -28   8  18    1.29    0.56
  18 -28   8   -0.13    0.31
  -8  18  28    0.47    0.45
 -28  -8  18    0.16    0.79
  -8 -18  28    0.47    0.37
 -18 -28   8    0.06    0.32
 -10  18  28    0.84    0.45
  18 -28  10   -0.27    0.32
  28  10 -18    0.13    0.29
  10 -18  28   -0.27    0.38
 -10 -18  28    0.23    0.34
   0  20  28   20.93    1.86
  28   0  20   18.07    1.47
 -20 -28   0   17.86    1.64
  28   0  20   16.88    1.71
   0 -20  28   17.63    1.81
   2 -20  28   -0.03    0.41
  28  -2  20    0.57    0.30
  -2  20  28    0.83    0.60
  28   2  20    0.29    0.25
   2  20  28    0.91    0.63
  -2 -20  28    0.28    0.46
  28   2  20    0.79    0.55
 -20 -28   2    0.58    0.36
  28  -4  20   12.54    1.20
   4 -20  28   10.43    1.47
  -4 -20  28   12.97    1.50
 -20 -28   4   13.26    1.41
 -29  -1  -1   -0.79    0.44
  29  -1   1   -0.23    0.18
  29   1  -1   -0.13    0.17
 -29   1   1   -0.28    0.49
   1  -1  29   -0.54    0.47
  -1   1  29   -0.09    0.55
  -1  -1  29    0.19    0.60
   1   1  29   -0.17    0.53
  29  -1  -1   -0.16    0.18
 -29  -1   1   -0.68    0.44
 -29   1  -1   -0.77    0.42
  29   1   1   -0.14    0.19
 -29  -3  -1   -0.78    0.46
  -3   1  29    0.42    0.59
  29   3  -1   -0.22    0.18
   1 -29   3   -0.13    0.25
   3  -1  29   -0.15    0.54
  29  -3   1   -0.05    0.21
 -29   3   1   -0.56    0.46
   3   1  29   -0.71    0.49
  -1 -29   3   -0.22    0.20
  29   3   1   -0.05    0.20
 -29  -3   1   -0.46    0.48
 -29   3  -1   -0.66    0.42
  29  -3  -1   -0.18    0.17
  -3  -1  29    0.26    0.57
   5  -1  29   -0.65    0.50
 -29  -5  -1   -0.20    0.44
   1 -29   5   -0.32    0.22
  -5   1  29   -0.03    0.52
 -29   5   1   -0.23    0.47
  29   5  -1   -0.17    0.18
  29  -5   1   -0.31    0.18
  29  -5  -1   -0.09    0.20
  29   5   1   -0.19    0.19
  -5  -1  29    0.16    0.55
  -1 -29   5   -0.40    0.23
 -29  -5   1   -0.35    0.46
 -29   5  -1   -0.40    0.46
   5   1  29    0.04    0.61
  29   7  -1    0.05    0.21
  -7   1  29   -0.06    0.44
 -29   7   1   -0.82    0.40
   1 -29   7   -0.14    0.26
   7  -1  29   -0.01    0.52
  29  -7   1   -0.24    0.17
 -29  -7  -1   -0.81    0.47
  -7  -1  29   -0.28    0.49
 -29  -7   1   -0.25    0.53
   7   1  29   -0.28    0.52
  -1 -29   7   -0.19    0.22
  29   7   1   -0.24    0.17
  29  -7  -1   -0.23    0.19
 -29   7  -1   -0.33    0.47
  29  -9   1   -0.19    0.20
   1 -29   9   -0.09    0.29
 -29  -9  -1   -0.09    0.55
   9  -1  29   -0.48    0.56
 -29   9   1   -0.76    0.44
  29   9  -1   -0.05    0.22
  -9   1  29    0.23    0.53
  -1 -29   9   -0.32    0.28
  -9  -1  29    0.00    0.45
  29  -9  -1   -0.30    0.19
   9   1  29   -0.03    0.55
 -29  -9   1   -0.46    0.57
 -29   9  -1   -0.57    0.44
  29   9   1   -0.09    0.21
  29 -11   1   -0.04    0.21
  29  11  -1    0.01    0.21
 -11   1  29   -0.06    0.51
   1 -29  11   -0.26    0.26
 -29 -11  -1   -0.81    0.52
  11  -1  29   -0.35    0.48
  29  11   1   -0.09    0.22
 -11  -1  29   -0.26    0.45
  29 -11  -1    0.00    0.21
 -29 -11   1   -0.73    0.57
  -1 -29  11   -0.27    0.26
  11   1  29   -0.07    0.48
   1 -29  13   -0.15    0.30
 -29 -13  -1   -0.02    0.57
 -13   1  29    0.42    0.49
  29  13  -1   -0.21    0.22
  29 -13   1   -0.15    0.22
  13  -1  29   -0.70    0.49
 -13  -1  29    0.32    0.46
  29  13   1   -0.47    0.19
  -1 -29  13    0.32    0.35
  13   1  29   -0.23    0.56
 -29 -13   1   -0.34    0.57
  29 -13  -1   -0.25    0.21
 -15   1  29    0.65    0.48
  15  -1  29   -0.24    0.44
 -29 -15  -1   -0.49    0.60
  29 -15   1   -0.20    0.21
   1 -29  15   -0.21    0.31
  29  15  -1   -0.12    0.24
 -15  -1  29    0.71    0.51
  29 -15  -1   -0.22    0.22
  29  15   1    0.02    0.26
  15   1  29   -0.74    0.45
  -1 -29  15   -0.26    0.28
 -29 -15   1   -0.90    0.56
   1 -29  17   -0.14    0.34
  17  -1  29   -0.39    0.46
 -17   1  29    0.33    0.51
  29 -17   1   -0.06    0.23
 -29 -17  -1   -0.16    0.57
  29 -17  -1   -0.38    0.23
  29  17   1   -0.34    0.21
  -1 -29  17   -0.32    0.32
 -17  -1  29    0.71    0.57
  17   1  29    0.14    0.53
 -29 -17   1   -0.17    0.62
 -29 -19  -1   -0.55    0.56
  29 -19   1   -0.20    0.23
  19  -1  29    0.46    0.55
  19   1  29   -0.22    0.45
 -29 -19   1   -1.03    0.55
  29  -1   3   -0.04    0.21
  -1   3  29    0.20    0.58
 -29   1   3   -0.24    0.51
  29   1  -3   -0.16    0.18
   1  -3  29    0.69    0.63
 -29  -1  -3    0.16    0.46
  29  -1  -3   -0.14    0.17
   1   3  29   -0.77    0.48
  29   1   3   -0.23    0.19
 -29   1  -3   -0.96    0.40
 -29  -1   3   -0.34    0.50
  -1  -3  29   -0.25    0.55
  -3   3  29   -0.42    0.45
  29  -3   3   -0.17    0.18
 -29  -3  -3   -0.64    0.44
   3 -29   3   -0.39    0.22
   3  -3  29   -0.05    0.54
 -29   3   3   -0.78    0.46
  29   3  -3   -0.26    0.18
  -3 -29   3   -0.08    0.23
  -3  -3  29   -0.71    0.47
 -29   3  -3    0.06    0.42
  29   3   3   -0.16    0.17
 -29  -3   3   -0.37    0.51
   3   3  29   -0.25    0.50
  29  -3  -3   -0.10    0.18
  29  -5   3   -0.17    0.21
  -5   3  29    0.19    0.49
 -29  -5  -3   -0.42    0.44
   3 -29   5   -0.34    0.20
   5  -3  29   -0.04    0.47
  29   5  -3   -0.27    0.18
 -29   5   3   -0.35    0.49
  -5  -3  29   -0.38    0.52
   5   3  29   -0.32    0.56
  29  -5  -3   -0.20    0.18
  29   5   3   -0.12    0.19
  -3 -29   5   -0.37    0.22
 -29   5  -3   -0.44    0.42
 -29  -5   3   -0.95    0.47
  29  -7   3   -0.12    0.17
 -29  -7  -3   -0.34    0.49
   7  -3  29   -0.47    0.46
   3 -29   7   -0.34    0.26
 -29   7   3   -1.02    0.42
  29   7  -3   -0.26    0.21
  -7   3  29    0.29    0.50
  -7  -3  29    0.31    0.55
 -29  -7   3   -0.76    0.51
  29   7   3    0.11    0.21
  29  -7  -3   -0.18    0.19
   7   3  29   -0.18    0.55
 -29   7  -3   -0.58    0.41
  -3 -29   7   -0.15    0.23
 -29  -9  -3    0.17    0.52
 -29   9   3   -0.49    0.49
   9  -3  29   -0.05    0.53
  -9   3  29   -0.26    0.47
   3 -29   9   -0.13    0.27
  29   9  -3   -0.15    0.22
  29  -9   3   -0.25    0.21
  -3 -29   9   -0.09    0.28
  -9  -3  29   -0.12    0.47
 -29  -9   3   -0.76    0.55
  29  -9  -3   -0.11    0.21
   9   3  29   -0.25    0.59
  29   9   3   -0.07    0.21
 -11   3  29    0.28    0.50
  11  -3  29   -0.27    0.51
  29 -11   3   -0.04    0.21
 -29 -11  -3   -0.23    0.47
  29  11  -3   -0.13    0.20
   3 -29  11   -0.36    0.26
 -29 -11   3   -0.74    0.62
  29  11   3   -0.13    0.20
  -3 -29  11   -0.37    0.27
  29 -11  -3   -0.17    0.19
  11   3  29   -0.17    0.54
 -11  -3  29   -0.03    0.45
  29  13  -3   -0.40    0.21
 -13   3  29    0.90    0.55
   3 -29  13   -0.01    0.32
  29 -13   3   -0.25    0.22
 -29 -13  -3   -0.13    0.52
  13  -3  29   -0.28    0.49
  29 -13  -3   -0.08    0.21
 -13  -3  29   -0.06    0.53
  13   3  29   -1.06    0.48
  29  13   3   -0.30    0.19
 -29 -13   3   -0.81    0.57
  -3 -29  13   -0.44    0.29
 -15   3  29    0.54    0.45
   3 -29  15   -0.31    0.28
  15  -3  29   -0.95    0.47
 -29 -15  -3   -0.35    0.54
  29 -15   3   -0.30    0.21
 -29 -15   3   -0.69    0.62
  29 -15  -3    0.11    0.23
  29  15   3   -0.14    0.23
 -15  -3  29    0.05    0.46
  15   3  29   -0.82    0.47
  -3 -29  15    0.15    0.35
  29  17  -3   -0.30    0.24
  29 -17   3   -0.14    0.23
  17  -3  29   -0.53    0.47
 -29 -17  -3   -0.65    0.53
   3 -29  17   -0.09    0.35
 -17   3  29    0.43    0.51
  17   3  29    0.24    0.60
  -3 -29  17    0.15    0.36
 -29 -17   3   -0.70    0.57
  29  17   3   -0.08    0.23
 -17  -3  29    0.53    0.50
 -29 -19  -3   -0.45    0.52
 -29 -19   3   -0.80    0.64
  29  -1   5   -0.18    0.19
  -1   5  29   -0.40    0.58
   1  -5  29   -0.03    0.47
  29   1  -5   -0.11    0.21
 -29   1   5   -0.55    0.52
 -29  -1  -5   -0.21    0.41
 -29  -1   5   -0.28    0.56
  -1  -5  29    0.19    0.54
  29  -1  -5    0.02    0.21
  -5 -29   1   -0.22    0.22
   1   5  29   -0.27    0.57
 -29   1  -5   -0.10    0.44
  29   1   5    0.10    0.21
   5 -29   3   -0.21    0.22
  29   3  -5   -0.17    0.19
  -3   5  29   -0.11    0.49
 -29  -3  -5   -0.23    0.42
 -29   3   5   -0.53    0.47
   3  -5  29   -0.27    0.55
  29  -3   5   -0.20    0.17
  29   3   5   -0.15    0.15
   3   5  29    0.06    0.58
  -3  -5  29    0.10    0.56
  29  -3  -5   -0.08    0.19
  -5 -29   3   -0.07    0.23
 -29  -3   5   -0.33    0.56
 -29   3  -5   -0.04    0.42
   5 -29   5   -0.29    0.27
 -29   5   5   -0.67    0.43
 -29  -5  -5   -0.10    0.46
  29   5  -5   -0.15    0.18
   5  -5  29    0.01    0.52
  29  -5   5   -0.22    0.19
  -5   5  29    0.00    0.47
  29  -5  -5   -0.03    0.20
  29   5   5   -0.21    0.17
   5   5  29   -0.38    0.52
 -29   5  -5   -0.78    0.40
  -5 -29   5   -0.47    0.21
 -29  -5   5   -0.53    0.57
  -5  -5  29    0.15    0.56
  29   7  -5   -0.09    0.21
  29  -7   5   -0.10    0.21
 -29   7   5   -0.66    0.50
   7  -5  29    0.11    0.52
 -29  -7  -5   -0.32    0.46
   5 -29   7   -0.33    0.23
  -7   5  29   -0.21    0.43
  -5 -29   7   -0.14    0.24
  29  -7  -5    0.12    0.22
 -29  -7   5   -0.27    0.59
  -7  -5  29    0.21    0.54
   7   5  29   -0.41    0.56
  29   7   5   -0.20    0.17
 -29   7  -5   -0.40    0.40
   9  -5  29   -0.25    0.50
 -29   9   5   -0.50    0.47
  29   9  -5   -0.22    0.21
   5 -29   9   -0.09    0.27
  29  -9   5    0.04    0.23
 -29  -9  -5    0.08    0.51
  -9   5  29    0.04    0.44
  -5 -29   9   -0.07    0.28
  29   9   5   -0.10    0.21
  -9  -5  29    0.40    0.53
 -29  -9   5   -0.80    0.63
   9   5  29   -0.03    0.58
  29  -9  -5   -0.10    0.20
  29  11  -5   -0.14    0.22
 -29 -11  -5   -0.47    0.51
   5 -29  11   -0.34    0.27
 -29  11   5   -0.47    0.49
  29 -11   5   -0.16    0.19
 -11   5  29   -0.16    0.42
  29 -11  -5   -0.21    0.19
  11   5  29    0.21    0.59
 -29 -11   5   -0.64    0.60
 -11  -5  29   -0.02    0.45
  -5 -29  11   -0.27    0.27
  29  11   5   -0.07    0.20
  29  13  -5   -0.21    0.24
  29 -13   5   -0.10    0.22
 -29 -13  -5    0.19    0.56
   5 -29  13   -0.13    0.32
 -13   5  29    0.04    0.42
  13   5  29   -0.53    0.59
  29  13   5   -0.11    0.23
  29 -13  -5   -0.22    0.21
 -13  -5  29    0.42    0.51
  -5 -29  13   -0.63    0.28
   5 -29  15   -0.49    0.28
 -29 -15  -5   -0.41    0.51
  29  15  -5   -0.40    0.23
  29 -15   5   -0.17    0.24
 -15   5  29    0.11    0.39
  29  15   5   -0.08    0.24
  -5 -29  15   -0.25    0.29
 -15  -5  29    0.85    0.55
 -29 -15   5   -0.33    0.70
  15   5  29   -0.47    0.45
  29 -17   5   -0.18    0.22
 -29 -17  -5   -0.17    0.51
  29  17  -5   -0.27    0.28
  17   5  29   -0.17    0.57
  29  17   5   -0.38    0.21
 -29 -17   5   -0.88    0.66
 -17  -5  29    0.59    0.52
 -29  -1  -7   -0.18    0.40
  -1   7  29    0.10    0.54
   1  -7  29   -0.38    0.59
 -29   1   7   -0.26    0.51
  29   1  -7   -0.09    0.19
  29  -1   7   -0.31    0.18
  -7 -29   1   -0.16    0.25
 -29  -1   7   -0.47    0.50
  -1  -7  29   -0.10    0.54
  29  -1  -7   -0.22    0.16
   1   7  29   -0.44    0.54
  29   1   7   -0.09    0.20
 -29   1  -7   -0.49    0.43
 -29   3   7   -1.04    0.46
 -29  -3  -7   -0.47    0.45
  29   3  -7   -0.12    0.20
  -3   7  29    0.35    0.53
  29  -3   7   -0.18    0.20
   7 -29   3   -0.29    0.22
  -7 -29   3   -0.12    0.25
 -29  -3   7   -0.20    0.56
  29  -3  -7   -0.03    0.20
  29   3   7   -0.05    0.19
  -3  -7  29    0.45    0.55
 -29   3  -7   -0.47    0.40
   3   7  29   -0.15    0.56
  -5   7  29   -0.02    0.48
  29  -5   7   -0.07    0.21
 -29   5   7   -0.64    0.46
 -29  -5  -7   -0.15    0.44
  29   5  -7   -0.24    0.21
   7 -29   5   -0.04    0.28
   5   7  29   -0.14    0.60
 -29   5  -7   -0.20    0.41
  -5  -7  29    0.30    0.55
  -7 -29   5   -0.44    0.24
 -29  -5   7   -0.51    0.60
  29  -5  -7   -0.19    0.21
  29   5   7   -0.28    0.19
  29   7  -7   -0.25    0.21
 -29   7   7   -0.43    0.49
  -7   7  29    0.03    0.45
 -29  -7  -7   -0.19    0.47
  29  -7   7   -0.14    0.20
   7 -29   7   -0.26    0.26
  29   7   7   -0.17    0.19
 -29   7  -7   -0.38    0.38
 -29  -7   7   -0.99    0.62
  -7 -29   7   -0.13    0.28
   7   7  29   -0.28    0.58
  29  -7  -7   -0.14    0.20
  -7  -7  29    0.10    0.61
  29  -9   7   -0.35    0.20
 -29   9   7   -0.03    0.50
 -29  -9  -7    0.19    0.53
  29   9  -7   -0.10    0.23
   7 -29   9   -0.17    0.27
  -9   7  29    0.06    0.39
  -9  -7  29    0.19    0.55
  29   9   7    0.00    0.21
 -29  -9   7   -1.31    0.59
  -7 -29   9   -0.71    0.26
   9   7  29   -0.24    0.56
  29  -9  -7   -0.22    0.20
 -29 -11  -7    0.30    0.59
  29 -11   7   -0.08    0.23
  29  11  -7   -0.30    0.25
 -29  11   7   -0.44    0.51
   7 -29  11   -0.18    0.29
 -11   7  29    0.57    0.49
  -7 -29  11   -0.04    0.30
 -11  -7  29    0.49    0.57
  29  11   7    0.00    0.20
 -29 -11   7   -0.61    0.65
  11   7  29   -0.24    0.61
  29  13  -7   -0.42    0.19
   7 -29  13   -0.08    0.33
 -29 -13  -7    0.17    0.54
  29 -13   7   -0.06    0.25
 -13   7  29    0.43    0.51
  -7 -29  13    0.03    0.32
 -29 -13   7   -1.35    0.67
 -13  -7  29    0.64    0.52
  29  13   7   -0.32    0.19
  13   7  29   -0.71    0.51
  29 -15   7   -0.33    0.22
 -29 -15  -7   -0.38    0.47
   7 -29  15   -0.14    0.34
 -15   7  29    0.33    0.37
  29  15  -7   -0.09    0.25
 -15  -7  29    0.03    0.47
  -7 -29  15   -0.01    0.31
  29  15   7   -0.04    0.24
  15   7  29   -0.41    0.51
 -29 -15   7   -0.87    0.69
  29 -17   7   -0.17    0.25
 -29 -17  -7    0.55    0.54
  29  17   7   -0.10    0.24
 -29 -17   7   -1.50    0.64
 -17  -7  29    0.93    0.52
  -1   9  29    0.13    0.53
 -29   1   9   -0.49    0.50
  29   1  -9   -0.18    0.20
  29  -1   9   -0.31    0.17
 -29  -1  -9    0.21    0.46
  29  -1  -9   -0.22    0.19
  -9 -29   1   -0.17    0.25
 -29  -1   9   -0.05    0.58
  29   1   9   -0.14    0.18
   1   9  29   -0.50    0.51
 -29   1  -9   -0.68    0.39
 -29  -3  -9   -0.09    0.46
  29  -3   9    0.08    0.21
  -3   9  29    0.42    0.55
  29   3  -9    0.02    0.21
 -29   3   9   -0.41    0.54
  -9 -29   3    0.13    0.28
 -29   3  -9   -0.28    0.41
  29  -3  -9   -0.12    0.20
  29   3   9   -0.06    0.23
   3   9  29    0.31    0.59
 -29  -3   9   -0.28    0.58
   9 -29   5   -0.49    0.28
  -5   9  29    0.00    0.50
  29  -5   9   -0.34    0.17
  29   5  -9   -0.10    0.22
 -29  -5  -9   -0.06    0.45
 -29   5   9    0.03    0.52
  -9 -29   5    0.25    0.31
  29  -5  -9    0.02    0.22
   5   9  29    0.15    0.63
  29   5   9   -0.21    0.18
 -29   5  -9   -0.44    0.39
 -29  -5   9   -0.89    0.56
  -7   9  29    0.74    0.54
 -29   7   9   -0.51    0.47
  29  -7   9    0.06    0.23
   9 -29   7   -0.02    0.29
 -29  -7  -9   -0.39    0.45
  29   7  -9   -0.09    0.22
  -9 -29   7    0.13    0.31
  29   7   9    0.02    0.20
 -29  -7   9   -0.87    0.61
  29  -7  -9   -0.09    0.21
   7   9  29   -0.01    0.62
  29  -9   9   -0.13    0.21
 -29  -9  -9   -0.08    0.39
   9 -29   9   -0.55    0.26
 -29   9   9    0.04    0.53
  -9   9  29   -0.16    0.43
  29   9  -9    0.00    0.26
   9   9  29    0.02    0.61
  -9 -29   9   -0.41    0.28
  29   9   9   -0.25    0.21
  -9  -9  29    0.18    0.54
 -29  -9   9   -0.04    0.71
  29  11  -9   -0.34    0.26
   9 -29  11   -0.10    0.32
 -11   9  29    0.02    0.50
  29 -11   9   -0.09    0.23
 -29 -11  -9   -0.76    0.39
 -29  11   9   -0.60    0.46
 -11  -9  29    0.40    0.54
  29  11   9   -0.38    0.19
  -9 -29  11   -0.03    0.32
 -29 -11   9   -0.68    0.70
  11   9  29   -0.66    0.52
 -29 -13  -9   -0.07    0.48
 -13   9  29    0.04    0.39
   9 -29  13   -0.42    0.31
  29 -13   9   -0.13    0.23
  29  13  -9   -0.41    0.26
  -9 -29  13   -0.36    0.28
  29  13   9   -0.05    0.22
  13   9  29   -0.77    0.59
 -13  -9  29    0.46    0.51
 -29 -15  -9   -0.50    0.52
 -15   9  29    0.89    0.51
   9 -29  15    0.21    0.40
  29 -15   9   -0.18    0.22
  -9 -29  15    0.03    0.32
 -29 -15   9   -1.00    0.70
  29  15   9   -0.06    0.24
 -15  -9  29    0.65    0.56
 -17  -9  29    0.46    0.53
 -29   1  11   -0.56    0.52
  29  -1  11   -0.25    0.20
 -29  -1 -11   -0.07    0.41
  29   1 -11   -0.26    0.21
  -1  11  29   -0.16    0.51
 -29  -1  11   -0.85    0.57
 -11 -29   1   -0.02    0.28
  29  -1 -11   -0.25    0.18
   1  11  29    0.52    0.60
 -29   1 -11   -0.15    0.48
  29   1  11   -0.26    0.16
 -29   3  11   -1.03    0.48
 -29  -3 -11   -0.43    0.39
  29   3 -11   -0.18    0.20
  29  -3  11   -0.13    0.21
  -3  11  29   -0.46    0.42
 -29  -3  11    0.12    0.60
 -11 -29   3   -0.05    0.27
 -29   3 -11    0.24    0.42
  29   3  11   -0.22    0.20
  29  -3 -11   -0.13    0.22
   3  11  29    0.21    0.58
 -29   5  11    0.34    0.61
  11 -29   5   -0.03    0.28
 -29  -5 -11   -0.14    0.45
  29  -5  11   -0.39    0.19
  -5  11  29    0.20    0.51
  29   5 -11    0.10    0.25
  29  -5 -11   -0.23    0.20
   5  11  29   -0.38    0.52
  29   5  11   -0.14    0.19
 -11 -29   5   -0.32    0.26
 -29  -5  11   -0.66    0.61
 -29   5 -11   -0.39    0.39
 -29  -7 -11   -0.06    0.51
 -29   7  11   -1.02    0.50
  -7  11  29    0.18    0.48
  29   7 -11   -0.09    0.25
  11 -29   7   -0.09    0.28
  29  -7  11   -0.31    0.19
 -29  -7  11   -1.13    0.60
   7  11  29   -0.06    0.54
  29   7  11   -0.25    0.20
 -11 -29   7    0.06    0.30
  11 -29   9   -0.29    0.30
  -9  11  29    0.08    0.46
 -29   9  11   -0.95    0.45
 -29  -9 -11    0.01    0.46
  29  -9  11   -0.10    0.21
  29   9 -11   -0.52    0.24
  29   9  11    0.06    0.23
 -29  -9  11   -0.39    0.72
 -11 -29   9   -0.12    0.32
   9  11  29    0.29    0.66
  11 -29  11    0.02    0.33
 -29 -11 -11   -0.32    0.46
  29 -11  11   -0.05    0.21
 -29  11  11   -0.94    0.53
  29  11 -11   -0.27    0.26
 -11  11  29    0.55    0.49
 -11 -29  11    0.12    0.33
  29  11  11   -0.21    0.21
  11  11  29   -0.06    0.55
 -29 -11  11   -0.85    0.68
 -13  11  29    0.49    0.40
  11 -29  13   -0.38    0.32
  29  13 -11   -0.11    0.27
  29 -13  11    0.05    0.26
 -29 -13 -11   -0.06    0.50
  29  13  11   -0.04    0.23
 -11 -29  13   -0.27    0.30
  13  11  29   -0.37    0.58
 -29 -13  11   -1.12    0.69
 -29 -15  11   -0.80    0.71
  29  15  11    0.13    0.25
  -1  13  29   -0.18    0.53
 -29  -1 -13   -0.45    0.41
  29  -1  13   -0.07    0.21
  29   1 -13   -0.06    0.23
 -29   1  13   -0.42    0.56
  29  -1 -13   -0.15    0.22
 -29  -1  13   -0.58    0.56
 -29   1 -13    0.01    0.50
  29   1  13   -0.11    0.21
   1  13  29    0.38    0.58
 -13 -29   1   -0.15    0.28
  29   3 -13   -0.16    0.23
  -3  13  29   -0.16    0.50
  29  -3  13   -0.06    0.22
 -29  -3 -13   -1.06    0.46
 -29   3  13   -0.72    0.53
 -29   3 -13    0.05    0.42
 -29  -3  13   -0.46    0.58
   3  13  29    0.14    0.59
  29   3  13   -0.28    0.18
 -13 -29   3   -0.23    0.29
  29  -5  13   -0.02    0.22
 -29  -5 -13   -0.32    0.46
 -29   5  13   -1.03    0.54
  13 -29   5   -0.65    0.28
  -5  13  29    0.13    0.53
  29   5 -13   -0.23    0.23
  29   5  13   -0.17    0.17
 -13 -29   5   -0.20    0.28
 -29   5 -13   -0.35    0.40
 -29  -5  13   -0.17    0.71
   5  13  29   -0.21    0.57
  -7  13  29    0.21    0.51
  29   7 -13   -0.38    0.23
 -29  -7 -13   -0.63    0.49
  29  -7  13    0.17    0.25
 -29   7  13   -1.08    0.48
  13 -29   7   -0.13    0.35
 -29  -7  13   -0.09    0.70
   7  13  29   -0.25    0.55
 -13 -29   7    0.09    0.31
  29   7  13   -0.31    0.20
 -29  -9 -13    0.00    0.43
  29  -9  13   -0.18    0.21
   9 -13  29   -0.28    0.29
 -29   9  13   -0.49    0.53
  -9  13  29   -0.07    0.41
  29   9 -13   -0.45    0.24
   9  13  29    0.70    0.63
  29   9  13   -0.14    0.22
 -13 -29   9   -0.34    0.29
 -29  -9  13   -0.51    0.75
 -29  11  13   -0.62    0.48
  11 -13  29   -0.38    0.27
 -29 -11 -13   -0.59    0.37
  29 -11  13   -0.15    0.20
 -11  13  29    0.57    0.46
  29  11 -13   -0.18    0.28
  13 -29  11   -0.37    0.31
 -13 -29  11   -0.01    0.32
  11  13  29    0.04    0.47
 -29 -11  13   -0.61    0.71
  29  11  13   -0.21    0.21
  13 -29  13   -0.53    0.35
  13 -13  29   -0.41    0.28
 -29  13  13    0.03    0.50
 -29 -13  13   -0.30    0.78
  -1  15  29   -0.09    0.57
 -29  -1 -15   -0.15    0.47
 -29   1  15   -0.84    0.58
   1 -15  29   -0.37    0.28
  29   1 -15   -0.23    0.23
  29  -1  15   -0.45    0.20
  -1 -15  29   -0.47    0.29
   1  15  29   -0.07    0.57
 -29  -1  15   -1.15    0.59
 -15 -29   1   -0.28    0.28
 -29   1 -15   -0.97    0.44
  29   1  15   -0.29    0.19
  -3  15  29   -0.11    0.55
  29  -3  15   -0.20    0.24
  29   3 -15    0.35    0.29
 -29  -3 -15   -0.08    0.46
 -29   3  15   -1.12    0.48
   3 -15  29   -0.27    0.32
 -29   3 -15   -0.05    0.46
 -29  -3  15   -0.98    0.64
  29   3  15   -0.38    0.20
   3  15  29    0.09    0.57
 -15 -29   3   -0.32    0.27
  15 -29   5   -0.43    0.28
  -5  15  29   -0.17    0.40
   5 -15  29   -0.33    0.28
 -29   5  15   -0.22    0.54
  29   5 -15   -0.11    0.26
 -29  -5  15    0.03    0.74
   5  15  29   -0.11    0.54
  29   5  15   -0.10    0.20
 -15 -29   5   -0.16    0.30
  29   7 -15   -0.33    0.25
  29  -7  15   -0.12    0.21
   7 -15  29   -0.38    0.29
  15 -29   7   -0.71    0.28
 -29   7  15   -0.70    0.49
  -7  15  29    0.60    0.48
  29   7  15   -0.25    0.18
 -15 -29   7    0.09    0.28
   7  15  29    0.35    0.56
 -29  -7  15   -0.66    0.66
  29   9 -15   -0.42    0.25
  -9  15  29    0.62    0.42
  15 -29   9   -0.29    0.30
 -29   9  15    0.06    0.52
   9 -15  29   -0.07    0.33
  29  -9  15   -0.34    0.18
 -15 -29   9   -0.06    0.32
  29   9  15   -0.32    0.19
   9  15  29   -0.32    0.53
 -29  -9  15   -0.98    0.69
  15 -29  11   -0.12    0.38
  11 -15  29    0.02    0.30
 -29  11  15    0.22    0.48
  29  11 -15   -0.18    0.28
  29  -1  17   -0.26    0.20
   1 -17  29   -0.09    0.35
 -29   1  17   -0.11    0.63
  -1  17  29    0.46    0.52
 -29  -1  17   -0.26    0.60
  29   1  17   -0.07    0.23
 -17 -29   1   -0.40    0.30
  -1 -17  29   -0.35    0.33
   1  17  29    0.33    0.48
 -29   1 -17    0.82    0.52
   3 -17  29    0.03    0.37
 -29   3  17   -0.14    0.58
  -3  17  29    0.30    0.50
  29  -3  17   -0.35    0.17
   3  17  29    0.25    0.47
 -29  -3  17   -0.14    0.65
  29   3  17   -0.04    0.23
  -3 -17  29   -0.41    0.35
 -29   3 -17   -0.06    0.45
 -17 -29   3    0.31    0.34
  29  -5  17   -0.36    0.19
  17 -29   5   -0.44    0.30
  29   5 -17   -0.32    0.29
   5 -17  29    0.09    0.37
 -29   5  17   -0.31    0.50
  -5  17  29    0.26    0.44
  -5 -17  29    0.01    0.39
 -17 -29   5   -0.37    0.29
  29   5  17   -0.17    0.22
   5  17  29   -0.18    0.44
   7 -17  29   -0.34    0.30
  -7  17  29    0.62    0.47
  29   7 -17   -0.37    0.26
  29   7  17   -0.44    0.18
 -17 -29   7   -0.07    0.32
  -7 -17  29   -0.17    0.34
  29  -1  19   -0.24    0.23
   1 -19  29   -0.34    0.33
  29   1  19   -0.28    0.19
 -19 -29   1   -0.57    0.25
  -1 -19  29   -0.23    0.32
 -19 -29   3   -0.10    0.29
  -3 -19  29   -0.13    0.34
 -30   0   0   -0.39    0.47
   0   0  30    0.48    0.62
  30   0   0   -0.16    0.20
   2   0  30    0.83    0.72
  30  -2   0   -0.08    0.20
  30   2   0    0.01    0.21
  -2   0  30    0.39    0.60
 -30   2   0   -0.09    0.51
 -30  -2   0   -0.48    0.48
  -4   0  30    0.35    0.56
 -30   4   0   -0.29    0.51
   4   0  30    0.40    0.63
  30  -4   0   -0.10    0.20
 -30  -4   0   -0.06    0.50
  30   4   0   -0.23    0.18
   0 -30   4   -0.03    0.22
   6   0  30    0.06    0.53
   0 -30   6    0.16    0.27
  30   6   0    0.21    0.24
  30  -6   0   -0.05    0.19
  -6   0  30    0.21    0.54
 -30  -6   0   -0.21    0.56
 -30   6   0   -0.53    0.51
   0 -30   8    0.01    0.26
  -8   0  30   -0.13    0.48
  30  -8   0   -0.15    0.20
 -30  -8   0   -0.32    0.50
 -30   8   0   -0.71    0.46
   8   0  30    0.10    0.57
  30   8   0   -0.16    0.17
  30 -10   0   -0.02    0.21
 -30 -10   0   -0.66    0.54
   0 -30  10    0.16    0.32
 -10   0  30    0.16    0.49
  10   0  30    0.22    0.59
  30  10   0    0.05    0.23
 -12   0  30    0.13    0.50
   0 -30  12    0.27    0.34
  30  12   0   -0.18    0.22
 -30 -12   0   -0.23    0.58
  12   0  30   -0.43    0.52
  30 -12   0   -0.15    0.19
   0 -30  14    0.21    0.36
 -30 -14   0   -0.17    0.64
  30  14   0   -0.23    0.24
  30 -14   0   -0.05    0.24
  14   0  30   -0.82    0.50
 -14   0  30    0.44    0.50
  16   0  30   -0.53    0.50
   0 -30  16    0.20    0.35
  30  16   0   -0.36    0.24
 -16   0  30    0.38    0.49
 -30 -16   0   -0.32    0.60
  30 -16   0   -0.12    0.24
   0  -2  30    0.40    0.64
 -30   0  -2    0.01    0.49
 -30   0   2   -0.09    0.56
  30   0   2    0.07    0.21
  30   0  -2    0.19    0.22
   0   2  30    0.35    0.59
  30  -2   2    2.15    0.38
   2  -2  30    3.32    0.91
 -30   2   2    2.46    0.71
 -30  -2  -2    1.91    0.71
  -2   2  30    2.83    0.86
  30   2  -2    2.26    0.39
 -30  -2   2    2.54    0.77
  -2  -2  30    3.80    0.95
  30  -2  -2    1.69    0.35
 -30   2  -2    2.80    0.70
   2   2  30    2.92    0.92
  30   2   2    1.51    0.35
  -4   2  30   -0.12    0.52
   4  -2  30    0.14    0.57
  30  -4   2   -0.03    0.20
  30   4  -2   -0.24    0.17
   2 -30   4   -0.04    0.25
 -30   4   2   -0.29    0.47
 -30  -4  -2   -0.22    0.47
  -2 -30   4   -0.19    0.22
   4   2  30    0.10    0.57
 -30  -4   2   -0.26    0.54
  -4  -2  30   -0.03    0.55
 -30   4  -2   -0.38    0.44
  30   4   2   -0.13    0.18
  30  -4  -2   -0.15    0.17
  30  -6   2    0.65    0.28
 -30  -6  -2    1.53    0.68
   6  -2  30    1.62    0.76
   2 -30   6    0.59    0.33
  -6   2  30    1.53    0.69
  30   6  -2    0.74    0.28
 -30   6   2    1.22    0.64
   6   2  30    1.63    0.79
  30   6   2    0.78    0.28
  -2 -30   6    0.92    0.35
  30  -6  -2    0.70    0.27
 -30  -6   2    0.83    0.69
  -6  -2  30    2.34    0.73
 -30   6  -2    0.71    0.53
 -30   8   2   -0.32    0.52
  -8   2  30   -0.10    0.49
 -30  -8  -2   -0.12    0.49
   2 -30   8    0.00    0.28
   8  -2  30    0.00    0.54
  30   8  -2   -0.04    0.20
  30  -8   2   -0.06    0.20
 -30   8  -2    0.04    0.49
  -8  -2  30    0.15    0.49
  30  -8  -2   -0.11    0.20
  30   8   2    0.00    0.20
  -2 -30   8    0.00    0.25
 -30  -8   2   -0.30    0.59
   8   2  30    0.34    0.63
  30  10  -2    1.47    0.36
   2 -30  10    1.88    0.47
 -10   2  30    2.78    0.75
 -30 -10  -2    1.19    0.74
  10  -2  30    1.87    0.74
 -30  10   2    1.53    0.67
  30 -10   2    1.18    0.34
  10   2  30    2.08    0.82
 -10  -2  30    1.59    0.72
  30  10   2    0.96    0.32
  -2 -30  10    1.17    0.40
 -30 -10   2    1.81    0.83
  30 -10  -2    0.84    0.30
  12  -2  30   -0.24    0.60
 -12   2  30    0.36    0.48
   2 -30  12   -0.06    0.31
  30  12  -2    0.01    0.25
  30 -12   2   -0.27    0.22
 -30 -12  -2    0.07    0.58
  12   2  30   -0.12    0.64
  -2 -30  12    0.05    0.28
  30 -12  -2   -0.22    0.22
 -12  -2  30    0.50    0.56
 -30 -12   2   -0.24    0.61
  30  12   2   -0.16    0.22
   2 -30  14    1.11    0.44
  14  -2  30    0.85    0.65
 -14   2  30    2.47    0.69
  30  14  -2    0.47    0.34
 -30 -14  -2    1.09    0.74
  30 -14   2    0.91    0.32
 -14  -2  30    2.80    0.76
  14   2  30    1.86    0.77
  -2 -30  14    0.92    0.41
  30  14   2    0.89    0.33
 -30 -14   2    0.40    0.74
  30 -14  -2    1.05    0.34
  16  -2  30   -0.19    0.50
  30 -16   2   -0.23    0.23
 -30 -16  -2   -0.53    0.55
  30  16   2   -0.36    0.24
 -30 -16   2    0.06    0.67
 -16  -2  30    0.34    0.47
  16   2  30    0.00    0.54
  30 -16  -2   -0.35    0.23
   0  -4  30   -0.07    0.57
  30   0   4    0.07    0.21
 -30   0   4   -0.35    0.54
  30   0  -4   -0.19    0.20
   0   4  30   -0.05    0.55
 -30   0  -4   -0.12    0.47
 -30   2   4   -0.67    0.51
  30   2  -4    0.02    0.21
   2  -4  30    0.30    0.61
  30  -2   4    0.08    0.20
 -30  -2  -4   -0.22    0.48
  -2   4  30    0.04    0.54
 -30   2  -4   -0.13    0.48
  30  -2  -4    0.00    0.21
  -2  -4  30    0.38    0.61
 -30  -2   4    0.01    0.57
  30   2   4   -0.15    0.18
   2   4  30    0.63    0.65
  -4 -30   2   -0.01    0.27
 -30   4   4   -0.80    0.46
   4  -4  30   -0.62    0.50
  -4   4  30   -0.70    0.46
  30  -4   4   -0.14    0.19
   4 -30   4   -0.01    0.23
  30   4  -4   -0.05    0.22
 -30  -4  -4    0.33    0.52
   4   4  30    0.51    0.65
  -4  -4  30    0.13    0.53
  -4 -30   4   -0.01    0.25
  30  -4  -4   -0.18    0.18
  30   4   4   -0.15    0.19
 -30   4  -4   -0.45    0.43
 -30  -4   4   -0.81    0.48
   4 -30   6   -0.07    0.25
  30   6  -4    0.11    0.24
 -30   6   4   -0.69    0.43
   6  -4  30    0.12    0.57
  30  -6   4    0.02    0.23
  -6   4  30    0.17    0.51
 -30  -6  -4   -0.42    0.51
 -30   6  -4   -0.19    0.46
 -30  -6   4   -0.43    0.57
   6   4  30    0.05    0.64
  30  -6  -4   -0.20    0.19
  -6  -4  30    0.34    0.53
  30   6   4    0.10    0.22
  -4 -30   6   -0.16    0.24
   8  -4  30   -0.13    0.51
  -8   4  30    0.40    0.49
 -30   8   4   -0.75    0.46
 -30  -8  -4    0.17    0.52
   4 -30   8   -0.28    0.25
  30   8  -4    0.08    0.23
  30  -8   4   -0.01    0.21
  30   8   4   -0.28    0.15
 -30  -8   4   -0.24    0.64
  -4 -30   8   -0.02    0.26
  -8  -4  30    0.47    0.55
   8   4  30    0.17    0.59
 -30   8  -4   -0.27    0.45
  30  -8  -4   -0.14    0.19
 -10   4  30    0.58    0.54
 -30  10   4   -0.10    0.51
 -30 -10  -4   -0.34    0.55
   4 -30  10    0.59    0.37
  30  10  -4    0.54    0.29
  30 -10   4    0.22    0.25
  10  -4  30    0.68    0.60
  30 -10  -4    0.44    0.26
  -4 -30  10    0.36    0.35
 -10  -4  30    0.42    0.55
  30  10   4    0.15    0.23
 -30 -10   4    0.23    0.71
  10   4  30    0.50    0.69
 -12   4  30    0.59    0.50
 -30 -12  -4    0.04    0.56
   4 -30  12   -0.24    0.28
  30  12  -4   -0.51    0.23
  30 -12   4   -0.11    0.23
  30  12   4   -0.10    0.22
  12   4  30   -0.31    0.59
  30 -12  -4   -0.15    0.21
 -30 -12   4   -0.85    0.61
  -4 -30  12    0.18    0.31
 -12  -4  30    0.10    0.51
  30 -14   4    0.04    0.25
 -14   4  30    0.28    0.49
   4 -30  14    0.03    0.33
 -30 -14  -4   -0.58    0.57
 -14  -4  30    0.88    0.48
  -4 -30  14   -0.07    0.30
  14   4  30   -0.81    0.55
  30  14   4   -0.22    0.19
 -30 -14   4   -0.39    0.70
  30 -14  -4   -0.01    0.24
 -30 -16  -4   -0.45    0.47
  30 -16   4   -0.23    0.21
  16   4  30   -0.23    0.58
  30  16   4   -0.23    0.20
 -30 -16   4   -1.04    0.60
 -16  -4  30    0.32    0.51
   0  -6  30    0.89    0.61
  30   0  -6   -0.07    0.20
   0   6  30    0.12    0.64
  30   0   6    0.04    0.20
 -30   0   6   -0.86    0.51
 -30   0  -6    0.35    0.50
   2  -6  30    0.82    0.69
 -30  -2  -6    1.41    0.65
  30   2  -6    1.02    0.30
  30  -2   6    0.82    0.28
  -2   6  30    1.27    0.73
 -30   2   6    1.75    0.74
 -30  -2   6    0.50    0.65
  30   2   6    0.82    0.28
 -30   2  -6    0.91    0.58
  30  -2  -6    0.78    0.29
  -6 -30   2    0.62    0.34
  -2  -6  30    1.13    0.70
   2   6  30    1.28    0.78
  30  -4   6   -0.07    0.19
 -30  -4  -6   -0.11    0.44
   6 -30   4   -0.24    0.22
  30   4  -6    0.07    0.23
 -30   4   6   -0.33    0.53
   4  -6  30   -0.14    0.50
  -4   6  30   -0.12    0.49
   4   6  30    0.04    0.61
 -30  -4   6   -0.82    0.54
 -30   4  -6   -0.19    0.42
  30  -4  -6   -0.16    0.19
  30   4   6   -0.28    0.19
  -4  -6  30    0.05    0.59
  -6 -30   4   -0.12    0.25
  30   6  -6    0.42    0.26
  -6   6  30    1.16    0.63
   6 -30   6    0.35    0.30
  30  -6   6    0.30    0.24
 -30   6   6    0.08    0.58
 -30  -6  -6    0.22    0.54
  30  -6  -6    0.46    0.26
   6   6  30    0.95    0.73
  30   6   6    0.48    0.26
 -30   6  -6    0.13    0.49
  -6 -30   6    0.56    0.32
  -6  -6  30    0.86    0.63
 -30  -6   6    0.34    0.70
  -8   6  30    0.33    0.46
  30  -8   6   -0.21    0.21
   6 -30   8   -0.15    0.27
  30   8  -6    0.04    0.25
 -30  -8  -6   -0.10    0.47
 -30   8   6   -0.94    0.45
  30  -8  -6   -0.14    0.19
  -6 -30   8    0.09    0.28
 -30  -8   6   -0.20    0.70
  30   8   6    0.14    0.23
  -8  -6  30    0.14    0.50
   8   6  30    0.16    0.63
 -10   6  30    1.11    0.56
  30 -10   6    0.45    0.29
  30  10  -6    0.47    0.34
 -30  10   6    0.53    0.61
   6 -30  10    1.16    0.43
 -30 -10  -6    0.79    0.65
  30 -10  -6    1.19    0.31
 -30 -10   6    0.97    0.80
 -10  -6  30    2.12    0.67
  30  10   6    0.81    0.28
  10   6  30    1.60    0.82
  -6 -30  10    0.84    0.39
  30 -12   6   -0.32    0.18
   6 -30  12   -0.18    0.30
 -12   6  30    0.12    0.43
 -30 -12  -6    0.11    0.50
  30  12  -6   -0.31    0.23
  12   6  30   -0.42    0.54
 -12  -6  30    0.04    0.54
  30  12   6    0.00    0.22
 -30 -12   6   -0.99    0.58
  -6 -30  12    0.28    0.30
 -30 -14  -6    1.11    0.72
  30 -14   6    0.41    0.29
   6 -30  14    0.73    0.40
 -14   6  30    1.05    0.53
  30  14  -6    0.68    0.36
  30  14   6    0.89    0.31
  -6 -30  14    0.27    0.35
  14   6  30    0.73    0.77
 -14  -6  30    1.22    0.62
 -30 -14   6   -0.18    0.72
  30 -16   6   -0.35    0.25
 -16  -6  30    0.82    0.54
 -30 -16   6   -0.96    0.62
  30  16   6   -0.24    0.20
  30   0   8   -0.14    0.21
  30   0  -8   -0.14    0.21
 -30   0  -8   -0.04    0.48
   0   8  30   -0.44    0.52
  30   2  -8   -0.12    0.19
  -2   8  30    0.35    0.55
 -30   2   8   -0.85    0.48
 -30  -2  -8    0.00    0.50
  30  -2   8   -0.16    0.20
  30  -2  -8   -0.10    0.19
 -30   2  -8   -0.19    0.41
   2   8  30   -0.05    0.55
  -8 -30   2    0.07    0.29
  30   2   8   -0.03    0.20
 -30  -2   8    0.27    0.65
 -30   4   8   -0.51    0.50
   8 -30   4   -0.05    0.27
  30   4  -8    0.01    0.22
  30  -4   8    0.10    0.22
 -30  -4  -8    0.24    0.51
  -4   8  30    0.57    0.55
  -8 -30   4   -0.10    0.27
  30   4   8   -0.08    0.19
   4   8  30    0.04    0.60
 -30  -4   8   -0.29    0.54
  30  -4  -8    0.00    0.21
 -30   4  -8   -0.06    0.44
  -6   8  30    0.50    0.51
 -30  -6  -8   -0.12    0.52
   8 -30   6    0.09    0.29
  30   6  -8   -0.19    0.22
  30  -6   8   -0.10    0.20
 -30   6   8   -0.90    0.46
  30   6   8    0.09    0.22
  -8 -30   6   -0.17    0.27
 -30   6  -8   -0.26    0.42
   6   8  30   -0.17    0.61
  -6  -8  30    0.62    0.59
  30  -6  -8   -0.07    0.20
 -30  -6   8    0.01    0.67
  30  -8   8   -0.09    0.22
 -30   8   8   -0.11    0.59
  30   8  -8   -0.37    0.21
 -30  -8  -8   -0.27    0.45
  -8   8  30    0.23    0.48
   8 -30   8    0.03    0.29
 -30  -8   8   -0.52    0.69
  30  -8  -8   -0.26    0.20
  -8 -30   8   -0.07    0.27
   8   8  30    0.28    0.66
  30   8   8   -0.24    0.19
  -8  -8  30    0.33    0.56
 -30 -10  -8   -0.62    0.46
  30 -10   8    0.22    0.25
 -30  10   8   -0.71    0.52
  30  10  -8   -0.41    0.23
 -10   8  30    0.18    0.45
   8 -30  10   -0.33    0.26
 -30 -10   8   -1.05    0.61
  -8 -30  10   -0.19    0.32
  30  10   8   -0.13    0.20
  10   8  30    0.16    0.55
 -10  -8  30    0.44    0.56
 -12   8  30    0.14    0.38
  30  12  -8   -0.28    0.26
   8 -30  12   -0.32    0.28
 -30 -12  -8   -0.09    0.58
  30 -12   8   -0.15    0.24
  -8 -30  12   -0.23    0.27
 -30 -12   8   -0.71    0.71
 -12  -8  30    0.17    0.49
  30  12   8   -0.01    0.23
  12   8  30   -0.20    0.56
  30 -14   8   -0.02    0.27
   8 -30  14   -0.18    0.32
  -8 -30  14   -0.12    0.32
 -30 -14   8   -1.12    0.71
  14   8  30   -0.83    0.58
 -14  -8  30    0.26    0.49
  30  14   8    0.05    0.23
 -30   0  10   -0.04    0.64
   0  10  30    0.36    0.56
 -30   0 -10   -0.46    0.44
  30   0 -10    0.14    0.22
  30   0  10   -0.05    0.21
  30  -2  10    1.39    0.34
 -30  -2 -10    1.36    0.68
  -2  10  30    1.32    0.68
  30   2 -10    1.58    0.37
 -30   2  10    1.21    0.72
 -10 -30   2    0.71    0.36
  30   2  10    1.11    0.31
 -30  -2  10    0.88    0.73
  30  -2 -10    1.11    0.31
 -30   2 -10    1.50    0.61
   2  10  30    1.12    0.65
  30  -4  10    0.38    0.27
  -4  10  30    0.48    0.54
 -30  -4 -10   -0.10    0.54
 -30   4  10   -0.92    0.55
  30   4 -10    0.19    0.26
  30  -4 -10    0.25    0.23
   4  10  30    0.88    0.67
  30   4  10    0.07    0.23
 -10 -30   4    0.32    0.34
 -30   4 -10    0.59    0.51
 -30  -4  10    0.03    0.65
 -30  -6 -10    0.65    0.70
  -6  10  30    1.55    0.66
  30  -6  10    0.70    0.32
  10 -30   6    0.50    0.36
  30   6 -10    0.11    0.29
 -30   6  10    0.38    0.65
 -10 -30   6    0.80    0.39
   6  10  30    1.66    0.73
  30   6  10    0.95    0.30
 -30  -6  10    0.66    0.80
 -30   6 -10    1.38    0.57
  30  -8  10   -0.32    0.17
  -8  10  30   -0.18    0.43
 -30  -8 -10   -0.53    0.42
  10 -30   8   -0.42    0.28
  30   8 -10   -0.29    0.25
 -30   8  10   -0.84    0.52
   8  10  30    0.00    0.51
 -10 -30   8    0.17    0.32
 -30  -8  10   -0.07    0.77
  30   8  10    0.02    0.21
 -30  10  10    0.76    0.67
  30 -10  10    0.75    0.32
  10 -30  10    0.59    0.39
 -30 -10 -10    0.46    0.61
  30  10 -10    0.32    0.35
 -10  10  30    1.97    0.58
  10  10  30    1.27    0.76
  30  10  10    0.95    0.33
 -10 -30  10    0.97    0.41
 -30 -10  10    0.54    0.86
 -12  10  30    0.71    0.50
  30  12 -10   -0.28    0.28
  10 -30  12   -0.42    0.33
 -30 -12 -10    0.10    0.55
  30 -12  10   -0.04    0.27
 -30  12  10   -0.06    0.52
 -10 -30  12    0.21    0.33
  30  12  10    0.07    0.23
 -30 -12  10   -0.65    0.75
  12  10  30   -0.10    0.62
  30  14  10    0.94    0.30
 -30 -14  10   -0.37    0.86
  30   0  12   -0.01    0.21
 -30   0  12   -0.48    0.65
 -30   0 -12   -0.72    0.46
   0  12  30    0.11    0.60
  30   0 -12   -0.14    0.22
  30   2 -12    0.11    0.24
  -2  12  30    0.33    0.60
  30  -2  12   -0.19    0.19
 -30  -2 -12    0.12    0.54
 -30   2  12   -1.25    0.58
   2  12  30   -0.19    0.57
  30  -2 -12   -0.02    0.20
 -12 -30   2   -0.15    0.24
  30   2  12    0.02    0.21
 -30  -2  12   -0.80    0.62
 -30   2 -12   -0.17    0.50
 -30  -4 -12   -0.42    0.48
  -4  12  30    0.18    0.53
  30   4 -12   -0.14    0.26
  30  -4  12   -0.18    0.21
 -30   4  12   -1.12    0.52
  30   4  12   -0.33    0.20
 -30   4 -12   -0.62    0.39
 -30  -4  12   -0.94    0.59
 -12 -30   4   -0.20    0.28
   4  12  30   -0.45    0.47
  30  -6  12   -0.08    0.22
  30   6 -12   -0.34    0.24
 -30  -6 -12   -0.11    0.47
 -30   6  12   -0.69    0.59
  12 -30   6   -0.35    0.30
  -6  12  30   -0.02    0.44
  30   6  12   -0.16    0.21
 -12 -30   6   -0.22    0.29
   6  12  30    0.13    0.56
 -30  -6  12   -0.24    0.68
  30  -8  12   -0.16    0.20
 -30   8  12   -0.21    0.59
 -30  -8 -12    0.14    0.50
  -8  12  30    0.69    0.50
  30   8 -12   -0.27    0.26
  12 -30   8   -0.31    0.30
   8  12  30    0.20    0.52
 -12 -30   8    0.24    0.30
 -30  -8  12   -0.78    0.66
  30   8  12   -0.13    0.22
  12 -30  10   -0.23    0.31
  30 -10  12   -0.02    0.22
 -10  12  30    0.50    0.44
 -30 -10 -12    0.28    0.50
  30  10 -12   -0.10    0.28
 -30  10  12   -0.08    0.57
  30  10  12    0.28    0.27
 -30 -10  12   -0.65    0.74
 -12 -30  10    0.05    0.33
  12 -30  12   -0.81    0.30
 -30  12  12   -0.12    0.51
  30  12  12   -0.13    0.20
 -30 -12  12   -0.30    0.80
   0  14  30    0.22    0.49
  30   0 -14   -0.03    0.25
  30   0  14   -0.08    0.21
 -30   0 -14    0.02    0.53
 -30   0  14   -0.18    0.64
 -30  -2 -14    0.95    0.60
 -30   2  14    1.50    0.76
  30  -2  14    1.28    0.35
  -2  14  30    2.11    0.72
  30   2 -14    0.63    0.34
 -30  -2  14    1.21    0.77
 -14 -30   2    1.37    0.44
 -30   2 -14    1.69    0.66
  30   2  14    1.00    0.31
   2  14  30    2.42    0.75
 -30  -4 -14   -0.13    0.41
  30   4 -14   -0.52    0.21
  -4  14  30    0.30    0.49
 -30   4  14   -0.85    0.49
  30  -4  14   -0.13    0.21
 -30  -4  14   -0.76    0.66
  30   4  14   -0.04    0.24
   4  14  30    0.08    0.54
 -30   4 -14   -0.05    0.47
 -14 -30   4   -0.03    0.28
  -6  14  30    1.88    0.64
  30   6 -14    0.33    0.33
 -30   6  14    0.35    0.57
  30  -6  14    0.26    0.28
 -30  -6 -14    0.74    0.53
  14 -30   6    0.64    0.40
 -30  -6  14   -0.12    0.81
  30   6  14    0.51    0.26
 -14 -30   6    0.66    0.38
   6  14  30    1.95    0.77
  30  -8  14   -0.41    0.19
  30   8 -14   -0.42    0.25
  14 -30   8   -0.56    0.28
  -8  14  30    0.52    0.49
 -30   8  14   -0.04    0.50
 -14 -30   8    0.13    0.32
  30   8  14   -0.23    0.19
 -30  -8  14   -1.39    0.69
  14 -30  10    0.75    0.42
 -30  10  14    1.51    0.63
  30  10  14    0.57    0.27
  30   0  16   -0.08    0.19
   0  16  30    0.77    0.55
 -30   0 -16    0.12    0.45
 -30  -2 -16    0.51    0.48
  30  -2  16    0.15    0.23
  -2  16  30    0.02    0.44
   2 -16  30   -0.14    0.32
  30   2  16   -0.27    0.18
 -16 -30   2   -0.61    0.28
 -30   2 -16   -0.36    0.42
   2  16  30    0.36    0.55
  30   4 -16   -0.56    0.25
 -30  -4 -16   -0.19    0.41
  30  -4  16   -0.08    0.23
   4 -16  30   -0.28    0.34
 -16 -30   4   -0.25    0.28
  30   4  16   -0.08    0.20
 -30   4 -16    0.57    0.52
  30   6 -16   -0.24    0.28
  16 -30   6   -0.29    0.33
   6 -16  30   -0.02    0.30
 -16 -30   6   -0.47    0.28
  30   6  16   -0.03    0.21
 -31  -1  -1   -0.44    0.47
  31  -1   1   -0.07    0.20
  31   1  -1    0.09    0.23
 -31   1   1   -0.41    0.50
   1  -1  31    0.08    0.61
  -1   1  31    0.37    0.58
  -1  -1  31    0.40    0.62
   1   1  31   -0.22    0.51
  31  -1  -1   -0.05    0.20
 -31  -1   1   -0.18    0.54
 -31   1  -1   -0.22    0.53
  31   1   1    0.19    0.23
  31  -3   1   -0.03    0.22
  31   3  -1    0.19    0.24
 -31  -3  -1   -0.46    0.48
  -3   1  31    0.28    0.58
   3  -1  31    0.18    0.59
 -31   3   1   -0.43    0.47
  31   3   1    0.09    0.23
 -31  -3   1   -0.10    0.56
 -31   3  -1   -0.32    0.49
   3   1  31    0.25    0.59
  -3  -1  31    0.29    0.52
  31  -3  -1   -0.28    0.18
 -31  -5  -1   -0.37    0.52
  31  -5   1   -0.14    0.20
   1 -31   5    0.14    0.27
  -5   1  31    0.23    0.55
   5  -1  31    0.10    0.56
  31   5  -1    0.00    0.21
 -31   5   1   -0.04    0.50
 -31   5  -1   -0.10    0.50
  -5  -1  31    0.32    0.56
  31  -5  -1    0.07    0.23
  -1 -31   5    0.09    0.25
  31   5   1    0.23    0.22
 -31  -5   1   -0.36    0.56
   5   1  31    0.26    0.55
  -7   1  31   -0.13    0.46
 -31   7   1   -0.06    0.53
   1 -31   7    0.11    0.26
  31  -7   1   -0.08    0.22
  31   7  -1   -0.02    0.22
   7  -1  31    0.19    0.60
 -31  -7  -1   -0.48    0.49
 -31  -7   1   -0.59    0.54
  31   7   1   -0.17    0.19
   7   1  31   -0.55    0.57
  -7  -1  31    0.33    0.59
 -31   7  -1   -0.43    0.50
  -1 -31   7    0.23    0.28
  31  -7  -1    0.03    0.22
 -31   9   1   -1.18    0.46
  31   9  -1   -0.21    0.23
  31  -9   1   -0.09    0.24
  -9   1  31    0.06    0.53
   9  -1  31   -0.13    0.57
   1 -31   9    0.09    0.29
 -31  -9  -1   -0.31    0.59
  -1 -31   9   -0.18    0.27
  31   9   1   -0.34    0.21
 -31  -9   1   -0.58    0.55
  -9  -1  31    0.35    0.58
   9   1  31   -0.63    0.55
  31  -9  -1   -0.02    0.23
 -31 -11  -1   -0.13    0.59
 -11   1  31    0.76    0.58
  31  11  -1   -0.43    0.25
  11  -1  31    0.06    0.58
   1 -31  11   -0.04    0.29
  31 -11   1   -0.19    0.24
  11   1  31   -0.43    0.60
 -11  -1  31    0.37    0.51
 -31 -11   1   -0.95    0.54
  31  11   1   -0.44    0.23
  -1 -31  11   -0.21    0.27
  31 -11  -1   -0.14    0.23
  31 -13   1   -0.13    0.23
 -13   1  31    0.61    0.52
 -31 -13  -1   -0.59    0.62
  31  13  -1   -0.47    0.21
  13  -1  31   -0.17    0.56
   1 -31  13    0.26    0.36
  31  13   1   -0.21    0.23
 -13  -1  31    0.01    0.51
 -31 -13   1   -0.47    0.64
  13   1  31   -0.30    0.48
  -1 -31  13    0.29    0.35
  31 -13  -1   -0.15    0.23
  15  -1  31    0.34    0.54
  31 -15   1   -0.45    0.23
  31 -15  -1   -0.21    0.24
  15   1  31   -0.26    0.47
 -31  -1  -3   -0.46    0.44
  31  -1   3    0.07    0.22
  31   1  -3   -0.12    0.20
  -1   3  31    0.53    0.67
 -31   1   3   -0.37    0.53
   1  -3  31    0.81    0.71
  -1  -3  31    0.52    0.62
 -31  -1   3   -0.36    0.53
  31   1   3   -0.15    0.19
 -31   1  -3   -0.32    0.46
  31  -1  -3   -0.05    0.21
   1   3  31   -0.10    0.62
   3  -3  31   -0.36    0.48
  31  -3   3   -0.28    0.20
  -3   3  31    0.00    0.56
 -31  -3  -3   -0.45    0.51
 -31   3   3   -0.57    0.51
  31   3  -3   -0.15    0.20
 -31   3  -3   -0.27    0.42
  31  -3  -3    0.05    0.22
  31   3   3   -0.19    0.18
   3   3  31    0.19    0.60
  -3  -3  31    0.65    0.60
 -31  -3   3   -0.02    0.57
   5  -3  31    0.04    0.47
 -31  -5  -3   -0.31    0.57
  -5   3  31    0.26    0.58
   3 -31   5   -0.21    0.25
 -31   5   3    0.32    0.61
  31   5  -3   -0.12    0.21
  31  -5   3   -0.05    0.21
  -5  -3  31    0.34    0.56
  31  -5  -3   -0.15    0.20
  31   5   3    0.05    0.21
 -31  -5   3   -0.55    0.56
 -31   5  -3   -0.26    0.46
  -3 -31   5    0.08    0.27
   5   3  31    0.20    0.67
 -31   7   3   -0.63    0.48
   3 -31   7   -0.09    0.26
  31   7  -3   -0.24    0.24
   7  -3  31    0.01    0.59
 -31  -7  -3   -1.01    0.46
  -7   3  31    0.22    0.53
  31  -7   3   -0.10    0.21
 -31   7  -3   -0.73    0.46
 -31  -7   3   -0.50    0.56
  -7  -3  31    0.27    0.56
  31   7   3   -0.11    0.21
  31  -7  -3   -0.30    0.19
  -3 -31   7   -0.07    0.27
   7   3  31   -0.61    0.67
   3 -31   9   -0.23    0.25
  31   9  -3   -0.40    0.21
 -31   9   3   -0.57    0.55
 -31  -9  -3   -0.59    0.52
  -9   3  31    0.47    0.52
   9  -3  31   -0.53    0.57
  31  -9   3    0.04    0.23
  -9  -3  31    0.23    0.56
  31  -9  -3   -0.22    0.20
  -3 -31   9   -0.07    0.28
   9   3  31   -0.75    0.57
 -31  -9   3   -0.17    0.64
  31   9   3   -0.16    0.23
  11  -3  31   -0.26    0.57
  31 -11   3   -0.51    0.21
 -11   3  31    0.86    0.57
 -31 -11  -3   -0.32    0.55
   3 -31  11    0.07    0.30
  31  11  -3   -0.22    0.24
 -31 -11   3   -0.33    0.66
 -11  -3  31    0.42    0.55
  -3 -31  11    0.05    0.28
  31  11   3   -0.16    0.22
  31 -11  -3   -0.18    0.22
  11   3  31   -0.53    0.50
  31  13  -3   -0.14    0.21
 -13   3  31   -0.07    0.52
  13  -3  31   -0.46    0.54
   3 -31  13   -0.22    0.31
 -31 -13  -3   -0.60    0.57
  31 -13   3   -0.12    0.24
  31  13   3   -0.11    0.23
 -31 -13   3   -0.84    0.61
 -13  -3  31    0.87    0.59
  -3 -31  13    0.44    0.35
  31 -13  -3   -0.38    0.23
  13   3  31    0.33    0.65
  31 -15   3   -0.10    0.27
  15   3  31   -0.06    0.57
 -15  -3  31    1.07    0.58
  -1   5  31    0.61    0.66
 -31  -1  -5   -0.79    0.45
 -31   1   5   -1.00    0.49
  31   1  -5    0.03    0.21
   1  -5  31    0.47    0.67
  31  -1   5    0.00    0.21
  31   1   5   -0.01    0.22
 -31   1  -5   -0.41    0.46
 -31  -1   5   -0.34    0.55
  -1  -5  31    0.02    0.58
   1   5  31    0.40    0.64
  31  -1  -5   -0.25    0.19
  31   3  -5   -0.10    0.21
 -31  -3  -5   -0.11    0.55
  31  -3   5   -0.02    0.22
   3  -5  31   -0.34    0.51
 -31   3   5   -0.52    0.49
  -3   5  31    0.79    0.62
  -3  -5  31    0.26    0.59
  31   3   5   -0.19    0.20
 -31  -3   5   -1.07    0.53
  -5 -31   3   -0.01    0.24
 -31   3  -5   -0.48    0.47
   3   5  31   -0.11    0.56
  31  -3  -5   -0.14    0.21
  -5   5  31    0.21    0.56
  31  -5   5   -0.24    0.19
   5  -5  31    0.10    0.61
  31   5  -5   -0.27    0.22
   5 -31   5   -0.32    0.23
 -31  -5  -5   -0.25    0.56
 -31   5   5   -0.68    0.52
  31  -5  -5   -0.14    0.19
  -5  -5  31    0.37    0.55
  -5 -31   5    0.13    0.29
 -31   5  -5    0.07    0.49
   5   5  31    0.20    0.64
  31   5   5   -0.12    0.20
 -31  -5   5   -0.35    0.58
 -31  -7  -5   -0.17    0.53
  31  -7   5   -0.35    0.24
  31   7  -5   -0.50    0.24
  -7   5  31    0.35    0.54
   5 -31   7   -0.23    0.28
 -31   7   5   -1.16    0.49
  31  -7  -5   -0.25    0.20
   7   5  31   -0.57    0.64
  -5 -31   7   -0.19    0.25
  -7  -5  31    0.48    0.56
  31   7   5   -0.10    0.18
 -31   7  -5   -0.94    0.38
 -31  -7   5   -0.77    0.65
   5 -31   9   -0.14    0.29
  31   9  -5   -0.15    0.24
 -31   9   5   -1.27    0.52
 -31  -9  -5   -0.41    0.55
  31  -9   5   -0.23    0.21
  -9   5  31    0.87    0.54
  31  -9  -5   -0.20    0.22
  -5 -31   9    0.09    0.29
 -31  -9   5   -0.48    0.62
   9   5  31   -0.30    0.59
  -9  -5  31   -0.04    0.53
  31   9   5   -0.12    0.22
   5 -31  11   -0.19    0.26
  31 -11   5   -0.29    0.22
 -11   5  31   -0.16    0.49
 -31 -11  -5   -0.88    0.53
  31  11  -5   -0.14    0.24
 -31 -11   5   -0.72    0.66
  31  11   5   -0.16    0.19
  -5 -31  11   -0.10    0.26
  11   5  31   -0.56    0.62
 -11  -5  31    0.13    0.52
  31 -11  -5   -0.24    0.20
 -31 -13  -5   -1.21    0.52
  31 -13   5   -0.19    0.24
   5 -31  13   -0.22    0.31
  -5 -31  13    0.07    0.29
  31  13   5   -0.28    0.22
 -13  -5  31    0.74    0.56
 -31 -13   5   -0.58    0.67
  13   5  31   -0.26    0.58
 -15  -5  31    0.32    0.49
  -1   7  31   -0.26    0.55
 -31  -1  -7   -0.94    0.47
  31   1  -7   -0.10    0.21
 -31   1   7   -0.87    0.55
  31  -1   7   -0.08    0.20
 -31  -1   7   -0.82    0.58
  31  -1  -7   -0.11    0.21
 -31   1  -7   -0.47    0.45
   1   7  31    0.07    0.59
  31   1   7   -0.18    0.21
  31   3  -7   -0.23    0.23
  -3   7  31    0.19    0.55
  31  -3   7   -0.14    0.17
 -31  -3  -7   -0.61    0.50
  -3  -7  31    0.49    0.60
 -31  -3   7   -0.95    0.56
  31  -3  -7    0.17    0.23
   3   7  31    0.33    0.65
  -7 -31   3   -0.15    0.28
 -31   3  -7   -0.89    0.45
  31   3   7   -0.16    0.19
 -31  -5  -7   -0.98    0.51
   7 -31   5   -0.32    0.27
  -5   7  31    0.68    0.54
  31  -5   7   -0.23    0.20
  31   5  -7   -0.58    0.22
 -31   5   7   -1.07    0.54
  -5  -7  31    0.02    0.51
   5   7  31    0.31    0.64
  31   5   7   -0.06    0.21
 -31   5  -7   -0.62    0.43
  31  -5  -7   -0.11    0.20
  -7 -31   5    0.10    0.31
 -31  -5   7   -0.75    0.57
  31  -7   7   -0.13    0.23
  31   7  -7   -0.36    0.25
  -7   7  31    0.57    0.48
 -31  -7  -7   -0.46    0.47
   7 -31   7   -0.37    0.30
   7   7  31   -0.40    0.63
  -7 -31   7   -0.05    0.29
  31   7   7    0.04    0.22
 -31  -7   7   -0.80    0.63
  -7  -7  31    0.36    0.58
  31  -7  -7   -0.35    0.17
   7 -31   9   -0.59    0.27
 -31   9   7   -0.68    0.53
  31  -9   7   -0.27    0.20
 -31  -9  -7   -0.57    0.51
  -9   7  31    0.63    0.53
  31   9  -7   -0.28    0.25
 -31  -9   7   -0.72    0.69
  -7 -31   9   -0.08    0.26
  -9  -7  31    0.59    0.61
   9   7  31    0.30    0.70
  31  -9  -7   -0.19    0.22
  31   9   7    0.05    0.23
 -31 -11  -7   -0.36    0.55
  31 -11   7   -0.31    0.22
 -11   7  31    0.31    0.45
 -31  11   7   -0.72    0.50
   7 -31  11    0.01    0.31
  31  11  -7   -0.09    0.26
  31  11   7   -0.02    0.20
  11   7  31   -0.66    0.50
  -7 -31  11   -0.03    0.29
 -31 -11   7   -0.72    0.76
 -11  -7  31    0.21    0.54
  31 -13   7   -0.11    0.25
   7 -31  13   -0.50    0.31
 -13  -7  31   -0.05    0.47
  -7 -31  13   -0.29    0.27
  31  13   7   -0.15    0.22
 -31 -13   7   -1.17    0.68
 -31  -1  -9   -0.85    0.48
  31  -1   9   -0.05    0.23
  31   1  -9    0.00    0.22
  -1   9  31    0.10    0.54
   1   9  31    0.32    0.52
 -31   1  -9   -0.94    0.42
  31  -1  -9   -0.14    0.22
  31   1   9   -0.17    0.21
  31  -3   9   -0.33    0.21
  31   3  -9   -0.56    0.22
  -3   9  31    0.21    0.54
 -31   3   9   -0.98    0.57
 -31  -3  -9   -0.77    0.50
 -31  -3   9   -1.42    0.57
   3   9  31    0.04    0.51
  31  -3  -9    0.05    0.22
  31   3   9   -0.10    0.22
  -9 -31   3   -0.03    0.29
  31   5  -9   -0.30    0.24
  -5   9  31   -0.14    0.43
  31  -5   9   -0.13    0.22
 -31   5   9   -0.92    0.57
 -31  -5  -9   -0.09    0.55
  31   5   9    0.03    0.23
   5   9  31    0.30    0.60
  -9 -31   5   -0.09    0.28
 -31   5  -9   -0.37    0.50
 -31  -5   9   -1.26    0.59
  31  -5  -9   -0.02    0.22
 -31  -7  -9   -0.21    0.47
   9 -31   7   -0.46    0.26
  31  -7   9   -0.33    0.23
  31   7  -9   -0.23    0.23
  -7   9  31    0.38    0.44
 -31   7   9   -0.72    0.58
   7   9  31   -0.90    0.55
 -31  -7   9   -0.85    0.67
  31   7   9    0.14    0.23
  -9 -31   7   -0.32    0.26
 -31   9   9   -0.97    0.55
   9 -31   9   -0.51    0.29
 -31  -9  -9   -0.66    0.40
  31  -9   9   -0.20    0.19
  -9   9  31    0.40    0.42
  31   9  -9   -0.39    0.24
  31   9   9   -0.01    0.20
  -9 -31   9    0.36    0.31
   9   9  31   -0.64    0.55
 -31  -9   9   -0.96    0.67
 -31  11   9   -0.19    0.56
   9 -31  11   -0.49    0.31
  -9 -31  11   -0.31    0.26
  31  11   9    0.07    0.25
 -31 -11   9   -0.48    0.75
  31  -1  11   -0.25    0.20
  31   1 -11   -0.33    0.22
 -31   1  11   -0.83    0.57
 -31  -1 -11   -0.44    0.47
  -1  11  31    0.64    0.60
  31  -1 -11   -0.07    0.23
 -31  -1  11   -1.31    0.54
 -31   1 -11    0.24    0.55
  31   1  11   -0.14    0.22
   1  11  31   -0.13    0.47
  31  -3  11   -0.31    0.20
 -31   3  11   -0.33    0.56
 -31  -3 -11    0.48    0.52
  -3  11  31    0.88    0.58
  31   3 -11   -0.51    0.24
 -31  -3  11   -0.77    0.64
   3  11  31    0.93    0.61
 -11 -31   3   -0.24    0.29
 -31   3 -11   -0.70    0.50
  31  -3 -11   -0.13    0.23
  31   3  11   -0.07    0.22
 -31  -5 -11    0.24    0.52
  31   5 -11   -0.41    0.24
  31  -5  11   -0.30    0.20
  -5  11  31    0.75    0.52
 -31   5  11   -0.61    0.54
 -31  -5  11   -1.44    0.70
 -31   5 -11   -0.23    0.46
   5  11  31   -0.25    0.51
 -11 -31   5   -0.03    0.28
  31   5  11   -0.13    0.20
  31  -7  11   -0.27    0.20
  -7  11  31    0.95    0.50
 -31  -7 -11    0.21    0.50
 -31   7  11   -0.38    0.59
  31   7 -11   -0.15    0.27
  11 -31   7   -0.48    0.32
 -11 -31   7   -0.15    0.31
 -31  -7  11   -1.41    0.70
   7  11  31    0.10    0.59
  31   7  11    0.14    0.22
  31   9 -11   -0.52    0.22
  11 -31   9   -0.07    0.34
 -31   9  11   -0.16    0.55
  31   9  11   -0.25    0.20
 -11 -31   9   -0.29    0.26
 -31  11  11   -0.05    0.54
  11 -31  11   -0.53    0.32
  31  11  11    0.05    0.23
  31   1 -13   -0.28    0.26
  31  -1  13   -0.08    0.22
 -31   1  13   -0.21    0.59
 -31  -1 -13   -0.11    0.50
  -1  13  31    0.28    0.55
   1  13  31    0.50    0.54
 -31  -1  13   -0.40    0.59
 -31   1 -13    0.06    0.51
  31  -1 -13   -0.23    0.26
  31   1  13   -0.19    0.20
  -3  13  31    0.17    0.51
  31   3 -13   -0.37    0.24
 -31   3  13   -0.20    0.60
  31  -3  13   -0.33    0.20
 -31  -3 -13    0.17    0.50
 -31  -3  13   -0.26    0.65
 -13 -31   3   -0.25    0.33
  31   3  13    0.02    0.21
   3  13  31    0.00    0.52
 -31   3 -13   -0.19    0.52
  31   5 -13   -0.26    0.26
  31  -5  13   -0.19    0.24
 -31   5  13   -0.34    0.54
 -31  -5 -13    0.19    0.51
 -13 -31   5   -0.24    0.28
  31   5  13   -0.23    0.20
 -31   7  13   -0.01    0.58
  31   7 -13   -0.21    0.26
  13 -31   7   -0.44    0.29
 -13 -31   7   -0.38    0.33
  31   7  13   -0.12    0.21
 -31  -1 -15    0.09    0.48
  31  -1  15   -0.06    0.23
 -31   1 -15    0.21    0.48
  31   1  15   -0.10    0.22
  31   3 -15   -0.30    0.24
  31   3  15    0.03    0.23
 -31   3 -15   -0.18    0.43
 -15 -31   3   -0.32    0.27
 -15 -31   5   -0.08    0.29
 -32   0   0   33.82    2.68
   0   0  32   35.81    3.02
  32   0   0   32.08    2.25
  32   2   0    0.32    0.29
   2   0  32    1.14    0.84
  32  -2   0    0.48    0.29
  -2   0  32    0.41    0.73
 -32  -2   0    0.33    0.65
 -32   2   0    0.17    0.60
 -32   4   0   23.22    2.02
  32  -4   0   21.30    1.67
  32   4   0   20.91    1.69
   4   0  32   27.43    2.52
 -32  -4   0   22.73    2.17
  -4   0  32   21.92    2.20
  32   6   0    0.21    0.26
   6   0  32    1.19    0.81
  -6   0  32    0.69    0.66
  32  -6   0    0.34    0.27
 -32  -6   0   -0.59    0.59
 -32   6   0   -0.62    0.62
   0 -32   6    0.36    0.32
  32   8   0   23.91    1.86
 -32   8   0   23.99    2.10
   0 -32   8   26.93    2.04
   8   0  32   28.71    2.60
 -32  -8   0   26.95    2.41
  32  -8   0   23.50    1.81
  -8   0  32   25.76    2.30
  10   0  32    0.91    0.71
  32  10   0    0.25    0.27
  32 -10   0    0.49    0.28
   0 -32  10    0.63    0.36
 -32 -10   0    0.58    0.77
 -10   0  32    1.65    0.69
  32 -12   0   19.15    1.57
   0 -32  12   18.88    1.78
  12   0  32   21.60    2.16
 -32   0   2   -0.74    0.63
   0  -2  32    0.96    0.76
  32   0  -2    0.54    0.31
   0   2  32    0.47    0.70
  32   0   2    0.28    0.29
   2  -2  32    0.24    0.72
  -2   2  32    0.84    0.70
 -32   2   2   -1.17    0.59
  32   2  -2   -0.20    0.26
 -32  -2  -2   -0.99    0.51
 -32   2  -2   -0.21    0.58
  -2  -2  32    0.60    0.68
  32   2   2   -0.15    0.24
  32  -2  -2   -0.29    0.25
 -32  -2   2   -0.31    0.64
   2   2  32   -0.04    0.78
  -4   2  32    1.86    0.78
   4  -2  32    1.34    0.79
  32  -4   2    0.11    0.27
  32   4  -2    0.12    0.27
 -32   4   2   -0.96    0.64
 -32  -4  -2   -0.34    0.70
  -4  -2  32    0.68    0.65
 -32   4  -2   -0.96    0.59
 -32  -4   2   -0.87    0.71
  32   4   2   -0.03    0.26
   4   2  32    0.24    0.71
  32  -4  -2   -0.01    0.25
   2 -32   6    0.15    0.32
  -6   2  32    0.85    0.65
 -32   6   2   -1.16    0.60
  32  -6   2    0.18    0.26
 -32  -6  -2   -0.11    0.62
  32   6  -2   -0.24    0.23
   6  -2  32    0.61    0.72
  -6  -2  32    0.75    0.65
  -2 -32   6    0.39    0.32
   6   2  32    0.15    0.65
 -32  -6   2    0.00    0.74
  32   6   2   -0.36    0.24
 -32   6  -2   -0.75    0.51
  32  -6  -2   -0.30    0.26
   8  -2  32    1.20    0.74
  32   8  -2    0.24    0.25
  32  -8   2    0.26    0.25
 -32   8   2   -0.79    0.60
 -32  -8  -2   -0.51    0.70
   2 -32   8    0.05    0.35
  -8   2  32    1.37    0.62
  -2 -32   8    0.15    0.34
 -32   8  -2   -1.10    0.56
  -8  -2  32    1.21    0.65
  32  -8  -2    0.25    0.27
 -32  -8   2   -1.15    0.67
   8   2  32    0.90    0.69
  32   8   2    0.22    0.27
 -32 -10  -2   -0.68    0.65
  10  -2  32    0.12    0.55
 -10   2  32    0.81    0.55
  32  10  -2    0.20    0.26
   2 -32  10    0.03    0.29
  32 -10   2    0.07    0.26
  32 -10  -2   -0.21    0.22
  32  10   2   -0.04    0.25
  10   2  32    0.86    0.65
 -32 -10   2   -1.13    0.66
 -10  -2  32    0.89    0.56
  -2 -32  10    0.29    0.30
   2 -32  12   -0.14    0.39
  32 -12   2    0.42    0.29
  12  -2  32    0.70    0.58
 -12  -2  32    1.74    0.64
  -2 -32  12    0.35    0.38
  12   2  32    1.58    0.77
  32 -12  -2    0.45    0.29
  32   0   4   21.80    1.69
   0   4  32   23.02    2.35
  32   0  -4   22.39    1.71
 -32   0   4   21.61    2.11
 -32   0  -4   22.94    2.06
   0  -4  32   25.49    2.41
  32   2  -4    0.02    0.27
   2  -4  32    1.07    0.87
 -32   2   4   -0.17    0.69
  -2   4  32    0.84    0.73
 -32  -2  -4   -0.30    0.61
  32  -2   4    0.49    0.29
  32  -2  -4   -0.06    0.26
 -32   2  -4    0.40    0.65
 -32  -2   4   -0.34    0.73
  32   2   4    0.08    0.26
   2   4  32    0.40    0.78
  -2  -4  32    1.25    0.79
  32   4  -4   22.52    1.82
   4  -4  32   28.80    2.56
 -32   4   4   25.22    2.19
  32  -4   4   22.24    1.79
 -32  -4  -4   26.22    2.29
  -4   4  32   26.69    2.37
 -32  -4   4   25.17    2.36
 -32   4  -4   23.47    2.08
  32   4   4   24.39    1.84
  -4  -4  32   28.46    2.43
  32  -4  -4   23.76    1.80
   4   4  32   30.36    2.67
  -4 -32   4   25.40    1.94
 -32  -6  -4    0.52    0.63
 -32   6   4    0.37    0.65
   6  -4  32    0.77    0.77
  32   6  -4    0.09    0.26
   4 -32   6    0.54    0.36
  -6   4  32    1.46    0.70
  32  -6   4    0.29    0.27
   6   4  32    0.67    0.70
 -32   6  -4    0.19    0.61
  32   6   4    0.41    0.28
 -32  -6   4   -0.98    0.68
  32  -6  -4    0.53    0.31
  -4 -32   6    0.39    0.33
  -6  -4  32    0.03    0.62
  32  -8   4   16.82    1.46
 -32  -8  -4   18.38    1.89
  32   8  -4   17.31    1.51
  -8   4  32   16.99    1.81
   8  -4  32   20.38    2.05
 -32   8   4   16.19    1.72
   4 -32   8   18.04    1.64
   8   4  32   20.29    2.15
 -32  -8   4   17.07    2.04
  -8  -4  32   20.75    1.97
  32   8   4   16.85    1.47
  32  -8  -4   18.62    1.47
  -4 -32   8   18.83    1.64
   4 -32  10    0.11    0.33
  32 -10   4    0.28    0.27
 -32 -10  -4    0.10    0.58
 -10   4  32    0.62    0.60
  32  10  -4    0.23    0.28
  -4 -32  10    0.32    0.35
  32  10   4    0.55    0.30
  32 -10  -4    0.31    0.27
 -32 -10   4   -0.08    0.81
  10   4  32    1.36    0.80
 -10  -4  32    1.67    0.65
   4 -32  12   21.05    1.88
  32 -12   4   20.54    1.68
 -12  -4  32   20.13    2.01
  12   4  32   24.61    2.38
  -4 -32  12   19.37    1.82
  32 -12  -4   22.96    1.68
 -32   0  -6    0.41    0.62
  32   0   6    0.38    0.28
 -32   0   6   -0.52    0.71
   0   6  32    0.63    0.68
   0  -6  32    1.38    0.78
  32   0  -6   -0.13    0.27
  32  -2   6   -0.04    0.25
 -32  -2  -6    0.23    0.61
  -2   6  32    0.47    0.55
  32   2  -6   -0.02    0.27
 -32   2   6   -1.01    0.61
  -2  -6  32    1.36    0.72
  32  -2  -6   -0.30    0.24
 -32   2  -6   -0.51    0.57
  32   2   6   -0.43    0.23
 -32  -2   6   -0.98    0.66
   2   6  32    1.27    0.76
 -32  -4  -6    0.26    0.63
  -4   6  32    2.03    0.76
  32   4  -6    0.58    0.29
 -32   4   6   -0.46    0.65
  32  -4   6    0.56    0.28
  -4  -6  32    1.42    0.71
  -6 -32   4    0.02    0.33
 -32  -4   6   -0.46    0.73
  32   4   6    0.05    0.27
  32  -4  -6    0.69    0.32
 -32   4  -6   -0.94    0.58
   4   6  32    1.84    0.83
  -6   6  32    0.72    0.62
   6 -32   6   -0.32    0.28
  32  -6   6    0.15    0.26
 -32   6   6   -0.04    0.63
 -32  -6  -6    1.10    0.62
  32   6  -6    0.16    0.27
  32  -6  -6   -0.39    0.23
   6   6  32    0.53    0.75
  -6  -6  32    1.09    0.69
  32   6   6   -0.08    0.27
 -32   6  -6   -0.09    0.54
 -32  -6   6   -0.58    0.71
  -6 -32   6    0.07    0.30
  32   8  -6    0.52    0.30
  32  -8   6    0.48    0.28
  -8   6  32    1.17    0.65
   6 -32   8    0.19    0.35
 -32  -8  -6    0.55    0.65
 -32   8   6   -0.42    0.61
  32   8   6    0.28    0.28
  32  -8  -6    0.26    0.27
  -8  -6  32    1.69    0.72
   8   6  32    1.74    0.81
  -6 -32   8    0.43    0.37
 -32  -8   6   -0.86    0.75
  32 -10   6   -0.08    0.24
   6 -32  10   -0.17    0.27
 -32  10   6   -0.53    0.55
  32 -10  -6   -0.43    0.24
 -10  -6  32    1.18    0.66
  32  10   6   -0.54    0.20
  -6 -32  10    0.20    0.33
  10   6  32    0.73    0.74
   6 -32  12   -0.15    0.34
 -12  -6  32    1.27    0.64
 -32   0   8   23.04    2.25
  32   0  -8   24.31    1.84
  32   0   8   23.37    1.83
   0   8  32   29.62    2.55
 -32   0  -8   27.39    2.21
 -32  -2  -8    1.03    0.62
 -32   2   8    0.29    0.66
  -2   8  32    0.61    0.64
  32   2  -8    0.32    0.28
  32  -2   8    0.49    0.28
 -32  -2   8    0.39    0.70
 -32   2  -8    0.52    0.62
  32   2   8    0.55    0.31
  32  -2  -8    0.06    0.27
   2   8  32    0.70    0.76
  -4   8  32   19.39    1.94
 -32  -4  -8   21.05    1.90
  32  -4   8   18.22    1.50
  32   4  -8   18.08    1.51
 -32   4   8   17.55    1.82
  32  -4  -8   18.73    1.49
  32   4   8   18.66    1.51
 -32   4  -8   16.55    1.68
 -32  -4   8   16.61    1.95
  -8 -32   4   18.00    1.61
 -32  -6  -8    0.46    0.56
  -6   8  32    0.62    0.55
 -32   6   8    0.18    0.63
  32  -6   8    0.35    0.26
  32   6  -8    0.17    0.28
   8 -32   6    0.58    0.39
  32   6   8    0.28    0.26
  32  -6  -8   -0.02    0.28
 -32   6  -8    0.36    0.57
   6   8  32    0.82    0.83
 -32  -6   8   -0.05    0.73
  -8 -32   6    0.58    0.36
  32   8  -8   18.23    1.57
 -32   8   8   19.42    1.82
  32  -8   8   17.92    1.54
   8 -32   8   21.43    1.78
  32   8   8   18.47    1.53
  -8 -32   8   17.31    1.66
 -32  10   8    0.08    0.59
   8 -32  10    0.18    0.32
  32  10   8    0.15    0.27
  -8 -32  10    0.82    0.39
  32   0 -10    0.07    0.26
  32   0  10    0.21    0.26
 -32   0  10    1.84    0.82
   0  10  32    1.09    0.65
 -32   0 -10    0.39    0.61
 -32  -2 -10   -0.15    0.46
  32  -2  10    0.14    0.27
 -32   2  10   -0.20    0.58
  32   2 -10   -0.06    0.27
  -2  10  32    0.26    0.57
   2  10  32    0.26    0.61
  32  -2 -10   -0.28    0.26
 -32  -2  10   -0.94    0.61
  32   2  10   -0.27    0.23
 -32   2 -10    0.53    0.57
  -4  10  32    0.26    0.50
 -32  -4 -10    0.69    0.55
  32   4 -10    0.32    0.27
  32  -4  10    0.28    0.26
 -32   4  10    0.34    0.63
 -10 -32   4   -0.24    0.33
 -32  -4  10   -0.20    0.71
  32  -4 -10   -0.13    0.26
  32   4  10    0.02    0.26
 -32   4 -10    0.56    0.62
 -32   6  10    0.18    0.61
 -32  -6 -10    0.19    0.52
  32   6 -10    0.03    0.27
  32   6  10   -0.26    0.24
 -10 -32   6   -0.28    0.30
 -32   8  10    0.20    0.60
  10 -32   8    0.27    0.36
  32   8  10   -0.01    0.25
 -10 -32   8    0.25    0.40
  32   0 -12   20.92    1.63
  32   0  12   20.16    1.62
 -32   0 -12   19.44    1.85
 -32  -2 -12    1.81    0.64
  32   2 -12    0.46    0.30
  32  -2 -12    0.08    0.28
  32   2  12    0.53    0.28
 -32   2 -12    0.60    0.51
  32   4 -12   20.80    1.68
  32   4  12   20.62    1.65
 -12 -32   4   21.92    1.86
 -32   4 -12   22.05    1.88
  32   6 -12    0.97    0.37
 -12 -32   6    0.87    0.40
 -33  -1  -1   -0.71    0.52
  33  -1   1   -0.27    0.22
  33   1  -1    0.07    0.27
 -33   1   1   -0.18    0.62
   1  -1  33   -0.27    0.59
  -1   1  33    0.38    0.63
  -1  -1  33    0.45    0.70
   1   1  33    0.28    0.67
  33  -1  -1   -0.14    0.20
 -33  -1   1   -0.53    0.61
 -33   1  -1   -0.57    0.59
  33   1   1   -0.33    0.19
  -3   1  33    0.54    0.62
  33  -3   1   -0.11    0.23
  33   3  -1   -0.03    0.23
   3  -1  33   -0.01    0.60
 -33  -3  -1   -0.66    0.55
 -33  -3   1   -0.59    0.56
 -33   3  -1   -0.40    0.60
  -3  -1  33    0.80    0.63
  33  -3  -1    0.05    0.24
  33   3   1    0.11    0.24
   3   1  33   -0.05    0.52
  -5   1  33    0.27    0.57
   5  -1  33    0.28    0.68
 -33  -5  -1    0.15    0.62
 -33   5   1   -0.96    0.56
  33  -5   1   -0.05    0.25
  33   5  -1   -0.19    0.24
  33   5   1   -0.17    0.23
  33  -5  -1   -0.06    0.24
  -5  -1  33    0.77    0.55
 -33   5  -1   -0.63    0.58
   5   1  33    0.32    0.55
 -33  -5   1   -0.33    0.64
 -33  -7  -1   -0.74    0.55
   7  -1  33   -0.12    0.60
  33  -7   1   -0.08    0.23
  33   7  -1   -0.05    0.22
  -7   1  33    0.38    0.54
   1 -33   7   -0.40    0.25
 -33  -7   1   -0.69    0.62
  33   7   1   -0.23    0.21
  -1 -33   7   -0.09    0.28
  -7  -1  33    0.74    0.61
 -33   7  -1   -0.91    0.55
   7   1  33    0.58    0.68
  33  -7  -1    0.02    0.25
   1 -33   9   -0.37    0.27
   9  -1  33    0.46    0.67
  33  -9   1   -0.16    0.23
  -9   1  33    0.33    0.57
  -1 -33   9    0.06    0.31
  -9  -1  33    0.61    0.54
   9   1  33    0.18    0.57
  33  -9  -1   -0.19    0.22
  -1 -33  11    0.14    0.32
 -33  -1  -3   -0.16    0.53
   1  -3  33    0.40    0.65
  33   1  -3   -0.17    0.23
  -1   3  33    0.08    0.62
 -33   1   3   -0.53    0.55
  33  -1   3   -0.22    0.23
  -1  -3  33    0.60    0.70
 -33   1  -3   -0.56    0.53
   1   3  33   -0.16    0.59
  33   1   3   -0.08    0.21
 -33  -1   3   -0.88    0.53
  33  -1  -3   -0.38    0.16
 -33  -3  -3   -0.58    0.51
 -33   3   3   -0.94    0.53
  33  -3   3   -0.17    0.22
   3  -3  33    0.19    0.69
  -3   3  33    0.07    0.60
  33   3  -3   -0.31    0.23
 -33   3  -3   -0.65    0.56
  33   3   3   -0.13    0.20
  -3  -3  33    0.46    0.63
 -33  -3   3   -0.48    0.58
   3   3  33   -0.23    0.57
  33  -3  -3   -0.15    0.23
  33  -5   3   -0.20    0.22
  -5   3  33    0.66    0.62
   5  -3  33    0.36    0.64
  33   5  -3   -0.29    0.22
 -33  -5  -3   -0.37    0.52
 -33   5   3   -0.73    0.58
 -33   5  -3   -0.29    0.55
 -33  -5   3   -0.19    0.64
  -5  -3  33    0.18    0.53
  33  -5  -3   -0.32    0.19
  33   5   3   -0.23    0.20
   5   3  33    0.27    0.69
  -3 -33   5   -0.08    0.30
 -33   7   3   -0.71    0.55
  33  -7   3   -0.31    0.19
   7  -3  33    0.61    0.69
 -33  -7  -3   -0.23    0.54
  -7   3  33   -0.19    0.48
  33   7  -3   -0.38    0.23
   3 -33   7   -0.09    0.29
  33   7   3   -0.19    0.23
  33  -7  -3   -0.11    0.21
   7   3  33   -0.50    0.59
 -33   7  -3   -0.74    0.53
  -7  -3  33    0.66    0.57
  -3 -33   7   -0.15    0.28
   3 -33   9    0.00    0.26
 -33   9   3   -0.53    0.60
   9  -3  33   -0.35    0.57
  33  -9   3   -0.08    0.25
  33  -9  -3   -0.11    0.23
  -3 -33   9   -0.01    0.29
  -9  -3  33    1.20    0.60
   9   3  33    0.37    0.67
  33   1  -5   -0.11    0.24
 -33  -1  -5   -0.35    0.52
   1  -5  33    0.01    0.72
  33  -1   5   -0.08    0.23
  -1   5  33    0.17    0.66
 -33   1   5   -0.41    0.59
   1   5  33    0.44    0.65
  33   1   5   -0.17    0.20
 -33  -1   5   -1.21    0.56
  -1  -5  33    0.62    0.72
  33  -1  -5   -0.04    0.23
 -33   1  -5   -0.78    0.51
 -33   3   5   -1.16    0.49
  -3   5  33    0.06    0.54
 -33  -3  -5   -0.25    0.50
  33   3  -5   -0.10    0.23
  33  -3   5   -0.06    0.20
  33   3   5   -0.20    0.21
  33  -3  -5   -0.36    0.19
   3   5  33    0.39    0.64
 -33   3  -5   -0.32    0.50
 -33  -3   5   -0.97    0.54
  -3  -5  33    0.94    0.69
 -33   5   5   -0.50    0.58
 -33  -5  -5    0.26    0.55
  33  -5   5   -0.17    0.25
  -5   5  33    0.32    0.59
  33   5  -5   -0.16    0.24
   5   5  33    0.23    0.72
  33  -5  -5   -0.13    0.22
 -33  -5   5   -0.56    0.67
  -5  -5  33    0.41    0.62
  33   5   5   -0.11    0.23
 -33   5  -5   -0.78    0.51
  -5 -33   5   -0.24    0.28
 -33   7   5   -1.01    0.54
  33  -7   5   -0.08    0.23
   5 -33   7   -0.37    0.27
  -7  -5  33    0.42    0.56
  -5 -33   7   -0.16    0.26
  33  -7  -5   -0.15    0.22
 -33   9   5   -1.05    0.48
   5 -33   9   -0.33    0.28
  33  -9  -5   -0.23    0.23
  -9  -5  33    0.69    0.55
  -5 -33   9   -0.35    0.27
 -33  -1  -7   -0.13    0.47
  -1   7  33   -0.04    0.67
  33   1  -7   -0.18    0.23
 -33   1   7   -0.43    0.59
  33  -1   7   -0.02    0.20
   1   7  33   -0.11    0.67
 -33  -1   7   -0.44    0.62
  33   1   7    0.03    0.24
  33  -1  -7   -0.19    0.22
 -33   1  -7   -0.33    0.55
  33   3  -7   -0.13    0.25
  33  -3   7   -0.21    0.21
 -33  -3  -7   -0.56    0.48
 -33   3   7   -0.53    0.56
   3   7  33   -0.66    0.58
  33  -3  -7   -0.19    0.20
 -33   3  -7    0.09    0.53
  33   3   7   -0.14    0.21
 -33   5   7   -0.66    0.58
  33   5  -7   -0.29    0.25
  -7 -33   5   -0.48    0.29
 -33   5  -7   -0.71    0.45
  33  -5  -7   -0.25    0.21
 -33   7   7   -0.65    0.57
   7 -33   7   -0.28    0.25
  33  -7  -7   -0.14    0.22
  -7 -33   7   -0.09    0.30
  33   1  -9   -0.20    0.21
 -33  -1  -9    0.18    0.51
  33  -1  -9   -0.06    0.25
 -33   1  -9   -0.26    0.51
  33   3  -9   -0.24    0.23
 -33   3  -9    0.00    0.50
  33  -3  -9   -0.25    0.23
  33   5  -9   -0.44    0.23
 -33   5  -9   -0.62    0.46
  33  -5  -9    0.01    0.23
  -9 -33   5   -0.52    0.25
 -33   1 -11    0.02    0.48
 -34   0   0   -0.41    0.56
   0   0  34    0.21    0.67
  34   0   0    0.09    0.25
 -34   2   0   -0.28    0.57
  -2   0  34    0.54    0.64
   2   0  34    0.83    0.71
  34  -2   0   -0.04    0.23
 -34  -2   0   -0.39    0.60
   4   0  34    0.66    0.60
  34  -4   0   -0.17    0.23
  -4   0  34    0.80    0.67
 -34   4   0   -1.29    0.51
   6   0  34    0.31    0.61
  34  -6   0   -0.15    0.23
  -6   0  34    0.75    0.59
 -34   6   0   -0.61    0.56
 -34   0  -2   -1.08    0.45
   0   2  34   -0.24    0.58
   0  -2  34    0.96    0.69
  34   0  -2   -0.05    0.22
 -34   0   2   -1.00    0.54
  -2   2  34    3.01    0.95
 -34   2   2    2.53    0.80
   2  -2  34    1.74    0.80
  -2  -2  34    3.08    0.91
   2   2  34    2.61    0.92
  34  -2  -2    1.53    0.39
 -34   2  -2    1.48    0.75
  -4   2  34    1.24    0.72
   4  -2  34    0.64    0.63
 -34   4   2   -1.14    0.51
  34  -4  -2    0.06    0.25
  -4  -2  34    0.54    0.62
 -34   4  -2   -0.90    0.52
   4   2  34    0.58    0.66
   6  -2  34    1.47    0.79
 -34   6   2   -0.14    0.61
 -34   6  -2    0.59    0.66
  -6  -2  34    1.94    0.73
  34  -6  -2    0.64    0.31
   0  -4  34    0.25    0.61
 -34   0  -4   -0.68    0.46
  34   0  -4   -0.03    0.24
   2  -4  34    0.68    0.66
  34   2  -4    0.00    0.25
 -34   2  -4   -0.51    0.54
  -2  -4  34    1.12    0.68
   4  -4  34    0.23    0.58
 -34   4   4   -0.19    0.60
  34  -4  -4   -0.01    0.25
  -4  -4  34    1.01    0.68
 -34   4  -4   -0.25    0.54
 -34   6   4   -0.95    0.51
  34  -6  -4   -0.18    0.21
  -4 -34   6   -0.32    0.25
 -34   6  -4   -0.18    0.57
  -6  -4  34    0.58    0.59
  34   0  -6   -0.02    0.23
 -34   0  -6   -0.73    0.48
 -34   2  -6    0.66    0.61
  34  -2  -6    0.60    0.31
  34  -4  -6    0.07    0.24
 -34   4  -6   -0.83    0.47
   0   0   0    0.00    0.00
;
_shelx_hkl_checksum              99947
loop_
_space_group_symop_operation_xyz
'x, y, z'
'-y, x+1/4, z+3/4'
'-x+3/4, -y+1/4, z+1/2'
'y+3/4, -x, z+1/4'
'x, -y+1/4, -z+1/4'
'y+3/4, x+1/4, -z'
'-x+3/4, y, -z+3/4'
'-y, -x, -z+1/2'
'z, x, y'
'-x, z+1/4, y+3/4'
'-z+3/4, -x+1/4, y+1/2'
'x+3/4, -z, y+1/4'
'z, -x+1/4, -y+1/4'
'x+3/4, z+1/4, -y'
'-z+3/4, x, -y+3/4'
'-x, -z, -y+1/2'
'y, z, x'
'-z+1/2, -y, -x'
'-z, y+3/4, x+1/4'
'z+1/4, y+3/4, -x'
'z+3/4, -y, x+1/4'
'y, -z+3/4, -x+3/4'
'-y+1/4, -z+1/4, x'
'-y+1/4, z+1/2, -x+3/4'
'x, y+1/2, z+1/2'
'-y, x+3/4, z+5/4'
'-x+3/4, -y+3/4, z+1'
'y+3/4, -x+1/2, z+3/4'
'x, -y+3/4, -z+3/4'
'y+3/4, x+3/4, -z+1/2'
'-x+3/4, y+1/2, -z+5/4'
'-y, -x+1/2, -z+1'
'z, x+1/2, y+1/2'
'-x, z+3/4, y+5/4'
'-z+3/4, -x+3/4, y+1'
'x+3/4, -z+1/2, y+3/4'
'z, -x+3/4, -y+3/4'
'x+3/4, z+3/4, -y+1/2'
'-z+3/4, x+1/2, -y+5/4'
'-x, -z+1/2, -y+1'
'y, z+1/2, x+1/2'
'-z+1/2, -y+1/2, -x+1/2'
'-z, y+5/4, x+3/4'
'z+1/4, y+5/4, -x+1/2'
'z+3/4, -y+1/2, x+3/4'
'y, -z+5/4, -x+5/4'
'-y+1/4, -z+3/4, x+1/2'
'-y+1/4, z+1, -x+5/4'
'x+1/2, y, z+1/2'
'-y+1/2, x+1/4, z+5/4'
'-x+5/4, -y+1/4, z+1'
'y+5/4, -x, z+3/4'
'x+1/2, -y+1/4, -z+3/4'
'y+5/4, x+1/4, -z+1/2'
'-x+5/4, y, -z+5/4'
'-y+1/2, -x, -z+1'
'z+1/2, x, y+1/2'
'-x+1/2, z+1/4, y+5/4'
'-z+5/4, -x+1/4, y+1'
'x+5/4, -z, y+3/4'
'z+1/2, -x+1/4, -y+3/4'
'x+5/4, z+1/4, -y+1/2'
'-z+5/4, x, -y+5/4'
'-x+1/2, -z, -y+1'
'y+1/2, z, x+1/2'
'-z+1, -y, -x+1/2'
'-z+1/2, y+3/4, x+3/4'
'z+3/4, y+3/4, -x+1/2'
'z+5/4, -y, x+3/4'
'y+1/2, -z+3/4, -x+5/4'
'-y+3/4, -z+1/4, x+1/2'
'-y+3/4, z+1/2, -x+5/4'
'x+1/2, y+1/2, z'
'-y+1/2, x+3/4, z+3/4'
'-x+5/4, -y+3/4, z+1/2'
'y+5/4, -x+1/2, z+1/4'
'x+1/2, -y+3/4, -z+1/4'
'y+5/4, x+3/4, -z'
'-x+5/4, y+1/2, -z+3/4'
'-y+1/2, -x+1/2, -z+1/2'
'z+1/2, x+1/2, y'
'-x+1/2, z+3/4, y+3/4'
'-z+5/4, -x+3/4, y+1/2'
'x+5/4, -z+1/2, y+1/4'
'z+1/2, -x+3/4, -y+1/4'
'x+5/4, z+3/4, -y'
'-z+5/4, x+1/2, -y+3/4'
'-x+1/2, -z+1/2, -y+1/2'
'y+1/2, z+1/2, x'
'-z+1, -y+1/2, -x'
'-z+1/2, y+5/4, x+1/4'
'z+3/4, y+5/4, -x'
'z+5/4, -y+1/2, x+1/4'
'y+1/2, -z+5/4, -x+3/4'
'-y+3/4, -z+3/4, x'
'-y+3/4, z+1, -x+3/4'
'-x, -y, -z'
'y, -x-1/4, -z-3/4'
'x-3/4, y-1/4, -z-1/2'
'-y-3/4, x, -z-1/4'
'-x, y-1/4, z-1/4'
'-y-3/4, -x-1/4, z'
'x-3/4, -y, z-3/4'
'y, x, z-1/2'
'-z, -x, -y'
'x, -z-1/4, -y-3/4'
'z-3/4, x-1/4, -y-1/2'
'-x-3/4, z, -y-1/4'
'-z, x-1/4, y-1/4'
'-x-3/4, -z-1/4, y'
'z-3/4, -x, y-3/4'
'x, z, y-1/2'
'-y, -z, -x'
'z-1/2, y, x'
'z, -y-3/4, -x-1/4'
'-z-1/4, -y-3/4, x'
'-z-3/4, y, -x-1/4'
'-y, z-3/4, x-3/4'
'y-1/4, z-1/4, -x'
'y-1/4, -z-1/2, x-3/4'
'-x, -y+1/2, -z+1/2'
'y, -x+1/4, -z-1/4'
'x-3/4, y+1/4, -z'
'-y-3/4, x+1/2, -z+1/4'
'-x, y+1/4, z+1/4'
'-y-3/4, -x+1/4, z+1/2'
'x-3/4, -y+1/2, z-1/4'
'y, x+1/2, z'
'-z, -x+1/2, -y+1/2'
'x, -z+1/4, -y-1/4'
'z-3/4, x+1/4, -y'
'-x-3/4, z+1/2, -y+1/4'
'-z, x+1/4, y+1/4'
'-x-3/4, -z+1/4, y+1/2'
'z-3/4, -x+1/2, y-1/4'
'x, z+1/2, y'
'-y, -z+1/2, -x+1/2'
'z-1/2, y+1/2, x+1/2'
'z, -y-1/4, -x+1/4'
'-z-1/4, -y-1/4, x+1/2'
'-z-3/4, y+1/2, -x+1/4'
'-y, z-1/4, x-1/4'
'y-1/4, z+1/4, -x+1/2'
'y-1/4, -z, x-1/4'
'-x+1/2, -y, -z+1/2'
'y+1/2, -x-1/4, -z-1/4'
'x-1/4, y-1/4, -z'
'-y-1/4, x, -z+1/4'
'-x+1/2, y-1/4, z+1/4'
'-y-1/4, -x-1/4, z+1/2'
'x-1/4, -y, z-1/4'
'y+1/2, x, z'
'-z+1/2, -x, -y+1/2'
'x+1/2, -z-1/4, -y-1/4'
'z-1/4, x-1/4, -y'
'-x-1/4, z, -y+1/4'
'-z+1/2, x-1/4, y+1/4'
'-x-1/4, -z-1/4, y+1/2'
'z-1/4, -x, y-1/4'
'x+1/2, z, y'
'-y+1/2, -z, -x+1/2'
'z, y, x+1/2'
'z+1/2, -y-3/4, -x+1/4'
'-z+1/4, -y-3/4, x+1/2'
'-z-1/4, y, -x+1/4'
'-y+1/2, z-3/4, x-1/4'
'y+1/4, z-1/4, -x+1/2'
'y+1/4, -z-1/2, x-1/4'
'-x+1/2, -y+1/2, -z'
'y+1/2, -x+1/4, -z-3/4'
'x-1/4, y+1/4, -z-1/2'
'-y-1/4, x+1/2, -z-1/4'
'-x+1/2, y+1/4, z-1/4'
'-y-1/4, -x+1/4, z'
'x-1/4, -y+1/2, z-3/4'
'y+1/2, x+1/2, z-1/2'
'-z+1/2, -x+1/2, -y'
'x+1/2, -z+1/4, -y-3/4'
'z-1/4, x+1/4, -y-1/2'
'-x-1/4, z+1/2, -y-1/4'
'-z+1/2, x+1/4, y-1/4'
'-x-1/4, -z+1/4, y'
'z-1/4, -x+1/2, y-3/4'
'x+1/2, z+1/2, y-1/2'
'-y+1/2, -z+1/2, -x'
'z, y+1/2, x'
'z+1/2, -y-1/4, -x-1/4'
'-z+1/4, -y-1/4, x'
'-z-1/4, y+1/2, -x-1/4'
'-y+1/2, z-1/4, x-3/4'
'y+1/4, z+1/4, -x'
'y+1/4, -z, x-3/4'
loop_
_atom_site_label
_atom_site_type_symbol
_atom_site_fract_x
_atom_site_fract_y
_atom_site_fract_z
_atom_site_U_iso_or_equiv
_atom_site_adp_type
_atom_site_occupancy
_atom_site_site_symmetry_order
_atom_site_calc_flag
_atom_site_refinement_flags_posn
_atom_site_refinement_flags_adp
_atom_site_refinement_flags_occupancy
Lu1 Lu 0.0000 0.2500 0.0000 0.0317(5) Uani 1 6 d S T P
Cd1 Cd 0.0000 0.5000 0.0000 0.0264(6) Uani 1 6 d S T P
O2 O 0.0141(5) 0.4166(5) -0.0244(5) 0.074(3) Uani 1 1 d . . .
O3 O 0.0093(5) 0.3335(5) -0.0302(5) 0.070(3) Uani 1 1 d . . .
O1 O 0.0000 0.3155(4) 0.0655(4) 0.066(4) Uani 1 2 d S T P
C2 C 0.0082(7) 0.3731(5) -0.0014(7) 0.057(6) Uani 1 1 d . . .
C1 C 0.0030(8) 0.3672(7) 0.0541(7) 0.078(5) Uani 1 1 d . . .
H1A H 0.0324 0.3823 0.0713 0.094 Uiso 1 1 calc R U .
H1B H -0.0277 0.3846 0.0660 0.094 Uiso 1 1 calc R U .
Cd2 Cd 0.1250 0.1250 0.1250 0.0863(17) Uani 1 12 d S T P
O4 O 0.0389(9) 0.1250 0.1250 0.105(7) Uani 1 2 d DS T P
O5 O 0.920(2) 0.1250 0.1250 0.26(2) Uani 1 2 d S T P
O6 O 0.082(13) 0.332(13) 0.0000 2.0(5) Uani 1 2 d S T P
H2 H 0.026(11) 0.149(9) 0.144(10) 0.16(12) Uiso 1 1 d D . .
loop_
_atom_site_aniso_label
_atom_site_aniso_U_11
_atom_site_aniso_U_22
_atom_site_aniso_U_33
_atom_site_aniso_U_23
_atom_site_aniso_U_13
_atom_site_aniso_U_12
Lu1 0.0317(5) 0.0317(5) 0.0317(5) -0.0068(2) 0.0068(2) -0.0068(2)
Cd1 0.0264(6) 0.0264(6) 0.0264(6) -0.0048(3) -0.0048(3) -0.0048(3)
O2 0.071(8) 0.083(10) 0.068(8) -0.011(7) 0.007(6) -0.005(6)
O3 0.071(8) 0.075(8) 0.064(7) 0.001(6) 0.007(6) -0.008(6)
O1 0.078(11) 0.060(6) 0.060(6) -0.013(7) 0.001(6) -0.001(6)
C2 0.059(10) 0.027(9) 0.083(14) -0.007(7) -0.011(8) -0.012(6)
C1 0.100(15) 0.068(12) 0.066(12) -0.017(9) 0.001(10) -0.006(10)
Cd2 0.0863(17) 0.0863(17) 0.0863(17) 0.000 0.000 0.000
O4 0.073(14) 0.083(17) 0.16(3) -0.001(16) 0.000 0.000
O5 0.26(7) 0.18(4) 0.35(7) 0.02(4) 0.000 0.000
O6 2.0(8) 2.0(8) 2.0(17) -0.4(9) 0.4(9) -0.4(10)
loop_
_atom_type_symbol
_atom_type_description
_atom_type_scat_dispersion_real
_atom_type_scat_dispersion_imag
_atom_type_scat_source
C C 0.0033 0.0016 'International Tables Vol C Tables 4.2.6.8 and 6.1.1.4'
H H 0.0000 0.0000 'International Tables Vol C Tables 4.2.6.8 and 6.1.1.4'
Cd Cd -0.8075 1.2024 'International Tables Vol C Tables 4.2.6.8 and 6.1.1.4'
Lu Lu -0.4720 5.8584 'International Tables Vol C Tables 4.2.6.8 and 6.1.1.4'
O O 0.0106 0.0060 'International Tables Vol C Tables 4.2.6.8 and 6.1.1.4'
loop_
_geom_angle_atom_site_label_1
_geom_angle_atom_site_label_2
_geom_angle_atom_site_label_3
_geom_angle
_geom_angle_site_symmetry_1
_geom_angle_site_symmetry_3
O3 Lu1 O3 79.4(5) . 13
O3 Lu1 O3 85.4(6) . 6_455
O3 Lu1 O3 130.0(6) 13 6_455
O3 Lu1 O3 143.6(6) . 90_455
O3 Lu1 O3 85.4(6) 13 90_455
O3 Lu1 O3 79.4(5) 6_455 90_455
O3 Lu1 O3 79.4(5) . 23
O3 Lu1 O3 79.4(5) 13 23
O3 Lu1 O3 143.6(6) 6_455 23
O3 Lu1 O3 130.0(6) 90_455 23
O3 Lu1 O3 130.0(6) . 10_554
O3 Lu1 O3 143.6(6) 13 10_554
O3 Lu1 O3 79.4(5) 6_455 10_554
O3 Lu1 O3 79.4(5) 90_455 10_554
O3 Lu1 O3 85.4(6) 23 10_554
O3 Lu1 O1 137.3(3) . 90_455
O3 Lu1 O1 71.8(3) 13 90_455
O3 Lu1 O1 137.3(3) 6_455 90_455
O3 Lu1 O1 65.0(3) 90_455 90_455
O3 Lu1 O1 65.0(3) 23 90_455
O3 Lu1 O1 71.8(3) 10_554 90_455
O3 Lu1 O1 71.8(3) . 6_455
O3 Lu1 O1 65.0(3) 13 6_455
O3 Lu1 O1 65.0(3) 6_455 6_455
O3 Lu1 O1 71.8(3) 90_455 6_455
O3 Lu1 O1 137.3(3) 23 6_455
O3 Lu1 O1 137.3(3) 10_554 6_455
O1 Lu1 O1 120.0 90_455 6_455
O3 Lu1 O1 65.0(3) . .
O3 Lu1 O1 137.3(3) 13 .
O3 Lu1 O1 71.8(3) 6_455 .
O3 Lu1 O1 137.3(3) 90_455 .
O3 Lu1 O1 71.8(3) 23 .
O3 Lu1 O1 65.0(3) 10_554 .
O1 Lu1 O1 120.0 90_455 .
O1 Lu1 O1 120.0 6_455 .
O2 Cd1 O2 180.0(6) 129 33_554
O2 Cd1 O2 86.2(4) 129 185
O2 Cd1 O2 93.8(4) 33_554 185
O2 Cd1 O2 86.2(4) 129 97_565
O2 Cd1 O2 93.8(4) 33_554 97_565
O2 Cd1 O2 86.2(4) 185 97_565
O2 Cd1 O2 93.8(4) 129 89_455
O2 Cd1 O2 86.2(4) 33_554 89_455
O2 Cd1 O2 180.0(2) 185 89_455
O2 Cd1 O2 93.8(4) 97_565 89_455
O2 Cd1 O2 93.8(4) 129 .
O2 Cd1 O2 86.2(4) 33_554 .
O2 Cd1 O2 93.8(4) 185 .
O2 Cd1 O2 180.0 97_565 .
O2 Cd1 O2 86.2(4) 89_455 .
C2 O2 Cd1 133.1(11) . .
C2 O3 Lu1 123.7(11) . .
C1 O1 C1 114.9(19) . 10_554
C1 O1 Lu1 122.6(9) . .
C1 O1 Lu1 122.6(9) 10_554 .
O3 C2 O2 115.6(16) . .
O3 C2 C1 119.9(14) . .
O2 C2 C1 124.4(14) . .
O1 C1 C2 108.7(13) . .
O1 C1 H1A 109.9 . .
C2 C1 H1A 109.9 . .
O1 C1 H1B 109.9 . .
C2 C1 H1B 109.9 . .
H1A C1 H1B 108.3 . .
O4 Cd2 O4 90.000(1) . 46_544
O4 Cd2 O4 180.0 . 51_454
O4 Cd2 O4 90.000(1) 46_544 51_454
O4 Cd2 O4 90.000(1) . 9
O4 Cd2 O4 90.0 46_544 9
O4 Cd2 O4 90.0 51_454 9
O4 Cd2 O4 90.000(1) . 59_454
O4 Cd2 O4 90.000(1) 46_544 59_454
O4 Cd2 O4 90.000(1) 51_454 59_454
O4 Cd2 O4 180.0 9 59_454
O4 Cd2 O4 90.000(1) . 17
O4 Cd2 O4 180.0 46_544 17
O4 Cd2 O4 90.0 51_454 17
O4 Cd2 O4 90.0 9 17
O4 Cd2 O4 90.0 59_454 17
H2 O4 Cd2 112(10) . .
H2 O4 H2 0(10) . .
Cd2 O4 H2 112(10) . .
loop_
_geom_bond_atom_site_label_1
_geom_bond_atom_site_label_2
_geom_bond_distance
_geom_bond_site_symmetry_2
Lu1 O3 2.324(13) .
Lu1 O3 2.324(13) 13
Lu1 O3 2.324(13) 6_455
Lu1 O3 2.324(13) 90_455
Lu1 O3 2.324(13) 23
Lu1 O3 2.324(13) 10_554
Lu1 O1 2.410(15) 90_455
Lu1 O1 2.410(15) 6_455
Lu1 O1 2.410(15) .
Cd1 O2 2.292(14) 129
Cd1 O2 2.292(14) 33_554
Cd1 O2 2.292(14) 185
Cd1 O2 2.292(14) 97_565
Cd1 O2 2.292(14) 89_455
Cd1 O2 2.292(14) .
O2 C2 1.288(18) .
O3 C2 1.275(18) .
O1 C1 1.38(2) .
O1 C1 1.38(2) 10_554
C2 C1 1.46(2) .
C1 H1A 0.9700 .
C1 H1B 0.9700 .
Cd2 O4 2.24(2) .
Cd2 O4 2.24(2) 46_544
Cd2 O4 2.24(2) 51_454
Cd2 O4 2.24(2) 9
Cd2 O4 2.24(2) 59_454
Cd2 O4 2.24(2) 17
O4 H2 0.85(2) .
O4 H2 0.85(2) .
loop_
_geom_torsion_atom_site_label_1
_geom_torsion_atom_site_label_2
_geom_torsion_atom_site_label_3
_geom_torsion_atom_site_label_4
_geom_torsion
_geom_torsion_site_symmetry_1
Lu1 O3 C2 O2 179.8(10) .
Lu1 O3 C2 C1 3(2) .
Cd1 O2 C2 O3 165.3(11) .
Cd1 O2 C2 C1 -18(3) .
C1 O1 C1 C2 177.6(19) 10_554
Lu1 O1 C1 C2 -2.4(19) .
O3 C2 C1 O1 0(2) .
O2 C2 C1 O1 -177.0(15) .
