#------------------------------------------------------------------------------
#$Date: 2019-11-25 02:38:54 +0200 (Mon, 25 Nov 2019) $
#$Revision: 239977 $
#$URL: file:///home/coder/svn-repositories/cod/cif/4/35/06/4350644.cif $
#------------------------------------------------------------------------------
#
# This file is available in the Crystallography Open Database (COD),
# http://www.crystallography.net/
#
# All data on this site have been placed in the public domain by the
# contributors.
#
data_4350644
loop_
_publ_author_name
'Huang, Xiao-feng'
'Ma, Jing-xin'
'Liu, Wei-sheng'
_publ_section_title
;
 Lanthanide metalloligand strategy toward d-f heterometallic metal-organic
 frameworks: magnetism and symmetric-dependent luminescent properties.
;
_journal_issue                   12
_journal_name_full               'Inorganic chemistry'
_journal_page_first              5922
_journal_page_last               5930
_journal_paper_doi               10.1021/ic403080n
_journal_volume                  53
_journal_year                    2014
_chemical_formula_sum            'C24 H30 Co3 Gd2 O42'
_chemical_formula_weight         1481.77
_space_group_crystal_system      cubic
_space_group_IT_number           228
_space_group_name_Hall           '-F 4ud 2vw 3'
_space_group_name_H-M_alt        'F d -3 c :2'
_atom_sites_solution_hydrogens   geom
_audit_creation_method           SHELXL-2013
_cell_angle_alpha                90
_cell_angle_beta                 90
_cell_angle_gamma                90
_cell_formula_units_Z            16
_cell_length_a                   25.76190(10)
_cell_length_b                   25.76190(10)
_cell_length_c                   25.76190(10)
_cell_measurement_temperature    296(2)
_cell_volume                     17097.54(11)
_computing_structure_refinement  'SHELXL-2013 (Sheldrick, 2013)'
_diffrn_ambient_temperature      296(2)
_diffrn_measured_fraction_theta_full 0.925
_diffrn_measured_fraction_theta_max 0.926
_diffrn_radiation_type           MoK\a
_diffrn_radiation_wavelength     0.71073
_diffrn_reflns_av_R_equivalents  0.0442
_diffrn_reflns_av_unetI/netI     0.0155
_diffrn_reflns_Laue_measured_fraction_full 0.925
_diffrn_reflns_Laue_measured_fraction_max 0.926
_diffrn_reflns_limit_h_max       35
_diffrn_reflns_limit_h_min       -30
_diffrn_reflns_limit_k_max       31
_diffrn_reflns_limit_k_min       -32
_diffrn_reflns_limit_l_max       32
_diffrn_reflns_limit_l_min       -36
_diffrn_reflns_number            23448
_diffrn_reflns_point_group_measured_fraction_full 0.925
_diffrn_reflns_point_group_measured_fraction_max 0.926
_diffrn_reflns_theta_full        25.242
_diffrn_reflns_theta_max         30.515
_diffrn_reflns_theta_min         2.739
_exptl_absorpt_coefficient_mu    4.332
_exptl_absorpt_correction_T_max  0.570
_exptl_absorpt_correction_T_min  0.201
_exptl_absorpt_correction_type   multi-scan
_exptl_absorpt_process_details   SADABS
_exptl_crystal_density_diffrn    2.303
_exptl_crystal_F_000             11504
_exptl_crystal_size_max          0.270
_exptl_crystal_size_mid          0.230
_exptl_crystal_size_min          0.210
_refine_diff_density_max         1.395
_refine_diff_density_min         -0.759
_refine_diff_density_rms         0.108
_refine_ls_extinction_method     none
_refine_ls_goodness_of_fit_ref   1.040
_refine_ls_hydrogen_treatment    constr
_refine_ls_matrix_type           full
_refine_ls_number_parameters     58
_refine_ls_number_reflns         1017
_refine_ls_number_restraints     0
_refine_ls_restrained_S_all      1.040
_refine_ls_R_factor_all          0.0728
_refine_ls_R_factor_gt           0.0359
_refine_ls_shift/su_max          0.000
_refine_ls_shift/su_mean         0.000
_refine_ls_structure_factor_coef Fsqd
_refine_ls_weighting_details
'w=1/[\s^2^(Fo^2^)+(0.0492P)^2^+215.3269P] where P=(Fo^2^+2Fc^2^)/3'
_refine_ls_weighting_scheme      calc
_refine_ls_wR_factor_gt          0.0996
_refine_ls_wR_factor_ref         0.1217
_reflns_Friedel_coverage         0.000
_reflns_number_gt                565
_reflns_number_total             1017
_reflns_threshold_expression     'I > 2\s(I)'
_cod_data_source_file            ic403080n_si_002.cif
_cod_data_source_block           1a
_cod_original_cell_volume        17097.5(2)
_cod_original_sg_symbol_Hall     '-F 4cvw 2vw 3'
_cod_original_sg_symbol_H-M      'F d -3 c'
_cod_database_code               4350644
_shelx_space_group_comment
;
The symmetry employed for this shelxl refinement is uniquely defined
by the following loop, which should always be used as a source of
symmetry information in preference to the above space-group names.
They are only intended as comments.
;
_shelx_estimated_absorpt_t_min   0.074
_shelx_estimated_absorpt_t_max   0.101
_shelxl_version_number           2013-4
_shelx_res_file
;
TITL GdCo1 in Fd-3c
CELL 0.71073  25.7619  25.7619  25.7619  90.000  90.000  90.000
ZERR  168.00   0.0001   0.0001   0.0001   0.000   0.000   0.000
LATT 4
SYMM 0.25-X, 0.75-Y, 0.5+Z
SYMM 0.75-X, 0.5+Y, 0.25-Z
SYMM 0.5+X, 0.25-Y, 0.75-Z
SYMM Z, X, Y
SYMM 0.5+Z, 0.25-X, 0.75-Y
SYMM 0.25-Z, 0.75-X, 0.5+Y
SYMM 0.75-Z, 0.5+X, 0.25-Y
SYMM Y, Z, X
SYMM 0.75-Y, 0.5+Z, 0.25-X
SYMM 0.5+Y, 0.25-Z, 0.75-X
SYMM 0.25-Y, 0.75-Z, 0.5+X
SYMM 0.75+Y, 0.25+X, -Z
SYMM 0.5-Y, 0.5-X, 0.5-Z
SYMM 0.25+Y, -X, 0.75+Z
SYMM -Y, 0.75+X, 0.25+Z
SYMM 0.75+X, 0.25+Z, -Y
SYMM -X, 0.75+Z, 0.25+Y
SYMM 0.5-X, 0.5-Z, 0.5-Y
SYMM 0.25+X, -Z, 0.75+Y
SYMM 0.75+Z, 0.25+Y, -X
SYMM 0.25+Z, -Y, 0.75+X
SYMM -Z, 0.75+Y, 0.25+X
SYMM 0.5-Z, 0.5-Y, 0.5-X
SFAC C  H  O  Co Gd
UNIT 384  480  672  168  168
OMIT     4   4   4
OMIT     4   6   6
OMIT     0   2   2
OMIT    10  14  24
OMIT     4  14  14
OMIT     2   2   4
OMIT     0  14  14
OMIT     6  16  16
OMIT     6   6  20
OMIT    14  16  18
OMIT     2   2   6
OMIT     6  10  24
OMIT     2   2  14
OMIT     6  18  24
OMIT     6   8  12
OMIT     2  10  10
OMIT     2   4  12
OMIT     4  10  14
OMIT     8  10  12
OMIT     1  15  17
OMIT     4  20  24
OMIT    14  14  20
OMIT    15  17  19
OMIT     2   6   6
OMIT     4  18  20
OMIT     0   0   4
OMIT     0  14  18
OMIT     6  20  20
OMIT     2   6  14
OMIT    12  18  22
OMIT    10  10  14
OMIT     7  11  25
OMIT     2  10  14
OMIT     4   4  20
OMIT     7  15  19
OMIT     1  13  19
OMIT     2   2  10
OMIT     4  16  22
OMIT     5   9  15
OMIT     2   8  22
OMIT     2  16  16
OMIT     2   6  10
OMIT     7  15  25
OMIT    10  10  10
OMIT     5  11  17
OMIT    10  12  22
OMIT     1  11  13
OMIT     7  15  17
OMIT     0   2   6
OMIT     7  17  23
L.S. 20
ACTA
BOND $H
FMAP 2
PLAN 20
SIZE 0.27 0.23 0.21
CONF
TEMP 23.000
WGHT    0.049200  215.326904
FVAR       0.00735
MOLE 1
GD1   5    0.500000    0.250000    0.500000    10.16667    0.02847    0.02847 =
         0.02847   -0.00986    0.00986   -0.00986
CO1   4    0.500000    0.250000    0.250000    10.16667    0.02745    0.02745 =
         0.02745    0.00343   -0.00343   -0.00343
MOLE 2
CO2   4    0.625000    0.125000    0.125000    10.08333    0.05345    0.05345 =
         0.05345    0.00000    0.00000    0.00000
MOLE 1
C1    1    0.497862    0.242073    0.372062    11.00000    0.04337    0.02868 =
         0.03528   -0.00697    0.00862   -0.00420
C2    1    0.555879    0.247291    0.379380    11.00000    0.04301    0.07123 =
         0.03679   -0.00950    0.01263   -0.00903
AFIX  23
H4A   2    0.573362    0.217662    0.364077    11.00000   -1.20000
H4B   2    0.568147    0.278419    0.362110    11.00000   -1.20000
AFIX   0
O1    3    0.567352    0.250000    0.432648    10.50000    0.03236    0.06028 =
         0.03236   -0.01125    0.00609   -0.01125
O2    3    0.470128    0.241528    0.412429    11.00000    0.03937    0.06120 =
         0.03508   -0.01414    0.00778   -0.00969
O3    3    0.479190    0.236714    0.327671    11.00000    0.04563    0.04560 =
         0.03802   -0.00561    0.00494   -0.00473
O4    3    0.625000    0.206631    0.125000    10.50000    0.04869    0.06387 =
         0.09491    0.00000   -0.00567    0.00000
AFIX 147
H4    2    0.595611    0.217241    0.131072    10.50000   -1.50000
AFIX   0
O5    3    0.625000    0.330235    0.125000    10.50000    0.19893    0.24958 =
         0.25762    0.00000    0.02335    0.00000
HKLF 4

REM  GdCo1 in Fd-3c
REM R1 =  0.0359 for     565 Fo > 4sig(Fo)  and  0.0728 for all    1017 data
REM     58 parameters refined using      0 restraints

END

WGHT      0.0478    205.2521

REM Highest difference peak  1.395,  deepest hole -0.759,  1-sigma level  0.108
Q1    1   0.5183  0.2317  0.5183  10.33333  0.05    1.39
Q2    1   0.5149  0.2351  0.2351  10.33333  0.05    0.66
Q3    1   0.4842  0.2493  0.4350  11.00000  0.05    0.46
Q4    1   0.5043  0.2168  0.3520  11.00000  0.05    0.29
Q5    1   0.4978  0.2321  0.4074  11.00000  0.05    0.28
Q6    1   0.4807  0.2327  0.3914  11.00000  0.05    0.28
Q7    1   0.6231  0.1812  0.3734  11.00000  0.05    0.27
Q8    1   0.5916  0.1956  0.3773  11.00000  0.05    0.27
Q9    1   0.5594  0.1904  0.3831  11.00000  0.05    0.27
Q10   1   0.4780  0.2746  0.3761  11.00000  0.05    0.26
Q11   1   0.5485  0.1598  0.3788  11.00000  0.05    0.26
Q12   1   0.4275  0.2317  0.3375  11.00000  0.05    0.26
Q13   1   0.5793  0.1891  0.3191  11.00000  0.05    0.26
Q14   1   0.4327  0.2507  0.4275  11.00000  0.05    0.25
Q15   1   0.5913  0.2990  0.1549  11.00000  0.05    0.25
Q16   1   0.4820  0.2627  0.3262  11.00000  0.05    0.25
Q17   1   0.5507  0.1885  0.0935  11.00000  0.05    0.24
Q18   1   0.4778  0.2367  0.3474  11.00000  0.05    0.24
Q19   1   0.4628  0.2504  0.4140  11.00000  0.05    0.23
Q20   1   0.4440  0.1983  0.4348  11.00000  0.05    0.23
;
_shelx_res_checksum              53934
_shelx_hkl_file
;
   4   0   0  613.36   10.02
   6   0   0    0.14    0.08
   6   0   0    0.14    0.05
   8   0   0 1000.00   16.53
   8   0   0  995.88   16.05
 -10   0   0    0.01    0.04
  10   0   0   -0.01    0.07
  10   0   0    0.01    0.05
  10   0   0   -0.04    0.05
 -12   0   0  284.45    4.90
  12   0   0  298.82    5.08
 -14   0   0   -0.01    0.06
  14   0   0    0.02    0.11
  14   0   0    0.01    0.07
 -16   0   0  357.57    6.18
  16   0   0  371.76    6.40
  16   0   0  370.17    6.67
 -18   0   0   -0.01    0.08
  18   0   0   -0.03    0.13
 -20   0   0   33.09    0.95
  20   0   0   33.78    1.19
  22   0   0   -0.08    0.19
  24   0   0   91.25    2.42
  26   0   0    0.21    0.25
  28   0   0   20.06    1.09
  30   0   0    0.28    0.28
  32   0   0   27.39    1.38
  34   0   0    0.35    0.38
  34  -2   0   -0.37    0.30
  32  -2   0    0.19    0.34
  30  -2   0    0.33    0.31
  28  -2   0    0.24    0.29
  26  -2   0   -0.03    0.23
  24  -2   0   -0.21    0.22
  22  -2   0    3.48    0.43
  20  -2   0   -0.04    0.16
  18  -2   0    0.22    0.16
 -18   2   0    0.23    0.11
  16  -2   0    0.15    0.10
  16  -2   0   -0.37    0.08
  16  -2   0   -0.13    0.12
  14  -2   0    6.41    0.31
  14  -2   0    5.80    0.40
  12  -2   0   -0.10    0.09
  12  -2   0    0.06    0.07
  10  -2   0   24.36    0.74
  10  -2   0   24.29    0.60
   8  -2   0    0.13    0.05
   8  -2   0    0.05    0.08
   6  -2   0   17.93    0.43
   6  -2   0   17.88    0.51
   2  -2   0   16.20    0.34
   0  -2   0    0.74    0.05
  -2  -2   0   15.62    0.34
  -4  -2   0    0.24    0.05
  -6  -2   0   17.76    0.44
   6   2   0   18.33    0.50
   6   2   0   16.93    0.43
  -8  -2   0   -0.03    0.05
   8   2   0    0.08    0.06
   8   2   0   -0.09    0.07
 -10  -2   0   24.14    0.62
  10   2   0   24.28    0.72
  10   2   0   24.00    0.62
 -12  -2   0    0.17    0.09
  12   2   0   -0.03    0.09
  12   2   0    0.05    0.08
 -14  -2   0    5.72    0.31
  14   2   0    6.21    0.32
  14   2   0    6.12    0.40
 -16  -2   0   -0.38    0.09
  16   2   0    0.03    0.14
 -18  -2   0    0.23    0.12
  18   2   0    0.26    0.16
  18   2   0    0.29    0.13
 -20  -2   0   -0.15    0.11
  20   2   0   -0.02    0.14
  22   2   0    5.52    0.52
  24   2   0    0.31    0.27
  26   2   0    0.22    0.25
  28   2   0   -0.09    0.24
  30   2   0    0.27    0.28
  32   2   0   -0.04    0.29
  34   2   0    0.24    0.35
  34  -4   0   -0.14    0.32
  32  -4   0   15.06    1.08
  30  -4   0   -0.32    0.26
  28  -4   0   27.99    1.33
  26  -4   0    0.02    0.22
  24  -4   0   48.55    1.65
  22  -4   0   -0.05    0.17
  20  -4   0   58.96    1.72
  18  -4   0    0.03    0.15
  18  -4   0    0.02    0.09
  16  -4   0  105.57    2.43
  16  -4   0  112.90    2.15
  14  -4   0   -0.01    0.10
  14  -4   0   -0.01    0.07
  12  -4   0  357.63    6.41
  12  -4   0  364.89    6.02
  10  -4   0   -0.04    0.08
  10  -4   0    0.04    0.05
   8  -4   0  201.76    3.64
   8  -4   0  201.22    3.41
   6  -4   0    0.03    0.05
   6  -4   0    0.08    0.07
   4  -4   0  339.82    5.43
   4  -4   0  326.54    5.62
   2  -4   0    0.19    0.05
   0  -4   0  642.25   10.43
  -2  -4   0    0.33    0.06
  -4  -4   0  326.97    5.41
   4   4   0  332.29    5.62
  -6  -4   0    0.16    0.07
   6   4   0    0.07    0.06
   6   4   0    0.10    0.07
  -8  -4   0  208.81    3.53
   8   4   0  205.97    3.65
   8   4   0  202.01    3.49
   8   4   0  202.09    3.63
 -10  -4   0    0.11    0.08
  10   4   0    0.06    0.08
  10   4   0    0.09    0.07
  10   4   0   -0.04    0.06
 -12  -4   0  351.40    5.99
  12   4   0  356.86    6.19
  12   4   0  359.66    6.28
 -14  -4   0   -0.10    0.07
  14   4   0   -0.15    0.08
  14   4   0    0.01    0.07
 -16  -4   0  103.10    2.12
  16   4   0  108.09    2.35
  16   4   0  105.73    2.15
 -18  -4   0    0.06    0.11
  18   4   0   -0.13    0.09
  18   4   0   -0.12    0.13
 -20  -4   0   57.80    1.43
  20   4   0   57.05    1.63
  22   4   0    0.12    0.19
  24   4   0   45.19    1.53
  26   4   0   -0.08    0.22
  28   4   0   26.38    1.24
  30   4   0   -0.30    0.24
  32   4   0   15.18    1.04
  34   4   0   -0.26    0.31
  34  -6   0    0.16    0.32
  32  -6   0    0.34    0.34
  30  -6   0    0.44    0.32
  28  -6   0    0.26    0.27
  26  -6   0   -0.04    0.22
  24  -6   0    0.22    0.23
  22  -6   0    2.09    0.36
  20  -6   0    0.03    0.17
  18  -6   0    2.11    0.22
  18  -6   0    1.87    0.30
  16  -6   0    0.03    0.09
  16  -6   0   -0.15    0.11
  14  -6   0    7.62    0.36
  14  -6   0    7.87    0.48
  12  -6   0    0.04    0.11
  12  -6   0    0.09    0.08
  10  -6   0   28.99    0.85
  10  -6   0   29.92    0.72
   8  -6   0   -0.05    0.06
   8  -6   0    0.04    0.05
   6  -6   0    5.78    0.25
   6  -6   0    6.05    0.29
   4  -6   0    0.16    0.07
   4  -6   0    0.10    0.06
   2  -6   0   17.29    0.45
   2  -6   0   18.35    0.48
   0  -6   0    0.35    0.08
  -2  -6   0   16.60    0.47
   2   6   0   15.81    0.48
  -4  -6   0    0.08    0.07
   4   6   0    0.16    0.08
  -6  -6   0    5.99    0.28
   6   6   0    5.71    0.26
  -8  -6   0   -0.01    0.06
   8   6   0   -0.04    0.06
   8   6   0    0.04    0.07
 -10  -6   0   31.71    0.82
  10   6   0   29.64    0.83
  10   6   0   30.79    0.82
  10   6   0   32.30    0.81
 -12  -6   0    0.08    0.09
  12   6   0    0.01    0.09
  12   6   0   -0.04    0.09
  12   6   0    0.10    0.10
 -14  -6   0    7.62    0.39
  14   6   0    7.21    0.38
  14   6   0    7.61    0.43
 -16  -6   0    0.04    0.10
  16   6   0    0.00    0.12
  16   6   0   -0.07    0.10
 -18  -6   0    1.73    0.23
  18   6   0    1.94    0.29
  18   6   0    1.38    0.21
 -20  -6   0   -0.01    0.12
  20   6   0    0.15    0.16
  22   6   0    1.87    0.34
  24   6   0    0.06    0.20
  26   6   0   -0.21    0.20
  28   6   0   -0.03    0.25
  30   6   0    0.50    0.31
  32   6   0   -0.31    0.29
  34   6   0    0.41    0.37
  34  -8   0    0.19    0.34
  32  -8   0   17.48    1.15
  30  -8   0   -0.15    0.26
  28  -8   0   18.26    1.07
  26  -8   0    0.16    0.24
  24  -8   0   76.17    2.23
  22  -8   0   -0.02    0.19
  20  -8   0   50.92    1.60
  18  -8   0    0.09    0.10
  18  -8   0    0.06    0.16
  16  -8   0  165.18    3.11
  16  -8   0  168.58    3.48
  14  -8   0    0.02    0.07
  14  -8   0    0.19    0.14
  12  -8   0  134.26    2.76
  12  -8   0  134.67    2.49
  10  -8   0    0.02    0.06
  10  -8   0    0.06    0.10
   8  -8   0  267.86    4.58
   8  -8   0  273.70    4.83
   6  -8   0    0.07    0.06
   6  -8   0    0.00    0.06
   4  -8   0  210.82    3.65
   4  -8   0  211.41    3.73
   2  -8   0   -0.06    0.05
   2  -8   0    0.34    0.10
   0  -8   0  986.79   15.75
   0  -8   0  974.87   16.15
  -2  -8   0    0.01    0.07
  -4  -8   0  199.10    3.50
   4   8   0  199.16    3.64
  -6  -8   0    0.04    0.07
   6   8   0    0.11    0.08
  -8  -8   0  267.09    4.69
   8   8   0  273.26    4.76
   8   8   0  274.58    4.88
 -10  -8   0    0.11    0.09
  10   8   0    0.06    0.09
  10   8   0    0.07    0.08
 -12  -8   0  138.18    2.65
  12   8   0  135.69    2.70
  12   8   0  134.67    2.60
  12   8   0  138.48    2.71
 -14  -8   0    0.14    0.10
  14   8   0   -0.06    0.10
  14   8   0    0.07    0.11
  14   8   0    0.09    0.11
 -16  -8   0  157.12    3.11
  16   8   0  162.48    3.18
  16   8   0  160.15    3.25
  16   8   0  166.08    3.09
 -18  -8   0    0.18    0.14
  18   8   0   -0.03    0.12
  18   8   0   -0.03    0.12
 -20  -8   0   52.22    1.39
  20   8   0   49.13    1.49
 -22  -8   0   -0.13    0.14
  22   8   0   -0.19    0.15
  24   8   0   64.74    1.91
  26   8   0   -0.09    0.21
  28   8   0   16.85    0.97
  30   8   0   -0.03    0.29
  32   8   0   18.90    1.15
  34   8   0    0.19    0.36
  32 -10   0   -0.05    0.29
  30 -10   0    0.04    0.31
  28 -10   0    0.00    0.26
  26 -10   0    2.81    0.49
  24 -10   0    0.03    0.23
  22 -10   0    0.08    0.19
  20 -10   0    0.05    0.21
  18 -10   0    2.14    0.34
  18 -10   0    2.04    0.25
  16 -10   0   -0.04    0.15
  16 -10   0   -0.03    0.09
  14 -10   0    8.37    0.52
  14 -10   0    8.32    0.40
  12 -10   0    0.12    0.12
  12 -10   0   -0.02    0.08
  10 -10   0    0.58    0.12
  10 -10   0    0.62    0.16
   8 -10   0   -0.01    0.08
   8 -10   0    0.11    0.08
   6 -10   0   31.98    0.82
   6 -10   0   31.21    0.84
   4 -10   0   -0.01    0.06
   4 -10   0    0.06    0.07
   2 -10   0   23.64    0.69
   2 -10   0   23.64    0.62
   0 -10   0   -0.03    0.07
   0 -10   0    0.08    0.06
  -4 -10   0    0.07    0.08
  -6 -10   0   30.96    0.86
   6  10   0   29.99    0.88
  -8 -10   0    0.09    0.10
   8  10   0    0.22    0.11
 -10 -10   0    0.52    0.15
  10  10   0    0.55    0.13
  10  10   0    0.46    0.14
 -12 -10   0    0.12    0.11
  12  10   0    0.17    0.11
  12  10   0    0.14    0.10
 -14 -10   0    9.38    0.50
  14  10   0    8.93    0.47
  14  10   0    8.42    0.47
  14  10   0    8.51    0.47
 -16 -10   0   -0.06    0.12
  16  10   0    0.20    0.14
  16  10   0    0.08    0.13
  16  10   0    0.20    0.15
 -18 -10   0    1.88    0.28
  18  10   0    2.41    0.29
  18  10   0    1.89    0.28
  18  10   0    2.46    0.31
 -20 -10   0    0.23    0.17
  20  10   0   -0.03    0.13
 -22 -10   0    0.26    0.19
  22  10   0    0.92    0.27
  24  10   0    0.12    0.24
  26  10   0    1.42    0.36
  28  10   0    0.31    0.28
  30  10   0    0.28    0.30
  32  10   0   -0.13    0.30
  34  10   0    0.69    0.44
  32 -12   0   13.42    1.04
  30 -12   0    0.27    0.34
  28 -12   0   27.27    1.38
  26 -12   0   -0.30    0.24
  24 -12   0   23.55    1.16
  22 -12   0    0.05    0.21
  20 -12   0   45.74    1.53
  18 -12   0    0.09    0.18
  16 -12   0   65.49    1.78
  16 -12   0   63.60    1.51
  14 -12   0    0.09    0.13
  14 -12   0    0.00    0.09
  12 -12   0  171.82    3.41
  12 -12   0  168.98    3.17
  10 -12   0    0.06    0.09
  10 -12   0    0.21    0.12
   8 -12   0  138.20    2.76
   8 -12   0  140.93    2.67
   6 -12   0    0.08    0.10
   6 -12   0    0.07    0.09
   4 -12   0  353.53    6.17
   4 -12   0  358.64    6.09
   2 -12   0    0.05    0.11
   2 -12   0    0.03    0.08
   0 -12   0  300.36    5.16
   0 -12   0  291.01    5.12
  -2 -12   0    0.23    0.12
  -4 -12   0  364.20    6.27
  -6 -12   0    0.04    0.10
  -8 -12   0  136.93    2.74
   8  12   0  141.42    2.86
 -10 -12   0    0.03    0.10
  10  12   0   -0.02    0.10
 -12 -12   0  169.01    3.30
  12  12   0  167.31    3.38
 -14 -12   0    0.23    0.16
  14  12   0    0.00    0.12
  14  12   0    0.19    0.15
 -16 -12   0   62.00    1.63
  16  12   0   60.98    1.59
  16  12   0   63.30    1.58
  16  12   0   62.09    1.63
 -18 -12   0    0.02    0.17
  18  12   0   -0.06    0.12
  18  12   0   -0.07    0.16
  18  12   0    0.02    0.14
 -20 -12   0   40.56    1.30
  20  12   0   43.61    1.37
 -22 -12   0   -0.03    0.16
  22  12   0    0.03    0.20
  24  12   0   21.37    1.01
  26  12   0   -0.31    0.21
  28  12   0   24.65    1.21
  30  12   0   -0.03    0.28
  32  12   0   12.79    0.98
  34  12   0    0.07    0.37
  32 -14   0   -0.04    0.36
  30 -14   0    1.42    0.47
  28 -14   0    0.10    0.30
  26 -14   0    0.09    0.24
  24 -14   0   -0.03    0.26
  22 -14   0    1.60    0.37
  20 -14   0    0.08    0.19
  18 -14   0    0.20    0.22
  16 -14   0    0.06    0.18
  16 -14   0    0.08    0.13
  14 -14   0    3.73    0.38
  14 -14   0    3.22    0.29
  12 -14   0    0.15    0.15
  12 -14   0    0.15    0.11
  10 -14   0    8.28    0.49
  10 -14   0    9.34    0.47
   8 -14   0    0.01    0.10
   8 -14   0   -0.01    0.09
   6 -14   0    8.08    0.43
   6 -14   0    7.68    0.41
   4 -14   0   -0.04    0.07
   4 -14   0   -0.10    0.09
   2 -14   0    5.77    0.37
   2 -14   0    6.18    0.32
   0 -14   0   -0.08    0.06
   0 -14   0    0.05    0.10
  -2 -14   0    6.60    0.41
  -2 -14   0    5.70    0.31
  -4 -14   0    0.06    0.11
  -6 -14   0    7.13    0.44
  -8 -14   0   -0.11    0.11
 -10 -14   0    7.73    0.48
  10  14   0    9.38    0.54
 -12 -14   0   -0.01    0.13
  12  14   0   -0.15    0.11
 -14 -14   0    2.63    0.32
  14  14   0    2.77    0.33
 -16 -14   0    0.07    0.15
  16  14   0    0.11    0.16
  16  14   0    0.17    0.15
 -18 -14   0    0.46    0.21
  18  14   0    0.29    0.19
  18  14   0    0.45    0.19
  18  14   0    0.69    0.22
 -20 -14   0   -0.04    0.13
  20  14   0    0.11    0.16
  20  14   0    0.04    0.17
  20  14   0    0.25    0.19
 -22 -14   0    2.14    0.35
  22  14   0    1.57    0.32
  24  14   0   -0.08    0.21
  26  14   0   -0.02    0.24
  28  14   0    0.27    0.30
  30  14   0    0.97    0.40
  30 -16   0    0.37    0.37
  28 -16   0   16.86    1.11
  26 -16   0    0.10    0.27
  24 -16   0   41.62    1.64
  22 -16   0   -0.02    0.22
  20 -16   0   37.40    1.43
  18 -16   0   -0.03    0.17
  16 -16   0  130.96    2.74
  16 -16   0  131.44    3.00
  14 -16   0    0.01    0.12
  14 -16   0    0.22    0.17
  12 -16   0   61.79    1.53
  12 -16   0   62.04    1.65
  10 -16   0    0.09    0.15
  10 -16   0    0.13    0.13
   8 -16   0  167.54    3.31
   8 -16   0  167.39    3.25
   6 -16   0    0.15    0.13
   6 -16   0   -0.02    0.10
   4 -16   0  102.48    2.21
   4 -16   0  103.27    2.14
   2 -16   0    0.03    0.12
   2 -16   0   -0.36    0.10
   0 -16   0  357.28    6.29
   0 -16   0  356.39    6.22
  -2 -16   0    0.03    0.11
  -2 -16   0   -0.20    0.10
  -4 -16   0  102.55    2.27
  -6 -16   0    0.10    0.14
  -8 -16   0  164.08    3.33
 -10 -16   0    0.07    0.16
 -12 -16   0   62.78    1.70
 -14 -16   0   -0.02    0.16
 -16 -16   0  129.53    2.90
  16  16   0  131.55    2.97
 -18 -16   0    0.03    0.17
  18  16   0    0.16    0.19
  18  16   0    0.19    0.17
 -20 -16   0   37.48    1.33
  20  16   0   39.75    1.30
  20  16   0   36.01    1.31
 -22 -16   0   -0.31    0.16
  22  16   0    0.11    0.19
  30 -18   0    0.19    0.37
  28 -18   0    0.23    0.28
  26 -18   0    0.92    0.40
  24 -18   0    0.11    0.25
  22 -18   0    0.44    0.27
  20 -18   0    0.22    0.25
  18 -18   0    0.63    0.28
  16 -18   0   -0.06    0.16
  16 -18   0    0.11    0.17
  14 -18   0    0.26    0.20
  14 -18   0    0.52    0.19
  12 -18   0    0.18    0.16
  12 -18   0    0.05    0.16
  10 -18   0    1.96    0.29
  10 -18   0    2.10    0.28
   8 -18   0    0.08    0.13
   8 -18   0   -0.05    0.12
   6 -18   0    2.02    0.29
   6 -18   0    1.79    0.24
   4 -18   0   -0.14    0.10
   4 -18   0   -0.12    0.11
   2 -18   0    0.18    0.10
   2 -18   0    0.15    0.14
   0 -18   0    0.01    0.13
   0 -18   0    0.05    0.09
  -2 -18   0    0.25    0.16
  -2 -18   0    0.38    0.13
  -4 -18   0   -0.03    0.12
  -6 -18   0    2.00    0.30
  -8 -18   0   -0.23    0.13
 -10 -18   0    2.26    0.33
 -12 -18   0   -0.10    0.14
 -14 -18   0    0.32    0.21
 -16 -18   0    0.14    0.17
 -18 -18   0    0.40    0.25
  18  18   0    1.12    0.30
 -20 -18   0    0.09    0.20
  20  18   0    0.14    0.19
 -22 -18   0    0.35    0.25
  22  18   0    0.26    0.23
  30 -20   0   -0.09    0.39
  28 -20   0   16.36    1.13
  26 -20   0   -0.06    0.31
  24 -20   0   21.66    1.19
  22 -20   0   -0.20    0.22
  20 -20   0   34.19    1.41
  18 -20   0   -0.11    0.21
  16 -20   0   36.60    1.33
  14 -20   0    0.31    0.20
  14 -20   0    0.13    0.19
  12 -20   0   44.08    1.40
  12 -20   0   44.91    1.36
  10 -20   0    0.07    0.16
  10 -20   0    0.08    0.17
   8 -20   0   52.08    1.42
   8 -20   0   47.30    1.40
   6 -20   0   -0.03    0.15
   6 -20   0    0.02    0.13
   4 -20   0   56.48    1.55
   4 -20   0   57.98    1.46
   2 -20   0   -0.17    0.10
   2 -20   0    0.04    0.15
   0 -20   0   35.39    1.18
   0 -20   0   34.47    1.00
  -2 -20   0   -0.03    0.15
  -4 -20   0   60.07    1.68
  -6 -20   0    0.08    0.17
  -8 -20   0   49.28    1.52
 -10 -20   0    0.03    0.16
 -12 -20   0   42.12    1.42
 -14 -20   0   -0.05    0.17
 -16 -20   0   36.27    1.35
 -18 -20   0    0.15    0.19
  18  20   0    0.03    0.18
 -20 -20   0   30.35    1.27
  20  20   0   31.99    1.25
 -22 -20   0    0.20    0.26
  22  20   0   -0.09    0.19
  28 -22   0   -0.11    0.37
  26 -22   0    0.60    0.39
  24 -22   0   -0.17    0.27
  22 -22   0    4.49    0.58
  20 -22   0    0.17    0.26
  18 -22   0    0.40    0.28
  16 -22   0    0.04    0.21
  14 -22   0    1.28    0.32
  14 -22   0    1.56    0.31
  12 -22   0   -0.10    0.17
  12 -22   0    0.10    0.20
  10 -22   0    0.18    0.19
  10 -22   0    0.33    0.21
   8 -22   0   -0.01    0.17
   6 -22   0    2.01    0.33
   4 -22   0   -0.22    0.15
   2 -22   0    5.11    0.47
   0 -22   0    0.23    0.19
  -2 -22   0    4.34    0.45
  -4 -22   0    0.14    0.17
  -6 -22   0    2.55    0.37
  -8 -22   0    0.04    0.15
 -10 -22   0    0.28    0.22
 -12 -22   0    0.18    0.21
 -14 -22   0    1.72    0.37
 -16 -22   0    0.12    0.22
 -18 -22   0    0.35    0.25
 -20 -22   0    0.01    0.22
  20  22   0   -0.04    0.19
 -22 -22   0    4.66    0.58
  22  22   0    6.22    0.61
  24  22   0   -0.15    0.22
  14 -24   0    0.20    0.21
  12 -24   0   22.10    1.00
  10 -24   0   -0.09    0.19
   8 -24   0   67.05    1.86
   6 -24   0   -0.09    0.20
   4 -24   0   47.80    1.54
   2 -24   0   -0.10    0.17
   0 -24   0   91.60    2.33
  -2 -24   0    0.00    0.19
  -4 -24   0   44.30    1.51
  -6 -24   0    0.10    0.20
  -8 -24   0   68.68    2.02
 -10 -24   0    0.07    0.20
 -12 -24   0   23.28    1.11
 -14 -24   0    0.15    0.21
 -16 -24   0   39.16    1.53
 -18 -24   0    0.00    0.24
 -20 -24   0   21.88    1.16
  20  24   0   20.30    1.07
 -22 -24   0    0.14    0.28
  22  24   0    0.06    0.25
  24  24   0   18.78    1.08
  12 -26   0   -0.03    0.20
  10 -26   0    1.50    0.35
   8 -26   0    0.04    0.21
   6 -26   0   -0.24    0.17
   4 -26   0   -0.20    0.19
   2 -26   0    0.13    0.21
   0 -26   0   -0.06    0.19
  -2 -26   0    0.07    0.20
  -4 -26   0    0.04    0.22
  -6 -26   0    0.13    0.19
  -8 -26   0   -0.14    0.17
 -10 -26   0    1.28    0.36
 -12 -26   0   -0.10    0.22
 -14 -26   0    0.04    0.23
 -16 -26   0   -0.16    0.23
 -18 -26   0    1.12    0.39
 -20 -26   0    0.16    0.27
  20  26   0   -0.05    0.26
  12 -28   0   24.91    1.15
  10 -28   0    0.11    0.25
   8 -28   0   17.37    0.93
   6 -28   0    0.26    0.26
   4 -28   0   27.13    1.21
   2 -28   0   -0.25    0.18
   0 -28   0   18.60    1.01
  -2 -28   0    0.05    0.21
  -4 -28   0   24.03    1.16
  -6 -28   0    0.01    0.25
  -8 -28   0   17.99    1.01
 -10 -28   0    0.38    0.28
 -12 -28   0   24.52    1.25
 -14 -28   0   -0.07    0.26
 -16 -28   0   15.90    1.04
  12 -30   0    0.03    0.25
  10 -30   0   -0.02    0.26
   8 -30   0   -0.15    0.21
   6 -30   0    0.51    0.27
   4 -30   0   -0.11    0.24
   2 -30   0    0.20    0.30
   0 -30   0    0.00    0.23
  -2 -30   0    0.33    0.30
  -4 -30   0   -0.18    0.23
  -6 -30   0    0.54    0.33
  -8 -30   0    0.15    0.26
 -10 -30   0   -0.10    0.24
  10 -32   0   -0.24    0.26
   8 -32   0   16.92    1.02
   6 -32   0   -0.28    0.28
   4 -32   0   15.37    0.99
   2 -32   0    0.18    0.30
   0 -32   0   26.74    1.33
  -2 -32   0    0.61    0.35
  -7 -31   1    0.05    0.23
  -5 -31   1   -0.02    0.26
  -3 -31   1    0.13    0.27
  -1 -31   1    0.21    0.26
   1 -31   1   -0.02    0.26
   3 -31   1    0.14    0.30
   5 -31   1    0.19    0.26
   7 -31   1    0.25    0.28
   9 -31   1    0.02    0.29
  11 -31   1    0.08    0.27
 -13 -29   1   -0.04    0.25
 -11 -29   1    0.15    0.27
  -9 -29   1   -0.07    0.23
  -7 -29   1   -0.07    0.20
  -5 -29   1   -0.21    0.21
  -3 -29   1   -0.03    0.25
  -1 -29   1   -0.07    0.24
   1 -29   1    0.03    0.23
   3 -29   1    0.34    0.28
   5 -29   1    0.27    0.24
   7 -29   1    0.17    0.23
   9 -29   1    0.41    0.28
  11 -29   1    0.07    0.26
  13 -29   1    0.12    0.28
 -17 -27   1    0.07    0.29
 -15 -27   1    0.14    0.26
 -13 -27   1    0.04    0.21
 -11 -27   1    0.19    0.24
  -9 -27   1    0.52    0.26
  -7 -27   1    0.28    0.23
  -5 -27   1    0.12    0.25
  -3 -27   1   -0.33    0.18
  -1 -27   1   -0.22    0.18
   1 -27   1    0.23    0.23
   3 -27   1   -0.06    0.20
   5 -27   1   -0.02    0.20
   7 -27   1    0.08    0.23
   9 -27   1    0.40    0.27
  11 -27   1   -0.05    0.23
  13 -27   1    0.23    0.27
  23  25  -1    0.04    0.30
  21  25  -1   -0.16    0.23
 -21 -25   1    0.12    0.29
 -19 -25   1    0.18    0.26
 -17 -25   1    0.16    0.26
 -15 -25   1    0.25    0.26
 -13 -25   1   -0.05    0.23
 -11 -25   1    0.00    0.18
  -9 -25   1    0.18    0.22
  -7 -25   1    0.01    0.21
  -5 -25   1   -0.14    0.17
  -3 -25   1   -0.07    0.18
  -1 -25   1   -0.25    0.17
   1 -25   1   -0.11    0.17
   3 -25   1   -0.16    0.17
   5 -25   1    0.02    0.19
   7 -25   1    0.44    0.25
   9 -25   1    0.11    0.21
  11 -25   1    0.00    0.21
  13 -25   1   -0.09    0.21
  23  23  -1    0.26    0.28
 -23 -23   1    0.28    0.26
  21  23  -1    0.21    0.29
 -21 -23   1   -0.06    0.25
 -19 -23   1    0.26    0.27
 -17 -23   1    0.28    0.24
 -15 -23   1    0.44    0.24
 -13 -23   1    0.03    0.19
 -11 -23   1    0.22    0.21
  -9 -23   1   -0.05    0.17
  -7 -23   1    0.57    0.23
  -5 -23   1    0.23    0.20
  -3 -23   1    1.63    0.33
  -1 -23   1    0.21    0.19
   1 -23   1    0.14    0.18
   3 -23   1    1.42    0.30
   5 -23   1    0.32    0.20
   7 -23   1   -0.03    0.18
   9 -23   1    0.17    0.21
  11 -23   1   -0.13    0.17
  13 -23   1    0.04    0.20
  15 -23   1   -0.19    0.18
  23  21  -1   -0.10    0.25
 -23 -21   1    0.21    0.29
  21  21  -1    0.30    0.26
 -21 -21   1    0.05    0.23
  19  21  -1   -0.37    0.20
 -19 -21   1   -0.12    0.22
 -17 -21   1    0.29    0.23
 -15 -21   1   -0.10    0.21
 -13 -21   1    0.17    0.21
 -11 -21   1    0.24    0.20
  -9 -21   1   -0.07    0.14
  -7 -21   1    0.06    0.16
  -5 -21   1   -0.17    0.15
  -3 -21   1    0.31    0.19
  -1 -21   1    0.03    0.16
   1 -21   1   -0.09    0.13
   3 -21   1    0.26    0.18
   5 -21   1    0.12    0.18
   7 -21   1    0.15    0.17
   9 -21   1    0.01    0.14
   9 -21   1    0.14    0.19
  11 -21   1    0.04    0.18
  11 -21   1    0.11    0.17
  13 -21   1   -0.20    0.16
  13 -21   1   -0.05    0.17
  15 -21   1   -0.09    0.15
  15 -21   1   -0.07    0.19
  17 -21   1    0.11    0.22
  19 -21   1   -0.15    0.22
  21 -21   1   -0.10    0.22
  23 -21   1    0.44    0.31
  25 -21   1    0.31    0.32
  27 -21   1    0.15    0.31
  29 -21   1    0.51    0.40
  23  19  -1   -0.01    0.21
 -23 -19   1    0.32    0.24
  21  19  -1    0.10    0.20
 -21 -19   1    0.02    0.20
  19  19  -1    0.01    0.19
 -19 -19   1   -0.19    0.18
 -17 -19   1    0.09    0.20
 -15 -19   1    0.06    0.19
 -13 -19   1   -0.15    0.15
 -11 -19   1    1.79    0.32
  -9 -19   1    0.49    0.23
  -7 -19   1    0.76    0.23
  -5 -19   1   -0.12    0.12
  -3 -19   1    2.14    0.32
  -1 -19   1   -0.12    0.12
   1 -19   1    0.12    0.10
   1 -19   1   -0.13    0.12
   3 -19   1    1.19    0.20
   3 -19   1    1.27    0.26
   5 -19   1    0.12    0.12
   5 -19   1    0.12    0.15
   7 -19   1    0.61    0.19
   7 -19   1    1.34    0.25
   9 -19   1    0.54    0.20
   9 -19   1    0.40    0.20
  11 -19   1    2.14    0.31
  11 -19   1    1.70    0.28
  13 -19   1    0.10    0.15
  13 -19   1   -0.02    0.18
  15 -19   1    0.00    0.16
  15 -19   1   -0.14    0.16
  17 -19   1   -0.01    0.20
  19 -19   1   -0.15    0.18
  21 -19   1   -0.06    0.24
  23 -19   1    0.52    0.28
  25 -19   1    0.29    0.33
  27 -19   1   -0.02    0.33
  29 -19   1    0.35    0.37
  23  17  -1    0.03    0.19
  21  17  -1    0.02    0.19
  21  17  -1    0.07    0.22
 -21 -17   1   -0.28    0.17
  19  17  -1   -0.33    0.15
  19  17  -1   -0.05    0.18
 -19 -17   1   -0.23    0.18
  17  17  -1    0.10    0.20
 -17 -17   1    0.06    0.18
  15  17  -1   -0.05    0.17
 -15 -17   1   -0.28    0.20
  13  17  -1    0.33    0.21
 -13 -17   1    0.61    0.22
 -11 -17   1   -0.08    0.15
  -9 -17   1   -0.14    0.12
  -7 -17   1    0.11    0.15
  -5 -17   1    0.12    0.14
  -3 -17   1    0.26    0.10
  -3 -17   1    0.46    0.18
  -1 -17   1   -0.02    0.13
  -1 -17   1    0.06    0.09
   1 -17   1    0.01    0.12
   1 -17   1   -0.11    0.08
   3 -17   1    0.63    0.18
   3 -17   1    0.52    0.14
   5 -17   1   -0.02    0.09
   5 -17   1    0.06    0.12
   7 -17   1    0.01    0.13
   7 -17   1    0.31    0.15
   9 -17   1    0.02    0.11
   9 -17   1   -0.19    0.10
  11 -17   1   -0.09    0.13
  11 -17   1    0.20    0.15
  13 -17   1    0.85    0.24
  13 -17   1    0.95    0.22
  15 -17   1    0.13    0.16
  15 -17   1   -0.16    0.15
  17 -17   1   -0.07    0.15
  17 -17   1    0.20    0.20
  19 -17   1   -0.25    0.20
  21 -17   1    0.04    0.22
  23 -17   1    0.37    0.29
  25 -17   1    0.00    0.24
  27 -17   1   -0.13    0.25
  29 -17   1    0.21    0.35
  31 -17   1   -0.12    0.34
  25  15  -1    0.14    0.26
  23  15  -1   -0.14    0.21
  21  15  -1   -0.03    0.17
  21  15  -1    0.05    0.19
  21  15  -1   -0.05    0.19
 -21 -15   1   -0.03    0.18
  19  15  -1    0.04    0.15
  19  15  -1    0.02    0.17
  19  15  -1   -0.20    0.15
 -19 -15   1    0.06    0.17
  17  15  -1   -0.25    0.13
  17  15  -1    0.09    0.16
 -17 -15   1    0.22    0.18
  15  15  -1   -0.02    0.14
 -15 -15   1    0.15    0.18
  13  15  -1   -0.17    0.13
 -13 -15   1   -0.13    0.15
  11  15  -1    1.12    0.25
 -11 -15   1    1.39    0.25
   9  15  -1    3.72    0.36
  -9 -15   1    3.49    0.35
  -7 -15   1    0.06    0.13
  -5 -15   1    3.20    0.32
  -3 -15   1    3.77    0.33
  -1 -15   1   -0.03    0.07
  -1 -15   1    0.23    0.13
   1 -15   1   -0.01    0.10
   1 -15   1    0.05    0.08
   3 -15   1    2.78    0.28
   3 -15   1    3.79    0.27
   5 -15   1    2.29    0.23
   5 -15   1    2.85    0.28
   7 -15   1    0.20    0.12
   7 -15   1    0.17    0.13
   9 -15   1    3.18    0.30
   9 -15   1    3.52    0.32
  11 -15   1    1.01    0.23
  11 -15   1    1.23    0.21
  13 -15   1    0.04    0.12
  13 -15   1   -0.18    0.13
  15 -15   1   -0.08    0.12
  15 -15   1    0.03    0.17
  17 -15   1   -0.14    0.19
  17 -15   1   -0.29    0.15
  19 -15   1    0.06    0.20
  21 -15   1   -0.30    0.20
  23 -15   1    0.29    0.25
  25 -15   1    0.10    0.31
  27 -15   1    0.12    0.27
  29 -15   1    0.42    0.33
  31 -15   1   -0.45    0.29
  31  13  -1    0.62    0.39
  29  13  -1    0.10    0.29
  27  13  -1   -0.04    0.25
  25  13  -1    0.09    0.22
  23  13  -1   -0.07    0.20
  21  13  -1   -0.05    0.16
  21  13  -1    0.02    0.16
 -21 -13   1   -0.01    0.16
  19  13  -1    0.11    0.15
  19  13  -1   -0.22    0.15
  19  13  -1   -0.28    0.12
 -19 -13   1   -0.06    0.15
  17  13  -1    0.57    0.19
  17  13  -1    0.53    0.22
  17  13  -1    0.84    0.22
 -17 -13   1    0.45    0.19
  15  13  -1    0.14    0.14
  15  13  -1   -0.11    0.10
 -15 -13   1   -0.04    0.14
  13  13  -1   -0.02    0.13
 -13 -13   1   -0.17    0.11
  11  13  -1   -0.04    0.12
 -11 -13   1   -0.11    0.12
   9  13  -1    0.35    0.15
  -9 -13   1    0.43    0.15
   7  13  -1    0.95    0.20
  -7 -13   1    1.35    0.22
  -5 -13   1    2.59    0.27
  -3 -13   1    0.75    0.17
  -1 -13   1    0.02    0.06
  -1 -13   1   -0.03    0.08
   1 -13   1    0.03    0.06
   1 -13   1    0.02    0.08
   3 -13   1    1.14    0.18
   3 -13   1    0.95    0.14
   5 -13   1    3.65    0.26
   5 -13   1    4.03    0.31
   7 -13   1    0.98    0.17
   7 -13   1    1.23    0.18
   9 -13   1    0.45    0.14
   9 -13   1    0.26    0.13
  11 -13   1   -0.09    0.11
  11 -13   1    0.05    0.10
  13 -13   1   -0.23    0.11
  13 -13   1   -0.04    0.10
  15 -13   1   -0.09    0.14
  15 -13   1    0.15    0.12
  17 -13   1    0.73    0.19
  17 -13   1    0.21    0.19
  19 -13   1    0.03    0.20
  21 -13   1    0.34    0.23
  23 -13   1   -0.15    0.18
  25 -13   1    0.18    0.24
  27 -13   1    0.17    0.26
  29 -13   1   -0.42    0.24
  31 -13   1    0.16    0.31
  33 -13   1    0.39    0.43
  33  11  -1    0.26    0.35
  31  11  -1   -0.06    0.32
  29  11  -1    0.07    0.30
  27  11  -1    0.26    0.29
  25  11  -1    0.21    0.25
  23  11  -1   -0.34    0.18
  21  11  -1    0.10    0.19
 -21 -11   1    0.31    0.19
  19  11  -1    1.27    0.28
  19  11  -1    1.43    0.25
  19  11  -1    1.12    0.25
 -19 -11   1    1.96    0.29
  17  11  -1    0.04    0.14
  17  11  -1    0.00    0.14
  17  11  -1    0.05    0.13
 -17 -11   1   -0.01    0.15
  15  11  -1    1.01    0.22
  15  11  -1    1.43    0.23
  15  11  -1    1.34    0.23
 -15 -11   1    1.45    0.24
  13  11  -1    0.10    0.11
  13  11  -1   -0.19    0.10
 -13 -11   1    0.06    0.11
  11  11  -1   -0.09    0.11
  11  11  -1    0.11    0.10
 -11 -11   1   -0.18    0.08
   9  11  -1    2.80    0.28
  -9 -11   1    3.88    0.31
   7  11  -1    4.33    0.33
  -7 -11   1    4.24    0.32
   5  11  -1    3.08    0.27
  -5 -11   1    3.20    0.27
  -3 -11   1   40.48    1.05
  -1 -11   1   -0.03    0.07
  -1 -11   1    0.00    0.06
   1 -11   1    0.04    0.06
   1 -11   1   -0.02    0.07
   3 -11   1   41.32    0.95
   3 -11   1   41.10    1.03
   5 -11   1    3.37    0.25
   5 -11   1    3.82    0.27
   7 -11   1    4.00    0.28
   7 -11   1    4.16    0.29
   9 -11   1    2.84    0.27
   9 -11   1    3.30    0.26
  11 -11   1   -0.06    0.07
  11 -11   1   -0.05    0.10
  13 -11   1   -0.16    0.11
  13 -11   1   -0.06    0.11
  15 -11   1    1.38    0.26
  15 -11   1    1.21    0.19
  17 -11   1    0.14    0.12
  17 -11   1    0.03    0.16
  19 -11   1    1.94    0.34
  21 -11   1   -0.14    0.20
  23 -11   1   -0.11    0.20
  25 -11   1    0.07    0.23
  27 -11   1    0.29    0.27
  29 -11   1    0.00    0.29
  31 -11   1    0.12    0.33
  33 -11   1    0.12    0.30
  35   9  -1   -0.40    0.35
  33   9  -1    0.03    0.34
  31   9  -1    0.47    0.33
  29   9  -1    0.28    0.28
  27   9  -1   -0.07    0.22
  25   9  -1   -0.11    0.18
  23   9  -1    0.17    0.21
  21   9  -1    0.01    0.18
 -21  -9   1    0.28    0.16
  19   9  -1    0.44    0.20
  19   9  -1    0.91    0.22
 -19  -9   1    0.65    0.20
  17   9  -1    0.09    0.12
  17   9  -1    0.05    0.13
  17   9  -1   -0.06    0.12
 -17  -9   1    0.00    0.12
  15   9  -1    3.14    0.31
  15   9  -1    3.49    0.31
  15   9  -1    3.46    0.31
 -15  -9   1    3.46    0.31
  13   9  -1    0.28    0.13
  13   9  -1    0.42    0.14
 -13  -9   1    0.12    0.12
  11   9  -1    3.35    0.27
  11   9  -1    2.84    0.27
 -11  -9   1    3.02    0.27
   9   9  -1   -0.06    0.06
   9   9  -1   -0.06    0.08
  -9  -9   1   -0.08    0.08
   7   9  -1   10.97    0.46
  -7  -9   1   10.34    0.44
   5   9  -1    0.75    0.14
  -5  -9   1    0.97    0.15
   3   9  -1    0.23    0.11
  -3  -9   1    0.14    0.09
  -1  -9   1   -0.06    0.07
  -1  -9   1    0.03    0.04
   1  -9   1    0.02    0.05
   1  -9   1   -0.02    0.06
   3  -9   1    0.21    0.08
   3  -9   1    0.27    0.09
   5  -9   1    1.16    0.14
   5  -9   1    0.97    0.13
   7  -9   1   10.84    0.42
   7  -9   1   10.85    0.44
   9  -9   1   -0.05    0.06
   9  -9   1   -0.05    0.08
  11  -9   1    3.03    0.28
  11  -9   1    2.99    0.24
  13  -9   1    0.36    0.12
  13  -9   1    0.31    0.16
  15  -9   1    4.01    0.39
  15  -9   1    3.31    0.27
  17  -9   1    0.04    0.11
  17  -9   1    0.04    0.17
  19  -9   1    0.57    0.24
  19  -9   1    0.49    0.17
  21  -9   1    0.07    0.19
  23  -9   1   -0.10    0.21
  25  -9   1   -0.19    0.21
  27  -9   1    0.04    0.23
  29  -9   1   -0.19    0.21
  31  -9   1    0.01    0.28
  33  -9   1   -0.08    0.29
  35   7  -1    0.24    0.41
  33   7  -1   -0.19    0.30
  31   7  -1    0.02    0.25
  29   7  -1    0.07    0.28
  27   7  -1    0.17    0.25
  25   7  -1    0.15    0.23
  23   7  -1    0.17    0.22
  21   7  -1    0.08    0.18
 -21  -7   1   -0.01    0.14
  19   7  -1    1.05    0.24
  19   7  -1    0.95    0.20
 -19  -7   1    0.56    0.17
  17   7  -1    0.26    0.15
  17   7  -1    0.06    0.12
 -17  -7   1    0.05    0.12
  15   7  -1    0.27    0.12
  15   7  -1    0.09    0.13
  15   7  -1    0.42    0.16
 -15  -7   1    0.35    0.13
  13   7  -1    1.50    0.20
  13   7  -1    1.19    0.17
  13   7  -1    1.14    0.18
 -13  -7   1    1.00    0.16
  11   7  -1    3.52    0.27
  11   7  -1    4.06    0.29
 -11  -7   1    3.97    0.28
   9   7  -1   11.22    0.42
   9   7  -1   10.07    0.43
  -9  -7   1   11.19    0.43
   7   7  -1   -0.05    0.05
   7   7  -1    0.01    0.07
  -7  -7   1    0.00    0.06
   5   7  -1    5.43    0.29
   5   7  -1    5.30    0.23
   3   7  -1   25.42    0.68
  -3  -7   1   25.13    0.66
   1   7  -1    0.10    0.08
  -1  -7   1    0.11    0.07
   1  -7   1    0.02    0.06
   3  -7   1   25.97    0.62
   3  -7   1   26.05    0.66
   5  -7   1    5.45    0.27
   5  -7   1    5.79    0.27
   7  -7   1    0.02    0.06
   7  -7   1    0.00    0.07
   9  -7   1   10.75    0.46
   9  -7   1   10.20    0.39
  11  -7   1    3.65    0.31
  11  -7   1    4.51    0.26
  13  -7   1    1.66    0.24
  13  -7   1    1.18    0.16
  15  -7   1    0.03    0.08
  15  -7   1    0.42    0.18
  17  -7   1   -0.09    0.13
  17  -7   1   -0.07    0.10
  19  -7   1    1.05    0.19
  19  -7   1    1.14    0.29
  21  -7   1   -0.13    0.17
  23  -7   1    0.39    0.25
  25  -7   1    0.31    0.26
  27  -7   1    0.42    0.28
  29  -7   1    0.10    0.29
  31  -7   1   -0.23    0.22
  33  -7   1    0.19    0.32
  35   5  -1    0.26    0.37
  33   5  -1   -0.08    0.33
  31   5  -1    0.09    0.29
  29   5  -1    0.26    0.27
  27   5  -1   -0.03    0.20
  25   5  -1    0.11    0.22
  23   5  -1    0.26    0.22
  21   5  -1   -0.06    0.17
  19   5  -1    0.02    0.13
  19   5  -1    0.13    0.12
 -19  -5   1    0.13    0.13
  17   5  -1    0.10    0.10
  17   5  -1   -0.14    0.11
 -17  -5   1    0.00    0.10
  15   5  -1    2.72    0.28
  15   5  -1    2.69    0.25
 -15  -5   1    2.11    0.22
  13   5  -1    3.88    0.26
  13   5  -1    3.77    0.30
  13   5  -1    3.81    0.27
 -13  -5   1    3.71    0.26
  11   5  -1    3.52    0.24
  11   5  -1    3.54    0.25
  11   5  -1    3.81    0.28
 -11  -5   1    3.12    0.23
   9   5  -1    0.86    0.13
   9   5  -1    0.94    0.13
  -9  -5   1    0.78    0.12
   7   5  -1    5.22    0.26
   7   5  -1    5.76    0.26
  -7  -5   1    4.99    0.25
   5   5  -1   -0.06    0.05
   5   5  -1    0.02    0.05
  -5  -5   1   -0.01    0.06
   3   5  -1    2.74    0.18
  -3  -5   1    2.68    0.18
   1   5  -1    0.03    0.05
  -1  -5   1    0.04    0.05
   1  -5   1   -0.01    0.04
   3  -5   1    2.46    0.15
   5  -5   1    0.08    0.07
   5  -5   1    0.04    0.05
   7  -5   1    5.90    0.29
   7  -5   1    5.48    0.25
   9  -5   1    1.03    0.16
   9  -5   1    1.08    0.13
  11  -5   1    3.24    0.27
  11  -5   1    3.09    0.21
  13  -5   1    3.80    0.26
  13  -5   1    4.39    0.34
  15  -5   1    2.42    0.29
  15  -5   1    2.63    0.23
  17  -5   1   -0.14    0.09
  17  -5   1   -0.04    0.14
  19  -5   1   -0.24    0.10
  19  -5   1    0.11    0.12
  21  -5   1   -0.07    0.17
  23  -5   1    0.27    0.21
  25  -5   1   -0.09    0.17
  27  -5   1   -0.08    0.19
  29  -5   1    0.20    0.26
  31  -5   1    0.07    0.29
  33  -5   1   -0.16    0.29
  35   3  -1   -0.02    0.36
  33   3  -1   -0.11    0.28
  31   3  -1    0.23    0.33
  29   3  -1   -0.37    0.24
  27   3  -1    0.24    0.27
  25   3  -1   -0.13    0.21
  23   3  -1    1.51    0.35
  21   3  -1    0.45    0.23
  19   3  -1    1.61    0.22
  19   3  -1    1.16    0.25
 -19  -3   1    1.46    0.21
  17   3  -1    0.52    0.14
  17   3  -1    0.70    0.20
 -17  -3   1    0.42    0.13
  15   3  -1    3.68    0.27
  15   3  -1    3.60    0.33
 -15  -3   1    3.53    0.26
  13   3  -1    0.66    0.17
  13   3  -1    0.74    0.13
 -13  -3   1    0.70    0.12
  11   3  -1   40.06    1.03
  11   3  -1   39.32    0.95
 -11  -3   1   40.53    0.91
   9   3  -1    0.22    0.09
   9   3  -1    0.27    0.08
   9   3  -1    0.33    0.08
  -9  -3   1    0.29    0.08
   7   3  -1   25.38    0.64
   7   3  -1   26.35    0.67
  -7  -3   1   26.91    0.61
   5   3  -1    2.40    0.16
   5   3  -1    2.41    0.15
  -5  -3   1    2.36    0.15
  -3  -3   1    0.02    0.03
  -1  -3   1    0.05    0.03
   1  -3   1    0.01    0.02
   3  -3   1    0.05    0.03
   5  -3   1    2.32    0.18
   5  -3   1    2.45    0.14
   7  -3   1   26.10    0.69
   7  -3   1   24.72    0.60
   9  -3   1    0.18    0.09
   9  -3   1    0.28    0.08
  11  -3   1   40.45    1.07
  11  -3   1   40.82    0.93
  13  -3   1    0.95    0.14
  13  -3   1    0.61    0.16
  15  -3   1    3.67    0.27
  15  -3   1    4.16    0.36
  17  -3   1    0.38    0.17
  17  -3   1    0.39    0.13
  19  -3   1    1.13    0.27
  19  -3   1    1.99    0.23
  21  -3   1    0.40    0.21
  23  -3   1    1.65    0.35
  25  -3   1   -0.06    0.21
  27  -3   1    0.12    0.25
  29  -3   1    0.27    0.29
  31  -3   1    0.05    0.30
  33  -3   1   -0.14    0.32
  35  -3   1   -0.20    0.35
  35   1  -1    0.23    0.36
  33   1  -1   -0.13    0.32
  31   1  -1   -0.12    0.25
  29   1  -1    0.43    0.32
  27   1  -1   -0.22    0.21
  25   1  -1   -0.15    0.21
  23   1  -1    0.21    0.20
  21   1  -1   -0.10    0.17
  19   1  -1    0.01    0.14
 -19  -1   1    0.17    0.11
  17   1  -1   -0.04    0.12
  17   1  -1    0.07    0.10
 -17  -1   1    0.04    0.09
  15   1  -1   -0.09    0.11
  15   1  -1   -0.03    0.08
 -15  -1   1    0.05    0.08
  13   1  -1   -0.06    0.09
  13   1  -1    0.01    0.07
 -13  -1   1    0.01    0.06
  11   1  -1    0.08    0.09
  11   1  -1    0.06    0.06
 -11  -1   1    0.05    0.06
   9   1  -1    0.09    0.07
   9   1  -1    0.00    0.05
  -9  -1   1    0.02    0.05
   7   1  -1   -0.02    0.04
   7   1  -1   -0.11    0.06
  -7  -1   1   -0.06    0.04
   5   1  -1   -0.01    0.03
   5   1  -1    0.18    0.06
  -5  -1   1    0.06    0.04
  -3  -1   1    0.06    0.02
  -1  -1   1    0.09    0.02
   1  -1   1    0.03    0.01
   3  -1   1    0.00    0.02
   5  -1   1    0.07    0.04
   5  -1   1    0.06    0.05
   7  -1   1    0.08    0.07
   7  -1   1   -0.07    0.04
   9  -1   1    0.02    0.05
   9  -1   1   -0.07    0.06
  11  -1   1   -0.02    0.05
  11  -1   1    0.05    0.08
  11  -1   1   -0.01    0.05
  13  -1   1   -0.01    0.06
  13  -1   1   -0.08    0.09
  13  -1   1    0.06    0.06
  15  -1   1   -0.11    0.10
  15  -1   1   -0.05    0.06
  15  -1   1   -0.01    0.07
 -17   1  -1    0.05    0.08
  17  -1   1   -0.11    0.10
 -19   1  -1    0.09    0.10
  19  -1   1    0.00    0.14
  21  -1   1    0.14    0.20
  23  -1   1   -0.05    0.20
  25  -1   1   -0.12    0.21
  27  -1   1    0.14    0.25
  29  -1   1    0.09    0.25
  31  -1   1   -0.04    0.31
  33  -1   1    0.23    0.32
  35  -1   1   -0.07    0.38
  35  -1  -1    0.15    0.38
  33  -1  -1    0.04    0.34
  31  -1  -1    0.29    0.30
  29  -1  -1    0.10    0.28
  27  -1  -1   -0.17    0.23
  25  -1  -1   -0.15    0.19
  23  -1  -1    0.04    0.19
  21  -1  -1    0.10    0.18
  19  -1  -1   -0.22    0.13
  17  -1  -1   -0.21    0.11
  17  -1  -1   -0.03    0.08
 -17   1   1    0.03    0.08
  15  -1  -1   -0.02    0.08
  15  -1  -1    0.05    0.11
 -15   1   1   -0.03    0.07
  13  -1  -1    0.05    0.09
  13  -1  -1   -0.02    0.06
 -13   1   1    0.04    0.05
  11  -1  -1   -0.05    0.08
  11  -1  -1   -0.07    0.05
   9  -1  -1    0.03    0.05
   9  -1  -1    0.00    0.08
   7  -1  -1    0.03    0.07
   7  -1  -1    0.11    0.05
   5  -1  -1    0.07    0.03
   5  -1  -1    0.07    0.06
   3  -1  -1    0.10    0.02
   1  -1  -1    0.02    0.01
  -1  -1  -1    0.06    0.02
   1   1   1    0.01    0.01
  -3  -1  -1    0.02    0.02
  -5  -1  -1    0.02    0.04
   5   1   1    0.03    0.05
  -7  -1  -1    0.01    0.05
   7   1   1    0.06    0.07
  -9  -1  -1   -0.01    0.05
   9   1   1    0.09    0.08
 -11  -1  -1   -0.01    0.05
  11   1   1    0.00    0.05
  11   1   1   -0.04    0.06
 -13  -1  -1   -0.10    0.06
  13   1   1    0.02    0.06
  13   1   1    0.05    0.09
 -15  -1  -1    0.07    0.08
  15   1   1   -0.10    0.06
  15   1   1    0.05    0.11
 -17  -1  -1   -0.12    0.07
  17   1   1    0.02    0.08
  17   1   1   -0.01    0.11
 -19  -1  -1   -0.05    0.10
  19   1   1    0.27    0.17
 -21  -1  -1    0.12    0.12
  21   1   1   -0.01    0.16
  23   1   1   -0.41    0.15
  25   1   1   -0.19    0.18
  27   1   1    0.02    0.22
  29   1   1   -0.10    0.23
  31   1   1    0.04    0.30
  33   1   1    0.18    0.33
  35   1   1   -0.15    0.32
  35  -3  -1    0.30    0.40
  33  -3  -1   -0.24    0.30
  31  -3  -1    0.18    0.33
  29  -3  -1    0.34    0.29
  27  -3  -1    0.45    0.31
  25  -3  -1   -0.11    0.23
  23  -3  -1    1.05    0.33
  21  -3  -1    0.32    0.24
  19  -3  -1    1.49    0.30
  17  -3  -1    0.53    0.20
  17  -3  -1    0.59    0.13
  15  -3  -1    3.79    0.34
  15  -3  -1    3.70    0.24
  13  -3  -1    1.00    0.19
  13  -3  -1    0.72    0.11
  11  -3  -1   42.46    1.11
  11  -3  -1   42.91    0.92
   9  -3  -1    0.33    0.07
   9  -3  -1    0.24    0.10
   7  -3  -1   26.06    0.56
   7  -3  -1   25.38    0.68
   5  -3  -1    2.55    0.12
   5  -3  -1    2.43    0.17
   3  -3  -1    0.02    0.03
   1  -3  -1    0.01    0.03
  -1  -3  -1    0.01    0.03
  -3  -3  -1    0.09    0.04
  -5  -3  -1    2.30    0.15
   5   3   1    2.37    0.16
  -7  -3  -1   25.36    0.63
   7   3   1   24.81    0.61
   7   3   1   26.03    0.60
   7   3   1   26.66    0.68
  -9  -3  -1    0.18    0.08
   9   3   1    0.27    0.07
   9   3   1    0.27    0.09
 -11  -3  -1   39.58    0.95
  11   3   1   40.08    1.04
  11   3   1   41.16    0.91
 -13  -3  -1    0.91    0.15
  13   3   1    0.66    0.11
  13   3   1    0.88    0.17
 -15  -3  -1    3.83    0.28
  15   3   1    3.92    0.25
  15   3   1    3.92    0.34
 -17  -3  -1    0.40    0.14
  17   3   1    0.60    0.20
  17   3   1    0.55    0.13
 -19  -3  -1    1.74    0.23
  19   3   1    1.68    0.29
 -21  -3  -1    0.23    0.14
  21   3   1    0.23    0.20
  23   3   1    1.28    0.32
  25   3   1    0.08    0.21
  27   3   1    0.34    0.28
  29   3   1    0.08    0.25
  31   3   1   -0.02    0.27
  33   3   1    0.37    0.35
  35   3   1    0.37    0.38
  33  -5  -1    0.26    0.36
  31  -5  -1   -0.30    0.24
  29  -5  -1    0.14    0.33
  27  -5  -1    0.00    0.22
  25  -5  -1    0.00    0.22
  23  -5  -1    0.09    0.20
  21  -5  -1    0.00    0.20
  19  -5  -1    0.18    0.18
  17  -5  -1    0.06    0.09
  17  -5  -1    0.25    0.15
  15  -5  -1    2.89    0.31
  15  -5  -1    2.51    0.21
  13  -5  -1    3.65    0.32
  13  -5  -1    3.16    0.21
  11  -5  -1    3.55    0.21
  11  -5  -1    3.78    0.31
   9  -5  -1    0.90    0.15
   9  -5  -1    1.00    0.10
   7  -5  -1    5.45    0.29
   7  -5  -1    5.18    0.21
   5  -5  -1   -0.02    0.06
   5  -5  -1   -0.01    0.05
   3  -5  -1    2.54    0.15
   3  -5  -1    2.44    0.16
   1  -5  -1    0.12    0.05
  -1  -5  -1   -0.05    0.05
  -3  -5  -1    2.92    0.18
  -5  -5  -1    0.00    0.07
   5   5   1    0.04    0.07
   5   5   1    0.02    0.05
  -7  -5  -1    5.22    0.27
   7   5   1    5.64    0.27
   7   5   1    5.75    0.26
  -9  -5  -1    1.12    0.14
   9   5   1    0.93    0.13
   9   5   1    0.96    0.12
   9   5   1    0.96    0.14
 -11  -5  -1    3.51    0.25
  11   5   1    2.95    0.25
  11   5   1    3.36    0.24
  11   5   1    3.40    0.25
 -13  -5  -1    3.57    0.27
  13   5   1    3.64    0.29
  13   5   1    4.38    0.27
 -15  -5  -1    2.45    0.24
  15   5   1    2.92    0.24
  15   5   1    2.33    0.27
 -17  -5  -1   -0.06    0.09
  17   5   1    0.02    0.09
  17   5   1    0.04    0.11
 -19  -5  -1   -0.05    0.11
  19   5   1    0.01    0.13
 -21  -5  -1    0.11    0.14
  21   5   1    0.22    0.17
  23   5   1   -0.16    0.18
  25   5   1    0.06    0.19
  27   5   1    0.12    0.23
  29   5   1    0.20    0.28
  31   5   1    0.31    0.33
  33   5   1    0.11    0.31
  35   5   1    0.40    0.36
  33  -7  -1   -0.10    0.30
  31  -7  -1    0.13    0.28
  29  -7  -1   -0.25    0.23
  27  -7  -1    0.35    0.27
  25  -7  -1   -0.10    0.22
  23  -7  -1    1.12    0.32
  21  -7  -1   -0.21    0.15
  19  -7  -1    0.91    0.26
  17  -7  -1    0.19    0.11
  17  -7  -1    0.19    0.17
  15  -7  -1    0.05    0.13
  15  -7  -1    0.46    0.11
  13  -7  -1    1.16    0.22
  13  -7  -1    1.42    0.16
  11  -7  -1    2.83    0.27
  11  -7  -1    4.06    0.23
   9  -7  -1   10.46    0.37
   9  -7  -1   11.30    0.48
   7  -7  -1   -0.02    0.05
   7  -7  -1   -0.03    0.06
   5  -7  -1    5.67    0.25
   5  -7  -1    5.51    0.28
   3  -7  -1   26.14    0.64
   3  -7  -1   25.71    0.64
   1  -7  -1    0.05    0.07
   1  -7  -1    0.08    0.06
  -1  -7  -1   -0.03    0.07
  -5  -7  -1    5.54    0.28
   5   7   1    5.82    0.29
  -7  -7  -1    0.04    0.07
   7   7   1   -0.03    0.06
   7   7   1    0.09    0.07
  -9  -7  -1   10.71    0.44
   9   7   1   10.26    0.42
   9   7   1   11.28    0.44
 -11  -7  -1    3.77    0.27
  11   7   1    3.59    0.26
  11   7   1    3.85    0.29
  11   7   1    3.54    0.27
 -13  -7  -1    1.04    0.18
  13   7   1    1.36    0.18
  13   7   1    1.10    0.18
  13   7   1    1.37    0.20
 -15  -7  -1   -0.04    0.10
  15   7   1    0.28    0.13
  15   7   1    0.25    0.14
 -17  -7  -1    0.20    0.12
  17   7   1    0.10    0.14
  17   7   1    0.14    0.12
 -19  -7  -1    0.68    0.19
  19   7   1    1.01    0.25
 -21  -7  -1    0.19    0.15
  21   7   1    0.00    0.17
  23   7   1    0.20    0.23
  25   7   1    0.00    0.21
  27   7   1    0.48    0.28
  29   7   1    0.09    0.25
  31   7   1    0.14    0.30
  33   7   1    0.29    0.36
  35   7   1    0.75    0.41
  33  -9  -1    0.27    0.36
  31  -9  -1    0.09    0.29
  29  -9  -1    0.12    0.27
  27  -9  -1   -0.11    0.23
  25  -9  -1   -0.28    0.19
  23  -9  -1    0.15    0.22
  21  -9  -1   -0.27    0.16
  19  -9  -1    0.53    0.24
  17  -9  -1    0.05    0.11
  17  -9  -1   -0.07    0.14
  15  -9  -1    3.27    0.36
  15  -9  -1    3.75    0.27
  13  -9  -1    0.56    0.12
  13  -9  -1    0.46    0.15
  11  -9  -1    3.49    0.30
  11  -9  -1    3.21    0.23
   9  -9  -1   -0.06    0.08
   9  -9  -1    0.01    0.06
   7  -9  -1   11.03    0.45
   7  -9  -1   10.79    0.40
   5  -9  -1    0.95    0.14
   5  -9  -1    1.12    0.14
   3  -9  -1    0.14    0.07
   3  -9  -1    0.18    0.08
   1  -9  -1    0.02    0.06
   1  -9  -1    0.02    0.07
  -1  -9  -1    0.07    0.08
  -3  -9  -1    0.19    0.09
  -5  -9  -1    0.90    0.15
  -7  -9  -1   10.41    0.45
   7   9   1   11.43    0.48
  -9  -9  -1    0.04    0.09
   9   9   1    0.00    0.09
   9   9   1    0.09    0.08
 -11  -9  -1    3.17    0.27
  11   9   1    3.01    0.26
  11   9   1    2.99    0.26
 -13  -9  -1    0.51    0.15
  13   9   1    0.55    0.15
  13   9   1    0.49    0.15
  13   9   1    0.35    0.13
 -15  -9  -1    3.99    0.33
  15   9   1    4.17    0.34
  15   9   1    3.18    0.30
  15   9   1    3.86    0.35
 -17  -9  -1    0.23    0.15
  17   9   1   -0.02    0.12
  17   9   1    0.06    0.14
 -19  -9  -1    0.53    0.20
  19   9   1    0.50    0.20
 -21  -9  -1   -0.20    0.13
  21   9   1   -0.07    0.16
 -23  -9  -1   -0.14    0.18
  23   9   1    0.16    0.21
  25   9   1    0.12    0.23
  27   9   1    0.18    0.27
  29   9   1    0.33    0.28
  31   9   1    0.14    0.32
  33   9   1   -0.20    0.31
  35   9   1    0.44    0.43
  33 -11  -1    0.24    0.36
  31 -11  -1   -0.11    0.32
  29 -11  -1    0.16    0.30
  27 -11  -1    0.19    0.28
  25 -11  -1   -0.02    0.23
  23 -11  -1    0.09    0.23
  21 -11  -1    0.03    0.20
  19 -11  -1    1.56    0.32
  17 -11  -1    0.05    0.11
  17 -11  -1   -0.03    0.15
  15 -11  -1    1.56    0.19
  15 -11  -1    1.33    0.26
  13 -11  -1    0.16    0.13
  13 -11  -1   -0.01    0.08
  11 -11  -1   -0.13    0.09
  11 -11  -1   -0.02    0.08
   9 -11  -1    3.19    0.25
   9 -11  -1    3.26    0.28
   7 -11  -1    3.93    0.27
   7 -11  -1    3.69    0.28
   5 -11  -1    2.59    0.23
   5 -11  -1    3.33    0.24
   3 -11  -1   40.71    1.00
   3 -11  -1   40.39    0.97
   1 -11  -1    0.01    0.08
   1 -11  -1    0.03    0.07
  -1 -11  -1   -0.07    0.07
  -3 -11  -1   42.71    1.08
  -5 -11  -1    3.17    0.26
  -7 -11  -1    3.93    0.30
  -9 -11  -1    3.08    0.29
   9  11   1    3.12    0.28
 -11 -11  -1   -0.03    0.10
  11  11   1   -0.04    0.10
 -13 -11  -1    0.03    0.12
  13  11   1   -0.09    0.09
  13  11   1    0.06    0.11
  13  11   1    0.02    0.11
 -15 -11  -1    1.67    0.26
  15  11   1    1.54    0.24
  15  11   1    1.17    0.22
  15  11   1    1.44    0.23
 -17 -11  -1    0.12    0.14
  17  11   1   -0.08    0.15
  17  11   1   -0.15    0.12
  17  11   1    0.27    0.16
 -19 -11  -1    1.38    0.27
  19  11   1    1.37    0.27
  19  11   1    1.69    0.27
 -21 -11  -1    0.23    0.19
  21  11   1    0.33    0.22
 -23 -11  -1   -0.19    0.15
  23  11   1    0.11    0.21
  25  11   1    0.02    0.20
  27  11   1   -0.05    0.24
  29  11   1   -0.03    0.25
  31  11   1    0.04    0.33
  33  11   1    0.27    0.36
  33 -13  -1    0.29    0.37
  31 -13  -1   -0.21    0.28
  29 -13  -1    0.18    0.29
  27 -13  -1   -0.03    0.27
  25 -13  -1   -0.07    0.22
  23 -13  -1   -0.09    0.22
  21 -13  -1    0.10    0.21
  19 -13  -1    0.12    0.20
  17 -13  -1    0.61    0.23
  15 -13  -1   -0.19    0.10
  15 -13  -1   -0.03    0.14
  13 -13  -1   -0.07    0.09
  13 -13  -1   -0.13    0.11
  11 -13  -1    0.03    0.09
  11 -13  -1    0.02    0.12
   9 -13  -1    0.51    0.16
   9 -13  -1    0.32    0.13
   7 -13  -1    1.36    0.19
   7 -13  -1    0.85    0.16
   5 -13  -1    3.83    0.29
   5 -13  -1    3.78    0.28
   3 -13  -1    0.79    0.14
   3 -13  -1    0.94    0.17
   1 -13  -1    0.05    0.07
   1 -13  -1    0.11    0.10
  -1 -13  -1    0.14    0.11
  -1 -13  -1   -0.03    0.06
  -3 -13  -1    0.80    0.17
  -5 -13  -1    3.24    0.29
  -7 -13  -1    0.92    0.19
  -9 -13  -1    0.37    0.15
 -11 -13  -1   -0.16    0.11
 -13 -13  -1    0.04    0.13
  13  13   1    0.03    0.13
 -15 -13  -1    0.05    0.15
  15  13   1   -0.07    0.13
  15  13   1   -0.08    0.14
 -17 -13  -1    0.94    0.23
  17  13   1    0.69    0.20
  17  13   1    0.62    0.21
  17  13   1    0.87    0.23
 -19 -13  -1    0.10    0.17
  19  13   1    0.15    0.18
  19  13   1   -0.07    0.15
  19  13   1   -0.16    0.14
 -21 -13  -1    0.05    0.17
  21  13   1    0.02    0.19
 -23 -13  -1    0.00    0.18
  23  13   1   -0.03    0.20
  25  13   1   -0.14    0.22
  27  13   1   -0.14    0.25
  29  13   1   -0.17    0.23
  31  13   1   -0.27    0.32
  33  13   1    0.14    0.34
  31 -15  -1    0.30    0.35
  29 -15  -1    0.13    0.30
  27 -15  -1   -0.23    0.27
  25 -15  -1    0.29    0.27
  23 -15  -1   -0.06    0.20
  21 -15  -1   -0.01    0.21
  19 -15  -1    0.10    0.22
  17 -15  -1    0.26    0.20
  15 -15  -1    0.18    0.19
  15 -15  -1    0.04    0.12
  13 -15  -1    0.26    0.17
  13 -15  -1    0.00    0.11
  11 -15  -1    1.10    0.20
  11 -15  -1    1.37    0.24
   9 -15  -1    3.59    0.33
   9 -15  -1    3.05    0.28
   7 -15  -1    0.24    0.13
   7 -15  -1    0.17    0.12
   5 -15  -1    2.13    0.25
   5 -15  -1    2.88    0.26
   3 -15  -1    3.40    0.27
   3 -15  -1    2.93    0.28
   1 -15  -1    0.06    0.08
   1 -15  -1    0.04    0.10
  -1 -15  -1    0.05    0.08
  -1 -15  -1   -0.01    0.10
  -3 -15  -1    4.24    0.36
  -5 -15  -1    2.70    0.30
  -7 -15  -1    0.08    0.12
  -9 -15  -1    2.91    0.32
 -11 -15  -1    1.90    0.29
 -13 -15  -1   -0.13    0.12
 -15 -15  -1   -0.11    0.13
 -17 -15  -1   -0.08    0.16
  17  15   1   -0.03    0.16
 -19 -15  -1   -0.09    0.17
  19  15   1    0.06    0.16
 -21 -15  -1   -0.24    0.17
  21  15   1   -0.02    0.17
 -23 -15  -1    0.20    0.22
  23  15   1    0.02    0.21
  25  15   1    0.49    0.30
  27  15   1    0.39    0.32
  29  15   1    0.09    0.32
  31  15   1   -0.05    0.36
  31 -17  -1    0.08    0.39
  29 -17  -1   -0.11    0.29
  27 -17  -1   -0.08    0.31
  25 -17  -1    0.18    0.26
  23 -17  -1    0.13    0.25
  21 -17  -1    0.28    0.24
  19 -17  -1   -0.20    0.19
  17 -17  -1    0.10    0.19
  15 -17  -1   -0.12    0.16
  15 -17  -1   -0.06    0.14
  13 -17  -1    0.58    0.19
  13 -17  -1    0.55    0.22
  11 -17  -1    0.11    0.13
  11 -17  -1   -0.09    0.14
   9 -17  -1    0.00    0.12
   9 -17  -1   -0.04    0.11
   7 -17  -1    0.02    0.12
   7 -17  -1   -0.03    0.10
   5 -17  -1    0.18    0.13
   5 -17  -1    0.08    0.12
   3 -17  -1    0.37    0.16
   3 -17  -1    0.67    0.16
   1 -17  -1    0.08    0.10
   1 -17  -1    0.02    0.11
  -1 -17  -1   -0.11    0.12
  -1 -17  -1   -0.08    0.07
  -3 -17  -1    0.23    0.17
  -3 -17  -1    0.56    0.14
  -5 -17  -1   -0.04    0.12
  -7 -17  -1    0.12    0.15
  -9 -17  -1   -0.12    0.13
 -11 -17  -1   -0.11    0.14
 -13 -17  -1    0.67    0.23
 -15 -17  -1   -0.16    0.17
 -17 -17  -1    0.01    0.17
  17  17   1    0.16    0.18
 -19 -17  -1    0.01    0.18
  19  17   1   -0.07    0.16
 -21 -17  -1    0.03    0.20
  21  17   1    0.06    0.19
 -23 -17  -1    0.33    0.25
  29 -19  -1    0.05    0.33
  27 -19  -1   -0.37    0.29
  25 -19  -1    0.57    0.36
  23 -19  -1   -0.05    0.22
  21 -19  -1   -0.19    0.23
  19 -19  -1   -0.05    0.21
  17 -19  -1    0.04    0.18
  15 -19  -1    0.04    0.20
  15 -19  -1   -0.01    0.16
  13 -19  -1    0.06    0.15
  13 -19  -1    0.09    0.16
  11 -19  -1    1.43    0.27
  11 -19  -1    1.54    0.29
   9 -19  -1    0.44    0.20
   9 -19  -1    0.78    0.22
   7 -19  -1    0.64    0.22
   7 -19  -1    1.04    0.22
   5 -19  -1   -0.16    0.10
   5 -19  -1    0.17    0.16
   3 -19  -1    1.43    0.26
   3 -19  -1    1.67    0.23
   1 -19  -1   -0.13    0.10
   1 -19  -1    0.21    0.17
  -1 -19  -1    0.03    0.16
  -1 -19  -1    0.15    0.12
  -3 -19  -1    1.45    0.21
  -3 -19  -1    0.97    0.25
  -5 -19  -1    0.05    0.15
  -7 -19  -1    0.88    0.24
  -9 -19  -1    0.47    0.23
 -11 -19  -1    1.38    0.30
 -13 -19  -1    0.12    0.19
 -15 -19  -1    0.07    0.18
 -17 -19  -1   -0.20    0.18
  17  19   1    0.04    0.20
 -19 -19  -1    0.12    0.20
  19  19   1    0.05    0.18
 -21 -19  -1    0.02    0.21
  21  19   1   -0.17    0.18
 -23 -19  -1    0.18    0.23
  23  19   1   -0.30    0.17
  29 -21  -1    0.19    0.40
  27 -21  -1   -0.34    0.34
  25 -21  -1    0.22    0.29
  23 -21  -1   -0.29    0.24
  21 -21  -1   -0.05    0.27
  19 -21  -1    0.09    0.24
  17 -21  -1   -0.13    0.19
  15 -21  -1   -0.12    0.20
  13 -21  -1   -0.11    0.15
  13 -21  -1   -0.08    0.19
  11 -21  -1    0.01    0.17
  11 -21  -1    0.03    0.17
   9 -21  -1    0.07    0.15
   9 -21  -1    0.07    0.16
   7 -21  -1    0.02    0.15
   7 -21  -1    0.14    0.18
   5 -21  -1    0.09    0.15
   5 -21  -1   -0.04    0.13
   3 -21  -1    0.38    0.19
   3 -21  -1    0.37    0.17
   1 -21  -1   -0.09    0.12
   1 -21  -1   -0.05    0.15
  -1 -21  -1    0.05    0.18
  -3 -21  -1    0.18    0.18
  -5 -21  -1   -0.07    0.17
  -7 -21  -1    0.25    0.19
  -9 -21  -1   -0.20    0.15
 -11 -21  -1    0.11    0.19
 -13 -21  -1    0.00    0.18
 -15 -21  -1    0.31    0.25
 -17 -21  -1   -0.10    0.17
 -19 -21  -1   -0.25    0.18
  19  21   1   -0.17    0.18
 -21 -21  -1   -0.18    0.20
  21  21   1    0.08    0.23
 -23 -21  -1   -0.09    0.22
  23  21   1    0.05    0.24
  27 -23  -1   -0.17    0.35
  25 -23  -1    0.70    0.39
  23 -23  -1   -0.29    0.28
  21 -23  -1   -0.06    0.26
  19 -23  -1    0.13    0.25
  17 -23  -1    0.58    0.30
  15 -23  -1   -0.12    0.19
  13 -23  -1   -0.05    0.17
  13 -23  -1    0.03    0.20
  11 -23  -1    0.15    0.20
  11 -23  -1   -0.03    0.18
   9 -23  -1   -0.02    0.17
   7 -23  -1   -0.06    0.19
   5 -23  -1    0.28    0.20
   3 -23  -1    1.02    0.28
   1 -23  -1   -0.02    0.18
  -1 -23  -1    0.12    0.21
  -3 -23  -1    1.45    0.33
  -5 -23  -1    0.19    0.21
  -7 -23  -1    0.35    0.22
  -9 -23  -1    0.32    0.22
 -11 -23  -1    0.01    0.21
 -13 -23  -1    0.26    0.22
 -15 -23  -1   -0.03    0.22
 -17 -23  -1    0.32    0.25
 -19 -23  -1    0.17    0.27
  19  23   1    0.21    0.25
 -21 -23  -1    0.03    0.25
  21  23   1   -0.02    0.26
 -23 -23  -1   -0.09    0.27
  23  23   1    0.24    0.29
  13 -25  -1    0.14    0.23
  11 -25  -1   -0.11    0.18
   9 -25  -1   -0.17    0.15
   7 -25  -1   -0.05    0.19
   5 -25  -1   -0.02    0.20
   3 -25  -1   -0.04    0.18
   1 -25  -1    0.10    0.19
  -1 -25  -1   -0.42    0.17
  -3 -25  -1   -0.16    0.19
  -5 -25  -1   -0.29    0.16
  -7 -25  -1    0.15    0.19
  -9 -25  -1   -0.16    0.20
 -11 -25  -1    0.12    0.21
 -13 -25  -1    0.04    0.22
 -15 -25  -1    0.22    0.25
 -17 -25  -1    0.15    0.26
 -19 -25  -1    0.23    0.30
  19  25   1    0.02    0.24
 -21 -25  -1    0.34    0.33
  21  25   1   -0.17    0.23
  23  25   1   -0.23    0.26
  11 -27  -1    0.06    0.26
   9 -27  -1   -0.13    0.20
   7 -27  -1    0.11    0.23
   5 -27  -1    0.22    0.22
   3 -27  -1    0.04    0.18
   1 -27  -1   -0.18    0.21
  -1 -27  -1   -0.08    0.20
  -3 -27  -1   -0.07    0.19
  -5 -27  -1    0.34    0.27
  -7 -27  -1    0.07    0.21
  -9 -27  -1    0.02    0.21
 -11 -27  -1    0.22    0.26
 -13 -27  -1    0.15    0.23
 -15 -27  -1    0.43    0.28
 -17 -27  -1    0.14    0.28
  19  27   1   -0.17    0.26
  11 -29  -1   -0.01    0.25
   9 -29  -1    0.09    0.23
   7 -29  -1   -0.18    0.22
   5 -29  -1    0.37    0.27
   3 -29  -1   -0.21    0.19
   1 -29  -1    0.21    0.26
  -1 -29  -1    0.15    0.27
  -3 -29  -1    0.13    0.27
  -5 -29  -1    0.10    0.26
  -7 -29  -1    0.12    0.28
  -9 -29  -1   -0.02    0.23
 -11 -29  -1   -0.01    0.25
 -13 -29  -1    0.18    0.26
  11 -31  -1    0.51    0.32
   9 -31  -1    0.25    0.29
   7 -31  -1   -0.04    0.25
   5 -31  -1   -0.02    0.29
   3 -31  -1    0.08    0.26
   1 -31  -1   -0.10    0.25
  -1 -31  -1    0.13    0.30
  -3 -31  -1    0.04    0.27
  -5 -31  -1   -0.03    0.28
  -7 -31  -1   -0.31    0.26
   0 -32   2    0.35    0.32
   2 -32   2    0.00    0.29
   4 -32   2    0.05    0.30
   6 -32   2    0.21    0.31
   8 -32   2    0.28    0.32
 -10 -30   2    5.66    0.65
  -8 -30   2    0.47    0.28
  -6 -30   2    4.25    0.55
  -4 -30   2    0.24    0.26
  -2 -30   2    7.27    0.67
   0 -30   2    0.03    0.26
   2 -30   2    7.93    0.69
   4 -30   2   -0.10    0.22
   6 -30   2    3.36    0.49
   8 -30   2    0.19    0.25
  10 -30   2    6.98    0.66
  12 -30   2    0.37    0.32
 -16 -28   2    0.92    0.37
 -14 -28   2    0.06    0.25
 -12 -28   2    0.30    0.27
 -10 -28   2    0.36    0.28
  -8 -28   2    0.36    0.27
  -6 -28   2    0.06    0.20
  -4 -28   2   -0.03    0.26
  -2 -28   2    0.24    0.27
   0 -28   2    0.02    0.25
   2 -28   2    0.22    0.26
   4 -28   2    0.26    0.29
   6 -28   2   -0.17    0.22
   8 -28   2    0.29    0.27
  10 -28   2    0.18    0.28
  12 -28   2    0.44    0.31
  14 -28   2    0.41    0.32
  22  26  -2    3.78    0.57
 -20 -26   2   -0.40    0.24
 -18 -26   2    3.36    0.53
 -16 -26   2    0.23    0.27
 -14 -26   2    6.97    0.66
 -12 -26   2    0.09    0.23
 -10 -26   2    5.93    0.60
  -8 -26   2    0.13    0.21
  -6 -26   2    3.82    0.48
  -4 -26   2    0.70    0.28
  -2 -26   2    6.19    0.57
   0 -26   2    0.67    0.28
   2 -26   2    8.18    0.64
   4 -26   2    0.68    0.28
   6 -26   2    3.79    0.47
   8 -26   2    0.11    0.22
  10 -26   2    4.99    0.53
  12 -26   2    0.21    0.25
  14 -26   2    7.91    0.65
  22  24  -2    0.35    0.29
 -22 -24   2    0.29    0.30
 -20 -24   2    0.69    0.33
 -18 -24   2   -0.01    0.24
 -16 -24   2    0.46    0.27
 -14 -24   2    0.27    0.25
 -12 -24   2    0.07    0.19
 -10 -24   2    0.40    0.24
  -8 -24   2    1.10    0.31
  -6 -24   2    0.67    0.27
  -4 -24   2    0.36    0.22
  -2 -24   2    0.62    0.28
   0 -24   2   -0.19    0.18
   2 -24   2    0.03    0.24
   4 -24   2    0.34    0.25
   6 -24   2    0.60    0.26
   8 -24   2    1.03    0.31
  10 -24   2    0.48    0.26
  12 -24   2   -0.18    0.19
  14 -24   2    0.33    0.26
  22  22  -2    5.73    0.59
 -22 -22   2    6.54    0.65
  20  22  -2    0.20    0.26
 -20 -22   2    0.44    0.27
 -18 -22   2    4.24    0.53
 -16 -22   2    0.10    0.21
 -14 -22   2    9.50    0.69
 -12 -22   2    0.24    0.22
 -10 -22   2   13.47    0.79
  -8 -22   2    0.69    0.27
  -6 -22   2   15.54    0.81
  -4 -22   2    0.03    0.17
  -2 -22   2   18.32    0.87
   0 -22   2    3.57    0.41
   2 -22   2   17.66    0.82
   4 -22   2   -0.14    0.14
   6 -22   2   14.91    0.76
   8 -22   2    0.73    0.23
  10 -22   2   13.86    0.75
  12 -22   2    0.22    0.21
  14 -22   2    8.59    0.61
  16 -22   2   -0.01    0.21
  22 -22   2    4.98    0.61
  24 -22   2    0.29    0.33
  26 -22   2    3.72    0.62
  28 -22   2    0.18    0.37
  22  20  -2    0.28    0.23
 -22 -20   2    0.28    0.25
  20  20  -2    1.30    0.33
 -20 -20   2    1.55    0.35
 -18 -20   2    0.54    0.25
 -16 -20   2    1.77    0.35
 -14 -20   2    2.27    0.37
 -12 -20   2    0.76    0.25
 -10 -20   2   -0.07    0.17
  -8 -20   2    0.58    0.24
  -6 -20   2    0.76    0.24
  -4 -20   2    0.42    0.20
  -2 -20   2    0.98    0.25
   0 -20   2    0.08    0.18
   2 -20   2    0.67    0.22
   4 -20   2    0.64    0.22
   6 -20   2    0.97    0.25
   8 -20   2    1.06    0.25
  10 -20   2    0.04    0.15
  10 -20   2    0.18    0.17
  12 -20   2    0.44    0.21
  12 -20   2    0.48    0.20
  14 -20   2    2.33    0.34
  14 -20   2    2.20    0.35
  16 -20   2    1.08    0.31
  16 -20   2    1.45    0.29
  18 -20   2    0.18    0.21
  20 -20   2    0.79    0.32
  22 -20   2    0.36    0.29
  24 -20   2    0.60    0.35
  26 -20   2   -0.08    0.30
  28 -20   2    0.85    0.47
  30 -20   2    0.03    0.38
  22  18  -2    4.87    0.50
 -22 -18   2    4.48    0.50
  20  18  -2   -0.04    0.20
  20  18  -2    0.21    0.21
 -20 -18   2    0.07    0.21
  18  18  -2    9.70    0.69
 -18 -18   2   10.20    0.68
  16  18  -2    0.31    0.23
 -16 -18   2   -0.01    0.17
  14  18  -2   16.18    0.85
 -14 -18   2   15.21    0.80
  12  18  -2    1.08    0.29
 -12 -18   2    1.55    0.31
 -10 -18   2   13.65    0.72
  -8 -18   2    0.10    0.14
  -6 -18   2   14.20    0.70
  -4 -18   2    2.61    0.32
  -2 -18   2   22.21    0.87
   0 -18   2    0.02    0.10
   0 -18   2    0.25    0.16
   2 -18   2   22.22    0.71
   2 -18   2   23.21    0.87
   4 -18   2    2.95    0.27
   4 -18   2    1.88    0.28
   6 -18   2   13.67    0.66
   6 -18   2   14.79    0.61
   8 -18   2    0.18    0.14
   8 -18   2   -0.18    0.12
  10 -18   2   13.64    0.66
  10 -18   2   12.80    0.63
  12 -18   2    1.99    0.29
  12 -18   2    2.01    0.30
  14 -18   2   15.41    0.77
  14 -18   2   14.74    0.71
  16 -18   2    0.06    0.19
  16 -18   2    0.22    0.18
  18 -18   2   11.21    0.73
  20 -18   2   -0.05    0.18
  22 -18   2    5.42    0.60
  24 -18   2    0.25    0.25
  26 -18   2    2.99    0.55
  28 -18   2   -0.12    0.32
  30 -18   2    3.61    0.65
  22  16  -2    0.10    0.19
  20  16  -2    1.15    0.27
  20  16  -2    0.98    0.29
 -20 -16   2    1.40    0.31
  18  16  -2    0.02    0.18
 -18 -16   2    0.16    0.19
  16  16  -2    1.13    0.28
 -16 -16   2    0.63    0.23
  14  16  -2   -0.31    0.12
 -14 -16   2   -0.07    0.15
  12  16  -2    1.46    0.28
 -12 -16   2    1.46    0.27
  10  16  -2    4.19    0.40
 -10 -16   2    3.97    0.38
   8  16  -2    1.27    0.26
  -8 -16   2    0.77    0.22
  -6 -16   2    0.05    0.14
  -4 -16   2    0.09    0.12
  -2 -16   2    1.11    0.22
  -2 -16   2    1.66    0.17
   0 -16   2    0.07    0.12
   0 -16   2    0.11    0.09
   2 -16   2    1.56    0.25
   2 -16   2    1.39    0.18
   4 -16   2   -0.06    0.09
   4 -16   2   -0.04    0.11
   6 -16   2    0.12    0.12
   6 -16   2    0.02    0.10
   8 -16   2    1.39    0.24
   8 -16   2    1.48    0.22
  10 -16   2    3.40    0.33
  10 -16   2    3.19    0.31
  12 -16   2    1.38    0.25
  12 -16   2    1.44    0.24
  14 -16   2    0.11    0.17
  14 -16   2    0.22    0.16
  16 -16   2    2.18    0.30
  16 -16   2    1.47    0.31
  18 -16   2    0.10    0.17
  18 -16   2    0.15    0.19
  20 -16   2    0.96    0.30
  22 -16   2    0.14    0.24
  24 -16   2    0.73    0.34
  26 -16   2    0.20    0.27
  28 -16   2    0.37    0.34
  30 -16   2    0.12    0.35
  26  14  -2    7.53    0.65
  24  14  -2    0.38    0.26
  22  14  -2    8.17    0.60
  20  14  -2    2.37    0.33
  20  14  -2    1.99    0.33
  20  14  -2    2.16    0.31
 -20 -14   2    1.88    0.31
  18  14  -2   16.10    0.72
  18  14  -2   16.39    0.80
  18  14  -2   14.67    0.71
 -18 -14   2   16.19    0.77
  16  14  -2    0.16    0.14
  16  14  -2   -0.12    0.16
 -16 -14   2   -0.07    0.14
  14  14  -2   23.99    0.94
 -14 -14   2   23.50    0.90
  12  14  -2    6.84    0.49
 -12 -14   2    7.14    0.48
  10  14  -2   14.99    0.70
 -10 -14   2   13.63    0.64
   8  14  -2    0.18    0.14
  -8 -14   2    0.23    0.14
   6  14  -2   15.46    0.69
  -6 -14   2   17.65    0.70
  -4 -14   2   14.27    0.61
  -2 -14   2   25.49    0.85
  -2 -14   2   26.57    0.68
   0 -14   2    6.19    0.30
   0 -14   2    6.16    0.40
   2 -14   2   27.19    0.87
   2 -14   2   27.47    0.73
   4 -14   2   13.97    0.51
   4 -14   2   14.00    0.59
   6 -14   2   16.32    0.59
   6 -14   2   17.01    0.65
   8 -14   2   -0.01    0.09
   8 -14   2    0.02    0.09
  10 -14   2   14.74    0.62
  10 -14   2   14.97    0.63
  12 -14   2    6.38    0.41
  12 -14   2    6.84    0.46
  14 -14   2   22.59    0.83
  14 -14   2   25.87    0.96
  16 -14   2    0.03    0.17
  16 -14   2    0.01    0.13
  18 -14   2   16.78    0.85
  18 -14   2   14.85    0.69
  20 -14   2    3.09    0.43
  22 -14   2    9.97    0.73
  24 -14   2    0.48    0.28
  26 -14   2    7.85    0.74
  28 -14   2    0.35    0.31
  30 -14   2    7.58    0.81
  32 -14   2   -0.10    0.31
  32  12  -2    0.62    0.40
  30  12  -2    0.12    0.32
  28  12  -2    0.67    0.33
  26  12  -2    0.42    0.28
  24  12  -2   -0.14    0.22
  22  12  -2    0.32    0.23
  20  12  -2    0.73    0.22
  20  12  -2    0.72    0.24
  20  12  -2    0.58    0.22
 -20 -12   2    0.85    0.24
  18  12  -2    1.71    0.27
  18  12  -2    2.11    0.30
  18  12  -2    1.82    0.27
 -18 -12   2    1.33    0.25
  16  12  -2    1.00    0.21
  16  12  -2    1.15    0.25
 -16 -12   2    0.91    0.22
  14  12  -2    6.62    0.47
  14  12  -2    7.47    0.43
 -14 -12   2    6.79    0.44
  12  12  -2    0.54    0.15
  12  12  -2    0.64    0.19
 -12 -12   2    0.76    0.19
  10  12  -2    4.22    0.35
 -10 -12   2    4.23    0.34
   8  12  -2    0.68    0.18
  -8 -12   2    0.23    0.13
   6  12  -2    1.87    0.24
  -6 -12   2    2.46    0.26
   4  12  -2    4.02    0.32
  -4 -12   2    3.24    0.28
  -2 -12   2    9.79    0.35
  -2 -12   2   10.42    0.49
   0 -12   2   -0.02    0.09
   0 -12   2    0.04    0.07
   2 -12   2    9.81    0.37
   2 -12   2   10.13    0.46
   4 -12   2    3.81    0.30
   4 -12   2    2.87    0.22
   6 -12   2    2.62    0.22
   6 -12   2    2.59    0.24
   8 -12   2    0.46    0.13
   8 -12   2    0.56    0.15
  10 -12   2    3.71    0.29
  10 -12   2    3.81    0.32
  12 -12   2    0.36    0.16
  12 -12   2    0.52    0.15
  14 -12   2    7.39    0.42
  14 -12   2    6.86    0.49
  16 -12   2    1.13    0.21
  16 -12   2    1.50    0.28
  18 -12   2    1.77    0.25
  18 -12   2    1.18    0.29
  20 -12   2    0.25    0.23
  22 -12   2   -0.02    0.20
  24 -12   2    0.13    0.25
  26 -12   2    0.66    0.33
  28 -12   2    0.13    0.28
  30 -12   2    0.29    0.30
  32 -12   2    0.13    0.31
  34  10  -2    3.01    0.59
  32  10  -2    0.18    0.35
  30  10  -2    6.73    0.70
  28  10  -2    0.23    0.31
  26  10  -2    5.75    0.57
  24  10  -2    0.54    0.28
  22  10  -2   12.29    0.72
  20  10  -2   -0.04    0.15
  20  10  -2   -0.16    0.15
 -20 -10   2    0.16    0.16
  18  10  -2   14.29    0.67
  18  10  -2   13.30    0.66
  18  10  -2   12.91    0.61
 -18 -10   2   13.59    0.64
  16  10  -2    4.11    0.36
  16  10  -2    3.89    0.32
  16  10  -2    4.49    0.38
 -16 -10   2    3.81    0.34
  14  10  -2   14.19    0.60
  14  10  -2   14.57    0.64
 -14 -10   2   15.13    0.63
  12  10  -2    3.77    0.29
  12  10  -2    3.78    0.32
 -12 -10   2    3.20    0.29
  10  10  -2   19.75    0.62
  10  10  -2   18.85    0.70
 -10 -10   2   19.80    0.68
   8  10  -2   11.02    0.49
   8  10  -2    9.99    0.39
  -8 -10   2   11.15    0.48
   6  10  -2   36.84    1.01
  -6 -10   2   36.57    0.97
   4  10  -2    2.44    0.23
  -4 -10   2    2.11    0.21
   2  10  -2   37.30    0.99
   0 -10   2   25.35    0.73
   0 -10   2   25.28    0.59
   2 -10   2   39.70    0.86
   2 -10   2   37.89    0.96
   4 -10   2    2.45    0.18
   4 -10   2    1.94    0.20
   6 -10   2   38.17    0.94
   6 -10   2   34.57    0.89
   8 -10   2   10.97    0.47
   8 -10   2   11.45    0.46
  10 -10   2   19.10    0.68
  10 -10   2   19.55    0.65
  12 -10   2    3.67    0.33
  12 -10   2    4.23    0.30
  14 -10   2   15.30    0.70
  14 -10   2   14.89    0.59
  16 -10   2    3.62    0.30
  16 -10   2    3.52    0.38
  18 -10   2   12.49    0.59
  18 -10   2   13.90    0.74
  20 -10   2   -0.12    0.17
  22 -10   2   12.81    0.80
  24 -10   2    0.66    0.29
  26 -10   2    5.76    0.63
  28 -10   2    0.45    0.30
  30 -10   2    6.44    0.73
  32 -10   2   -0.03    0.29
  34   8  -2   -0.09    0.36
  32   8  -2    0.19    0.34
  30   8  -2   -0.10    0.25
  28   8  -2    0.10    0.29
  26   8  -2    0.23    0.24
  24   8  -2    1.77    0.37
  22   8  -2    0.62    0.25
  20   8  -2    0.59    0.23
  20   8  -2    1.14    0.23
 -20  -8   2    0.84    0.20
  18   8  -2   -0.01    0.14
  18   8  -2    0.01    0.12
 -18  -8   2   -0.10    0.11
  16   8  -2    1.75    0.22
  16   8  -2    1.13    0.22
  16   8  -2    1.27    0.22
 -16  -8   2    1.56    0.22
  14   8  -2    0.10    0.11
  14   8  -2   -0.07    0.08
  14   8  -2    0.14    0.12
 -14  -8   2   -0.05    0.09
  12   8  -2    0.35    0.14
  12   8  -2    0.55    0.14
 -12  -8   2    0.47    0.14
  10   8  -2   11.34    0.48
  10   8  -2   10.83    0.43
 -10  -8   2   10.54    0.45
   8   8  -2    0.16    0.07
   8   8  -2    0.29    0.10
  -8  -8   2    0.15    0.09
   6   8  -2    0.68    0.13
   6   8  -2    0.51    0.09
  -6  -8   2    0.43    0.11
   4   8  -2    0.53    0.12
  -4  -8   2    0.61    0.12
   2   8  -2    0.59    0.12
  -2  -8   2    0.44    0.11
   0   8  -2    0.00    0.08
   0  -8   2    0.05    0.08
   2  -8   2    0.46    0.08
   2  -8   2    0.56    0.11
   4  -8   2    0.37    0.08
   4  -8   2    0.48    0.10
   6  -8   2    0.56    0.11
   6  -8   2    0.62    0.12
   8  -8   2    0.04    0.08
   8  -8   2    0.12    0.07
  10  -8   2   11.79    0.52
  10  -8   2   11.32    0.46
  12  -8   2    0.40    0.12
  12  -8   2    0.19    0.13
  14  -8   2    0.16    0.13
  14  -8   2   -0.03    0.08
  16  -8   2    1.26    0.20
  16  -8   2    1.13    0.25
  18  -8   2   -0.03    0.14
  18  -8   2    0.03    0.12
  20  -8   2    0.59    0.19
  20  -8   2    0.88    0.27
  22  -8   2    0.68    0.28
  24  -8   2    1.71    0.39
  26  -8   2    0.26    0.26
  28  -8   2   -0.04    0.27
  30  -8   2   -0.11    0.26
  32  -8   2    0.09    0.28
  34  -8   2    0.56    0.37
  34   6  -2    3.54    0.60
  32   6  -2   -0.22    0.29
  30   6  -2    5.20    0.62
  28   6  -2   -0.15    0.24
  26   6  -2    3.04    0.46
  24   6  -2    0.55    0.33
  22   6  -2   17.00    0.85
  20   6  -2    0.35    0.18
  20   6  -2    0.50    0.23
 -20  -6   2    0.93    0.19
  18   6  -2   14.18    0.68
  18   6  -2   14.98    0.64
 -18  -6   2   14.01    0.59
  16   6  -2    0.00    0.14
  16   6  -2    0.19    0.13
 -16  -6   2    0.17    0.12
  14   6  -2   16.10    0.56
  14   6  -2   15.48    0.60
  14   6  -2   16.92    0.65
 -14  -6   2   17.13    0.59
  12   6  -2    2.22    0.22
  12   6  -2    2.69    0.21
  12   6  -2    2.19    0.22
 -12  -6   2    2.09    0.20
  10   6  -2   37.03    0.96
  10   6  -2   36.01    0.93
 -10  -6   2   38.09    0.91
   8   6  -2    0.70    0.12
   8   6  -2    0.48    0.11
  -8  -6   2    0.55    0.11
   6   6  -2   41.69    0.88
   6   6  -2   41.73    0.98
  -6  -6   2   41.15    0.92
   4   6  -2    1.60    0.16
  -4  -6   2    2.07    0.17
   2   6  -2   27.90    0.71
  -2  -6   2   29.93    0.70
   0   6  -2   17.16    0.50
   0  -6   2   18.00    0.49
   4  -6   2    2.00    0.15
   4  -6   2    1.70    0.15
   6  -6   2   41.34    0.94
   8  -6   2    0.62    0.13
   8  -6   2    0.53    0.10
  10  -6   2   38.00    0.91
  10  -6   2   36.84    1.00
  12  -6   2    2.18    0.20
  12  -6   2    1.62    0.22
  14  -6   2   16.05    0.58
  14  -6   2   16.27    0.68
  16  -6   2    0.17    0.12
  16  -6   2    0.26    0.16
  18  -6   2   14.85    0.60
  18  -6   2   15.03    0.74
  20  -6   2    0.97    0.27
  20  -6   2    0.64    0.18
  22  -6   2   16.76    0.89
  24  -6   2    0.68    0.30
  26  -6   2    4.38    0.54
  28  -6   2    0.08    0.25
  30  -6   2    5.13    0.64
  32  -6   2    0.64    0.36
  34  -6   2    3.07    0.60
  34   4  -2    0.03    0.30
  32   4  -2   -0.02    0.32
  30   4  -2   -0.05    0.25
  28   4  -2    0.36    0.31
  26   4  -2    0.47    0.29
  24   4  -2    0.27    0.27
  22   4  -2    0.09    0.20
  20   4  -2    0.35    0.17
  20   4  -2   -0.02    0.17
  18   4  -2    3.16    0.35
  18   4  -2    3.00    0.28
 -18  -4   2    3.26    0.27
  16   4  -2    0.04    0.10
  16   4  -2    0.03    0.13
 -16  -4   2    0.30    0.11
  14   4  -2   12.41    0.57
  14   4  -2   13.24    0.52
 -14  -4   2   13.64    0.48
  12   4  -2    2.90    0.26
  12   4  -2    3.35    0.23
  12   4  -2    3.20    0.25
 -12  -4   2    3.12    0.22
  10   4  -2    2.09    0.20
  10   4  -2    2.28    0.17
  10   4  -2    2.16    0.19
 -10  -4   2    2.54    0.19
   8   4  -2    0.37    0.10
   8   4  -2    0.48    0.11
  -8  -4   2    0.61    0.10
   6   4  -2    1.73    0.15
   6   4  -2    2.02    0.16
  -6  -4   2    1.92    0.15
   4   4  -2    0.87    0.11
  -4  -4   2    0.73    0.10
   2   4  -2   17.93    0.47
  -2  -4   2   18.47    0.45
   0  -4   2    0.20    0.06
   2  -4   2   18.31    0.45
   4  -4   2    0.76    0.09
   4  -4   2    1.02    0.11
   6  -4   2    1.81    0.14
   6  -4   2    1.89    0.16
   8  -4   2    0.55    0.10
   8  -4   2    0.60    0.12
  10  -4   2    2.43    0.19
  10  -4   2    2.37    0.23
  12  -4   2    2.43    0.26
  12  -4   2    2.65    0.21
  14  -4   2   14.06    0.53
  14  -4   2   14.63    0.64
  16  -4   2    0.25    0.16
  16  -4   2    0.17    0.11
  18  -4   2    2.71    0.27
  18  -4   2    2.45    0.33
  20  -4   2    0.27    0.20
  20  -4   2    0.58    0.18
  22  -4   2    0.14    0.18
  24  -4   2    0.36    0.26
  26  -4   2    0.66    0.28
  28  -4   2   -0.09    0.23
  30  -4   2    0.13    0.28
  32  -4   2    0.33    0.30
  34  -4   2    0.07    0.33
  34   2  -2    6.85    0.78
  32   2  -2   -0.32    0.27
  30   2  -2    8.83    0.78
  28   2  -2    0.15    0.28
  26   2  -2    8.01    0.69
  24   2  -2    0.32    0.24
  22   2  -2   18.28    0.90
  20   2  -2    0.76    0.25
  18   2  -2   22.77    0.77
  18   2  -2   23.99    0.92
 -18  -2   2   23.15    0.71
  16   2  -2    1.49    0.20
  16   2  -2    1.51    0.25
 -16  -2   2    1.63    0.19
  14   2  -2   27.96    0.79
  14   2  -2   26.11    0.88
 -14  -2   2   26.45    0.70
  12   2  -2   10.54    0.43
  12   2  -2   10.66    0.49
 -12  -2   2   10.23    0.37
  10   2  -2   40.34    0.95
  10   2  -2   39.48    1.00
 -10  -2   2   39.07    0.84
   8   2  -2    0.62    0.11
   8   2  -2    0.50    0.10
   8   2  -2    0.47    0.08
  -8  -2   2    0.58    0.08
   6   2  -2   28.36    0.67
   6   2  -2   28.06    0.67
  -6  -2   2   28.54    0.59
  -4  -2   2   18.51    0.40
  -2  -2   2   80.54    1.39
   0  -2   2   14.75    0.33
   4  -2   2   18.14    0.44
   6  -2   2   29.25    0.66
   6  -2   2   28.11    0.70
   8  -2   2    0.63    0.10
   8  -2   2    0.60    0.12
  10  -2   2   39.09    1.02
  10  -2   2   40.12    0.92
  12  -2   2   11.42    0.44
  12  -2   2   11.19    0.52
  14  -2   2   27.33    0.92
  14  -2   2   29.49    0.70
  14  -2   2   28.07    0.80
  16  -2   2    1.84    0.21
  16  -2   2    2.12    0.29
  18  -2   2   23.06    0.76
  18  -2   2   21.66    0.89
 -20   2  -2    0.83    0.19
  20  -2   2    1.44    0.31
  22  -2   2   16.50    0.84
  24  -2   2    0.61    0.29
  26  -2   2    6.82    0.63
  28  -2   2    0.56    0.36
  30  -2   2   10.20    0.83
  32  -2   2    0.22    0.34
  34  -2   2    5.38    0.72
  34   0  -2   -0.21    0.30
  32   0  -2   -0.22    0.30
  30   0  -2    0.44    0.32
  28   0  -2   -0.04    0.22
  26   0  -2    0.33    0.26
  24   0  -2   -0.03    0.21
  22   0  -2    3.69    0.44
  20   0  -2   -0.14    0.14
  18   0  -2    0.13    0.12
  18   0  -2   -0.04    0.15
 -18   0   2    0.06    0.09
  16   0  -2   -0.03    0.08
  16   0  -2    0.10    0.14
 -16   0   2   -0.04    0.08
  14   0  -2    5.40    0.38
  14   0  -2    6.69    0.35
 -14   0   2    6.19    0.28
  12   0  -2   -0.04    0.07
  12   0  -2    0.12    0.11
 -12   0   2    0.07    0.07
  10   0  -2   23.40    0.71
  10   0  -2   24.75    0.66
 -10   0   2   24.09    0.55
   8   0  -2    0.17    0.09
  -8   0   2    0.08    0.05
   6   0  -2   17.31    0.49
  -6   0   2   17.89    0.37
   0   0   2    0.69    0.04
   4   0   2    0.19    0.05
   6   0   2   17.51    0.46
   8   0   2    0.12    0.08
   8   0   2    0.09    0.06
  10   0   2   24.80    0.75
  10   0   2   25.95    0.68
  12   0   2    0.02    0.06
  12   0   2    0.02    0.08
  12   0   2    0.06    0.10
 -14   0  -2    5.77    0.30
  14   0   2    5.53    0.25
  14   0   2    5.12    0.37
  14   0   2    5.59    0.32
 -16   0  -2    0.14    0.11
  16   0   2   -0.21    0.11
  16   0   2    0.03    0.08
 -18   0  -2    0.32    0.13
  18   0   2    0.22    0.16
 -20   0  -2    0.03    0.12
  20   0   2   -0.18    0.13
  22   0   2    5.06    0.52
  24   0   2    0.15    0.24
  26   0   2   -0.12    0.20
  28   0   2    0.19    0.27
  30   0   2    0.57    0.32
  32   0   2   -0.03    0.32
  34   0   2   -0.09    0.35
  34  -2  -2    6.19    0.76
  32  -2  -2   -0.23    0.30
  30  -2  -2    9.36    0.82
  28  -2  -2    0.34    0.32
  26  -2  -2    7.65    0.66
  24  -2  -2    0.27    0.29
  22  -2  -2   18.84    0.93
  20  -2  -2    1.18    0.27
  18  -2  -2   22.41    0.75
  18  -2  -2   22.15    0.90
  16  -2  -2    1.62    0.19
  16  -2  -2    1.26    0.24
 -16   2   2    1.42    0.16
  14  -2  -2   27.15    0.90
  14  -2  -2   28.36    0.69
  12  -2  -2   10.62    0.50
  12  -2  -2   10.58    0.35
  10  -2  -2   40.98    1.04
  10  -2  -2   40.80    0.83
   8  -2  -2    0.48    0.11
   8  -2  -2    0.49    0.07
   6  -2  -2   29.25    0.71
   6  -2  -2   28.56    0.56
   4  -2  -2   17.85    0.35
   4  -2  -2   18.33    0.47
   2  -2  -2   77.44    1.33
   0  -2  -2   15.88    0.34
   2   2   2   75.01    1.32
  -4  -2  -2   17.90    0.44
   4   2   2   18.03    0.46
  -6  -2  -2   27.79    0.66
   6   2   2   29.15    0.70
  -8  -2  -2    0.47    0.09
   8   2   2    0.49    0.11
 -10  -2  -2   37.72    0.90
  10   2   2   37.06    0.97
  10   2   2   38.74    0.81
 -12  -2  -2    9.70    0.41
  12   2   2   10.66    0.35
  12   2   2   10.31    0.48
 -14  -2  -2   26.80    0.77
  14   2   2   28.13    0.69
  14   2   2   24.95    0.86
 -16  -2  -2    1.72    0.21
  16   2   2    1.26    0.16
  16   2   2    1.16    0.24
 -18  -2  -2   22.26    0.75
  18   2   2   21.91    0.88
 -20  -2  -2    0.75    0.19
  20   2   2    1.33    0.28
 -22  -2  -2   18.99    0.76
  22   2   2   19.81    0.94
  24   2   2    0.31    0.28
  26   2   2    7.51    0.64
  28   2   2   -0.02    0.28
  30   2   2    8.40    0.76
  32   2   2    0.21    0.33
  34   2   2    5.92    0.75
  34  -4  -2    0.64    0.40
  32  -4  -2    0.73    0.43
  30  -4  -2   -0.04    0.27
  28  -4  -2    0.20    0.30
  26  -4  -2    0.60    0.32
  24  -4  -2    0.44    0.29
  22  -4  -2   -0.04    0.19
  20  -4  -2    0.63    0.26
  18  -4  -2    2.45    0.33
  16  -4  -2    0.17    0.09
  16  -4  -2    0.22    0.15
  14  -4  -2   14.33    0.64
  14  -4  -2   13.61    0.45
  12  -4  -2    3.22    0.19
  12  -4  -2    2.67    0.27
  10  -4  -2    2.36    0.15
  10  -4  -2    2.38    0.22
   8  -4  -2    0.38    0.06
   8  -4  -2    0.43    0.11
   6  -4  -2    1.75    0.11
   6  -4  -2    2.04    0.18
   4  -4  -2    0.88    0.11
   4  -4  -2    0.90    0.08
   2  -4  -2   18.79    0.47
   2  -4  -2   17.98    0.42
   0  -4  -2    0.29    0.05
  -2  -4  -2   18.34    0.46
  -4  -4  -2    0.89    0.11
  -6  -4  -2    1.65    0.15
   6   4   2    1.56    0.15
   6   4   2    1.70    0.15
   6   4   2    1.99    0.14
  -8  -4  -2    0.29    0.09
   8   4   2    0.37    0.10
   8   4   2    0.35    0.10
   8   4   2    0.58    0.09
 -10  -4  -2    1.97    0.18
  10   4   2    2.50    0.18
  10   4   2    2.15    0.21
 -12  -4  -2    2.61    0.23
  12   4   2    3.02    0.27
  12   4   2    3.14    0.22
 -14  -4  -2   12.87    0.52
  14   4   2   13.68    0.47
  14   4   2   13.41    0.60
 -16  -4  -2    0.04    0.10
  16   4   2    0.03    0.09
  16   4   2   -0.02    0.13
 -18  -4  -2    2.71    0.27
  18   4   2    2.58    0.32
 -20  -4  -2    0.26    0.16
  20   4   2    0.71    0.23
 -22  -4  -2   -0.05    0.15
  22   4   2   -0.12    0.17
  24   4   2    0.75    0.29
  26   4   2    0.59    0.29
  28   4   2   -0.09    0.23
  30   4   2    0.12    0.26
  32   4   2    0.23    0.34
  34   4   2    0.65    0.43
  34  -6  -2    2.80    0.60
  32  -6  -2    0.30    0.37
  30  -6  -2    4.66    0.63
  28  -6  -2    0.37    0.32
  26  -6  -2    4.47    0.56
  24  -6  -2    0.43    0.25
  22  -6  -2   17.06    0.90
  20  -6  -2    0.70    0.26
  18  -6  -2   14.21    0.73
  16  -6  -2    0.05    0.08
  16  -6  -2    0.15    0.15
  14  -6  -2   16.33    0.70
  14  -6  -2   15.92    0.50
  12  -6  -2    2.32    0.18
  12  -6  -2    1.76    0.23
  10  -6  -2   36.13    0.99
  10  -6  -2   36.58    0.80
   8  -6  -2    0.45    0.08
   8  -6  -2    0.52    0.12
   6  -6  -2   41.92    1.00
   6  -6  -2   43.99    0.88
   4  -6  -2    1.61    0.13
   4  -6  -2    1.84    0.16
   2  -6  -2   28.48    0.68
   2  -6  -2   28.84    0.66
   0  -6  -2   16.47    0.46
  -4  -6  -2    1.86    0.16
   6   6   2   41.26    0.94
  -8  -6  -2    0.48    0.12
   8   6   2    0.50    0.10
   8   6   2    0.55    0.12
   8   6   2    0.53    0.11
 -10  -6  -2   36.30    0.92
  10   6   2   35.77    0.91
  10   6   2   34.83    0.87
  10   6   2   34.90    0.94
 -12  -6  -2    2.27    0.22
  12   6   2    2.20    0.23
  12   6   2    2.33    0.22
  12   6   2    2.29    0.20
 -14  -6  -2   14.59    0.59
  14   6   2   16.30    0.65
  14   6   2   15.59    0.54
 -16  -6  -2    0.04    0.11
  16   6   2    0.03    0.12
  16   6   2    0.08    0.09
 -18  -6  -2   14.77    0.64
  18   6   2   15.47    0.72
 -20  -6  -2    0.69    0.20
  20   6   2    0.37    0.20
 -22  -6  -2   16.41    0.74
  22   6   2   16.43    0.85
  24   6   2    0.57    0.29
  26   6   2    3.39    0.48
  28   6   2   -0.03    0.26
  30   6   2    4.23    0.58
  32   6   2    0.00    0.33
  34   6   2    4.62    0.67
  34  -8  -2    0.15    0.35
  32  -8  -2    0.53    0.34
  30  -8  -2   -0.02    0.24
  28  -8  -2    0.08    0.26
  26  -8  -2    0.42    0.26
  24  -8  -2    1.56    0.39
  22  -8  -2    0.71    0.27
  20  -8  -2    0.67    0.25
  18  -8  -2    0.24    0.17
  16  -8  -2    1.38    0.18
  16  -8  -2    1.90    0.30
  14  -8  -2    0.01    0.07
  14  -8  -2    0.05    0.12
  12  -8  -2    0.50    0.16
  12  -8  -2    0.41    0.10
  10  -8  -2   11.40    0.39
  10  -8  -2   10.92    0.51
   8  -8  -2    0.15    0.10
   8  -8  -2    0.04    0.06
   6  -8  -2    0.47    0.10
   6  -8  -2    0.48    0.12
   4  -8  -2    0.30    0.09
   4  -8  -2    0.36    0.10
   2  -8  -2    0.52    0.10
   2  -8  -2    0.36    0.10
   0  -8  -2    0.07    0.07
   0  -8  -2    0.21    0.08
  -2  -8  -2    0.77    0.13
  -4  -8  -2    0.49    0.11
  -6  -8  -2    0.50    0.12
  -8  -8  -2    0.19    0.10
   8   8   2    0.14    0.08
 -10  -8  -2   10.48    0.47
  10   8   2   11.19    0.47
  10   8   2   10.89    0.46
  10   8   2    9.96    0.44
 -12  -8  -2    0.53    0.15
  12   8   2    0.66    0.14
  12   8   2    0.15    0.10
  12   8   2    0.24    0.13
 -14  -8  -2   -0.02    0.09
  14   8   2    0.11    0.11
  14   8   2   -0.06    0.09
  14   8   2    0.15    0.11
 -16  -8  -2    1.75    0.24
  16   8   2    1.09    0.22
  16   8   2    1.34    0.21
 -18  -8  -2   -0.01    0.13
  18   8   2    0.08    0.13
 -20  -8  -2    1.00    0.23
  20   8   2    0.88    0.25
 -22  -8  -2    0.85    0.23
  22   8   2    0.29    0.22
  24   8   2    1.24    0.33
  26   8   2    0.24    0.25
  28   8   2    0.13    0.28
  30   8   2    0.10    0.29
  32   8   2    0.03    0.32
  34   8   2   -0.05    0.34
  32 -10  -2   -0.18    0.26
  30 -10  -2    5.60    0.69
  28 -10  -2   -0.13    0.25
  26 -10  -2    5.25    0.60
  24 -10  -2    1.43    0.38
  22 -10  -2   12.47    0.78
  20 -10  -2    0.07    0.20
  18 -10  -2   13.33    0.75
  16 -10  -2    3.76    0.39
  16 -10  -2    3.92    0.28
  14 -10  -2   15.51    0.54
  14 -10  -2   15.33    0.70
  12 -10  -2    3.14    0.31
  12 -10  -2    3.96    0.26
  10 -10  -2   19.52    0.59
  10 -10  -2   18.86    0.70
   8 -10  -2   10.88    0.42
   8 -10  -2   11.45    0.50
   6 -10  -2   37.07    0.90
   6 -10  -2   36.48    0.97
   4 -10  -2    2.11    0.19
   4 -10  -2    2.37    0.21
   2 -10  -2   39.80    0.96
   2 -10  -2   37.95    0.93
   0 -10  -2   23.56    0.69
   0 -10  -2   23.70    0.65
  -2 -10  -2   38.45    0.97
  -4 -10  -2    2.20    0.21
  -6 -10  -2   37.88    1.00
  -8 -10  -2   11.06    0.50
 -10 -10  -2   20.75    0.73
 -12 -10  -2    3.68    0.31
  12  10   2    3.55    0.30
  12  10   2    3.89    0.32
  12  10   2    3.54    0.29
 -14 -10  -2   15.81    0.66
  14  10   2   14.05    0.62
  14  10   2   14.73    0.60
  14  10   2   14.70    0.63
 -16 -10  -2    3.81    0.35
  16  10   2    3.22    0.30
  16  10   2    3.59    0.33
  16  10   2    4.18    0.37
 -18 -10  -2   12.35    0.63
  18  10   2   13.73    0.69
  18  10   2   13.47    0.62
 -20 -10  -2   -0.05    0.14
  20  10   2   -0.06    0.16
 -22 -10  -2   11.52    0.65
  22  10   2   13.37    0.76
  24  10   2    0.77    0.30
  26  10   2    5.81    0.59
  28  10   2    0.00    0.29
  30  10   2    6.15    0.68
  32  10   2    0.21    0.33
  34  10   2    2.99    0.58
  32 -12  -2    0.55    0.38
  30 -12  -2    0.22    0.30
  28 -12  -2    0.55    0.33
  26 -12  -2    0.74    0.32
  24 -12  -2    0.39    0.29
  22 -12  -2    0.08    0.22
  20 -12  -2    0.61    0.26
  18 -12  -2    1.59    0.31
  16 -12  -2    1.38    0.28
  16 -12  -2    1.26    0.19
  14 -12  -2    7.38    0.39
  14 -12  -2    7.43    0.51
  12 -12  -2    0.58    0.18
  12 -12  -2    0.66    0.14
  10 -12  -2    3.62    0.32
  10 -12  -2    3.55    0.27
   8 -12  -2    0.41    0.12
   8 -12  -2    0.37    0.14
   6 -12  -2    2.06    0.21
   6 -12  -2    2.75    0.25
   4 -12  -2    3.17    0.25
   4 -12  -2    2.73    0.24
   2 -12  -2   10.18    0.43
   2 -12  -2    9.80    0.45
   0 -12  -2   -0.03    0.09
   0 -12  -2    0.05    0.08
  -2 -12  -2   10.94    0.49
  -4 -12  -2    2.69    0.26
  -6 -12  -2    2.04    0.25
  -8 -12  -2    0.38    0.14
 -10 -12  -2    3.79    0.33
 -12 -12  -2    0.77    0.20
 -14 -12  -2    7.92    0.49
  14  12   2    7.08    0.46
 -16 -12  -2    1.69    0.28
  16  12   2    1.52    0.25
  16  12   2    1.41    0.24
  16  12   2    1.27    0.24
 -18 -12  -2    1.53    0.28
  18  12   2    1.28    0.26
  18  12   2    1.54    0.27
  18  12   2    2.07    0.29
 -20 -12  -2    0.78    0.25
  20  12   2    0.90    0.26
 -22 -12  -2    0.25    0.20
  22  12   2    0.04    0.20
 -24 -12  -2   -0.17    0.17
  24  12   2   -0.21    0.17
  26  12   2    0.44    0.31
  28  12   2    0.29    0.30
  30  12   2    0.00    0.30
  32  12   2    0.34    0.35
  34  12   2   -0.23    0.35
  32 -14  -2    0.82    0.43
  30 -14  -2    6.96    0.78
  28 -14  -2    0.42    0.33
  26 -14  -2    8.96    0.79
  24 -14  -2    0.39    0.27
  22 -14  -2    8.76    0.71
  20 -14  -2    2.02    0.37
  18 -14  -2   17.58    0.89
  16 -14  -2   -0.16    0.13
  14 -14  -2   22.25    0.75
  14 -14  -2   23.76    0.93
  12 -14  -2    7.01    0.40
  12 -14  -2    7.43    0.49
  10 -14  -2   16.04    0.69
  10 -14  -2   15.11    0.60
   8 -14  -2   -0.06    0.09
   8 -14  -2    0.11    0.11
   6 -14  -2   15.88    0.62
   6 -14  -2   15.42    0.60
   4 -14  -2   12.91    0.55
   4 -14  -2   12.87    0.53
   2 -14  -2   26.22    0.84
   2 -14  -2   27.06    0.80
   0 -14  -2    5.73    0.33
   0 -14  -2    6.12    0.38
  -2 -14  -2   25.87    0.84
  -4 -14  -2   13.15    0.59
  -6 -14  -2   17.03    0.69
  -8 -14  -2    0.16    0.12
 -10 -14  -2   14.73    0.68
 -12 -14  -2    7.89    0.50
 -14 -14  -2   23.87    0.93
  14  14   2   24.59    0.92
 -16 -14  -2   -0.09    0.14
  16  14   2   -0.01    0.12
 -18 -14  -2   17.01    0.81
  18  14   2   15.97    0.77
 -20 -14  -2    2.28    0.34
  20  14   2    2.30    0.35
  20  14   2    2.94    0.37
 -22 -14  -2    7.79    0.59
  22  14   2    6.30    0.54
 -24 -14  -2    0.38    0.24
  24  14   2   -0.20    0.20
  26  14   2    7.80    0.67
  28  14   2    0.09    0.30
  30  14   2    6.17    0.69
  32  14   2   -0.08    0.31
  30 -16  -2    0.30    0.32
  28 -16  -2    0.41    0.37
  26 -16  -2    0.01    0.27
  24 -16  -2    0.78    0.34
  22 -16  -2    0.30    0.27
  20 -16  -2    1.24    0.34
  18 -16  -2    0.30    0.24
  16 -16  -2    1.54    0.31
  14 -16  -2    0.02    0.16
  14 -16  -2    0.08    0.12
  12 -16  -2    1.24    0.22
  12 -16  -2    1.22    0.26
  10 -16  -2    4.01    0.37
  10 -16  -2    4.08    0.33
   8 -16  -2    1.41    0.23
   8 -16  -2    1.43    0.23
   6 -16  -2    0.06    0.12
   6 -16  -2   -0.20    0.10
   4 -16  -2    0.11    0.13
   4 -16  -2   -0.11    0.09
   2 -16  -2    0.98    0.20
   2 -16  -2    1.69    0.21
   0 -16  -2    0.06    0.13
   0 -16  -2   -0.09    0.09
  -2 -16  -2    1.42    0.19
  -2 -16  -2    1.05    0.22
  -4 -16  -2    0.24    0.13
  -6 -16  -2    0.12    0.14
  -8 -16  -2    1.75    0.28
 -10 -16  -2    3.74    0.38
 -12 -16  -2    1.71    0.28
 -14 -16  -2   -0.15    0.13
 -16 -16  -2    1.34    0.29
  16  16   2    1.60    0.30
 -18 -16  -2    0.23    0.19
  18  16   2    0.22    0.19
 -20 -16  -2    0.81    0.29
  20  16   2    1.29    0.30
 -22 -16  -2   -0.07    0.19
 -24 -16  -2    0.85    0.30
  30 -18  -2    3.10    0.63
  28 -18  -2   -0.02    0.30
  26 -18  -2    3.91    0.58
  24 -18  -2    0.28    0.27
  22 -18  -2    4.99    0.58
  20 -18  -2   -0.07    0.20
  18 -18  -2    9.14    0.68
  16 -18  -2    0.02    0.20
  14 -18  -2   15.75    0.81
  14 -18  -2   17.04    0.71
  12 -18  -2    1.77    0.30
  12 -18  -2    1.81    0.27
  10 -18  -2   12.93    0.61
  10 -18  -2   12.43    0.65
   8 -18  -2    0.08    0.14
   8 -18  -2    0.18    0.14
   6 -18  -2   15.39    0.67
   6 -18  -2   13.54    0.63
   4 -18  -2    2.57    0.30
   4 -18  -2    2.63    0.28
   2 -18  -2   21.51    0.83
   2 -18  -2   22.65    0.77
   0 -18  -2    0.51    0.19
   0 -18  -2    0.22    0.14
  -2 -18  -2   22.25    0.76
  -2 -18  -2   21.83    0.87
  -4 -18  -2    2.59    0.33
  -6 -18  -2   13.46    0.68
  -8 -18  -2   -0.02    0.14
 -10 -18  -2   12.96    0.70
 -12 -18  -2    1.90    0.33
 -14 -18  -2   15.27    0.80
 -16 -18  -2    0.23    0.19
  16  18   2    0.22    0.18
 -18 -18  -2    9.62    0.68
  18  18   2   11.40    0.71
 -20 -18  -2    0.06    0.18
  20  18   2   -0.02    0.19
 -22 -18  -2    4.46    0.51
  22  18   2    4.28    0.50
 -24 -18  -2   -0.08    0.22
  28 -20  -2    0.29    0.37
  26 -20  -2    0.20    0.31
  24 -20  -2    0.89    0.37
  22 -20  -2    0.08    0.25
  20 -20  -2    2.01    0.42
  18 -20  -2   -0.14    0.20
  16 -20  -2    1.30    0.33
  14 -20  -2    2.95    0.41
  14 -20  -2    1.79    0.29
  12 -20  -2    0.66    0.22
  12 -20  -2    0.62    0.23
  10 -20  -2   -0.15    0.14
  10 -20  -2   -0.01    0.16
   8 -20  -2    0.08    0.18
   8 -20  -2    0.72    0.21
   6 -20  -2    0.47    0.20
   6 -20  -2    0.68    0.20
   4 -20  -2    0.12    0.18
   4 -20  -2    0.52    0.18
   2 -20  -2    1.22    0.26
   2 -20  -2    1.25    0.22
   0 -20  -2    0.10    0.13
   0 -20  -2    0.09    0.17
  -2 -20  -2    1.28    0.21
  -2 -20  -2    1.48    0.29
  -4 -20  -2    0.78    0.24
  -4 -20  -2    0.56    0.17
  -6 -20  -2    0.70    0.25
  -8 -20  -2    0.89    0.26
 -10 -20  -2    0.00    0.17
 -12 -20  -2    0.88    0.27
 -14 -20  -2    2.57    0.40
 -16 -20  -2    1.41    0.33
 -18 -20  -2    0.26    0.24
  18  20   2    0.00    0.19
 -20 -20  -2    0.68    0.31
  20  20   2    1.10    0.32
 -22 -20  -2    0.49    0.28
  22  20   2   -0.06    0.19
 -24 -20  -2    1.52    0.39
  28 -22  -2   -0.46    0.33
  26 -22  -2    5.01    0.69
  24 -22  -2    0.25    0.34
  22 -22  -2    4.72    0.62
  20 -22  -2    0.38    0.28
  18 -22  -2    5.18    0.55
  16 -22  -2    0.24    0.23
  14 -22  -2    8.16    0.63
  12 -22  -2    0.04    0.20
  12 -22  -2    0.14    0.17
  10 -22  -2   11.88    0.68
  10 -22  -2   13.15    0.70
   8 -22  -2    0.83    0.23
   8 -22  -2    0.54    0.23
   6 -22  -2   14.84    0.71
   6 -22  -2   15.78    0.76
   4 -22  -2   -0.01    0.16
   4 -22  -2    0.03    0.13
   2 -22  -2   18.60    0.75
   2 -22  -2   17.39    0.83
   0 -22  -2    3.84    0.36
   0 -22  -2    3.85    0.42
  -2 -22  -2   20.37    0.93
  -4 -22  -2   -0.11    0.17
  -6 -22  -2   16.19    0.84
  -8 -22  -2    0.43    0.24
 -10 -22  -2   13.22    0.78
 -12 -22  -2    0.18    0.22
 -14 -22  -2    8.16    0.66
 -16 -22  -2    0.13    0.21
 -18 -22  -2    5.16    0.57
  18  22   2    4.11    0.49
 -20 -22  -2   -0.03    0.23
  20  22   2    0.17    0.23
 -22 -22  -2    4.73    0.59
  22  22   2    5.60    0.61
 -24 -22  -2    0.20    0.29
  24  22   2    0.15    0.27
  26 -24  -2    0.24    0.37
  24 -24  -2    0.50    0.39
  22 -24  -2    0.49    0.36
  20 -24  -2    0.97    0.38
  18 -24  -2   -0.11    0.23
  16 -24  -2    0.83    0.32
  14 -24  -2    0.35    0.25
  12 -24  -2    0.20    0.22
  12 -24  -2    0.20    0.23
  10 -24  -2    0.59    0.26
   8 -24  -2    1.22    0.30
   6 -24  -2    0.42    0.26
   4 -24  -2    0.17    0.22
   2 -24  -2    0.67    0.26
   0 -24  -2   -0.04    0.20
  -2 -24  -2    0.53    0.28
  -4 -24  -2    0.11    0.23
  -6 -24  -2    0.87    0.32
  -8 -24  -2    1.03    0.31
 -10 -24  -2    1.01    0.33
 -12 -24  -2    0.09    0.23
 -14 -24  -2    0.23    0.25
 -16 -24  -2    0.74    0.30
 -18 -24  -2   -0.12    0.21
  18  24   2   -0.15    0.22
 -20 -24  -2    0.88    0.36
  20  24   2    0.74    0.33
 -22 -24  -2   -0.27    0.24
  22  24   2    0.33    0.30
  24  24   2    0.06    0.28
  12 -26  -2    0.96    0.31
  10 -26  -2    5.76    0.53
   8 -26  -2    0.40    0.26
   6 -26  -2    3.07    0.44
   4 -26  -2    1.28    0.31
   2 -26  -2    6.42    0.57
   0 -26  -2    0.25    0.23
  -2 -26  -2    7.16    0.62
  -4 -26  -2    0.19    0.24
  -6 -26  -2    3.95    0.51
  -8 -26  -2    0.48    0.27
 -10 -26  -2    5.37    0.57
 -12 -26  -2    0.45    0.27
 -14 -26  -2    7.97    0.71
 -16 -26  -2    0.62    0.31
 -18 -26  -2    4.48    0.61
  18  26   2    3.96    0.55
  20  26   2    0.02    0.29
  10 -28  -2   -0.07    0.25
   8 -28  -2   -0.02    0.24
   6 -28  -2   -0.11    0.20
   4 -28  -2    0.17    0.24
   2 -28  -2    0.35    0.30
   0 -28  -2   -0.19    0.21
  -2 -28  -2    0.48    0.27
  -4 -28  -2   -0.19    0.21
  -6 -28  -2   -0.05    0.25
  -8 -28  -2    0.41    0.30
 -10 -28  -2   -0.06    0.25
 -12 -28  -2    0.22    0.29
 -14 -28  -2   -0.02    0.29
  10 -30  -2    7.07    0.66
   8 -30  -2    0.37    0.29
   6 -30  -2    4.12    0.53
   4 -30  -2    0.21    0.26
   2 -30  -2    7.18    0.65
   0 -30  -2    0.49    0.32
  -2 -30  -2    8.00    0.70
  -4 -30  -2    0.28    0.30
  -6 -30  -2    4.30    0.59
  -8 -30  -2    0.15    0.31
 -10 -30  -2    6.12    0.69
   8 -32  -2    0.15    0.31
   6 -32  -2   -0.27    0.26
   4 -32  -2   -0.04    0.28
   2 -32  -2   -0.24    0.27
   0 -32  -2    0.03    0.30
  -2 -32  -2   -0.06    0.30
  -7 -31   3   -0.05    0.24
  -5 -31   3    0.37    0.26
  -3 -31   3   -0.16    0.21
  -1 -31   3   -0.21    0.25
   1 -31   3    0.09    0.27
   3 -31   3   -0.05    0.25
   5 -31   3   -0.11    0.24
   7 -31   3   -0.06    0.27
   9 -31   3   -0.09    0.28
  11 -31   3    0.21    0.33
  13 -31   3   -0.18    0.31
 -13 -29   3    0.21    0.28
 -11 -29   3    0.10    0.24
  -9 -29   3    0.19    0.25
  -7 -29   3    0.00    0.22
  -5 -29   3    0.14    0.26
  -3 -29   3   -0.04    0.22
  -1 -29   3    0.07    0.25
   1 -29   3    0.02    0.22
   3 -29   3   -0.02    0.22
   5 -29   3    0.37    0.27
   7 -29   3    0.00    0.25
   9 -29   3    0.32    0.28
  11 -29   3   -0.37    0.23
  13 -29   3   -0.06    0.27
 -19 -27   3   -0.02    0.25
 -17 -27   3   -0.16    0.25
 -15 -27   3    0.00    0.24
 -13 -27   3   -0.25    0.19
 -11 -27   3   -0.14    0.18
  -9 -27   3   -0.02    0.18
  -7 -27   3   -0.07    0.19
  -5 -27   3    0.04    0.18
  -3 -27   3    0.16    0.26
  -1 -27   3   -0.01    0.21
   1 -27   3   -0.27    0.16
   3 -27   3    0.18    0.23
   5 -27   3   -0.04    0.18
   7 -27   3   -0.21    0.19
   9 -27   3    0.13    0.24
  11 -27   3    0.15    0.23
  13 -27   3   -0.09    0.22
  15 -27   3    0.37    0.31
  21  25  -3    0.01    0.27
 -21 -25   3    0.02    0.29
 -19 -25   3    0.28    0.28
 -17 -25   3   -0.01    0.24
 -15 -25   3   -0.03    0.23
 -13 -25   3    0.08    0.24
 -11 -25   3    0.15    0.23
  -9 -25   3    0.16    0.21
  -7 -25   3   -0.04    0.17
  -5 -25   3   -0.16    0.15
  -3 -25   3   -0.02    0.19
  -1 -25   3   -0.13    0.17
   1 -25   3    0.14    0.21
   3 -25   3   -0.07    0.19
   5 -25   3    0.15    0.21
   7 -25   3   -0.05    0.17
   9 -25   3    0.13    0.22
  11 -25   3    0.18    0.22
  13 -25   3    0.08    0.23
  15 -25   3    0.45    0.27
  21  23  -3    0.16    0.26
 -21 -23   3   -0.08    0.25
 -19 -23   3    0.26    0.25
 -17 -23   3    0.97    0.32
 -15 -23   3    0.26    0.23
 -13 -23   3    0.64    0.27
 -11 -23   3   -0.06    0.18
  -9 -23   3    0.31    0.22
  -7 -23   3   -0.17    0.16
  -5 -23   3    1.19    0.29
  -3 -23   3   -0.03    0.16
  -1 -23   3    1.87    0.34
   1 -23   3    1.23    0.30
   3 -23   3    0.05    0.19
   5 -23   3    0.89    0.27
   7 -23   3   -0.09    0.15
   9 -23   3    0.13    0.22
  11 -23   3   -0.34    0.17
  13 -23   3    0.55    0.26
  15 -23   3   -0.03    0.21
  21  21  -3   -0.29    0.18
 -21 -21   3   -0.02    0.22
 -19 -21   3    0.27    0.25
 -17 -21   3    0.03    0.19
 -15 -21   3    0.53    0.26
 -13 -21   3    0.21    0.21
 -11 -21   3    0.86    0.29
  -9 -21   3    0.14    0.21
  -7 -21   3   -0.08    0.14
  -5 -21   3   -0.06    0.15
  -3 -21   3    0.22    0.17
  -1 -21   3    0.07    0.18
   1 -21   3    0.43    0.20
   3 -21   3    0.12    0.17
   5 -21   3   -0.07    0.15
   7 -21   3    0.01    0.16
   9 -21   3    0.08    0.17
  11 -21   3    0.88    0.27
  13 -21   3   -0.05    0.15
  15 -21   3    0.41    0.23
  17 -21   3   -0.07    0.19
  19 -21   3    0.27    0.26
  21 -21   3    0.07    0.23
  23 -21   3   -0.07    0.25
  25 -21   3    0.19    0.33
  27 -21   3   -0.36    0.31
  29 -21   3    0.01    0.36
  21  19  -3    0.36    0.29
  21  19  -3    0.27    0.22
 -21 -19   3    0.15    0.24
  19  19  -3    0.19    0.23
 -19 -19   3    0.11    0.21
  17  19  -3    0.37    0.24
 -17 -19   3   -0.07    0.19
  15  19  -3   -0.17    0.16
 -15 -19   3   -0.22    0.15
  13  19  -3   -0.01    0.20
 -13 -19   3   -0.09    0.16
  11  19  -3    0.15    0.19
 -11 -19   3    0.38    0.20
  -9 -19   3    0.36    0.18
  -7 -19   3    0.29    0.18
  -5 -19   3    0.68    0.22
  -3 -19   3   -0.21    0.10
  -1 -19   3    1.26    0.25
   1 -19   3    1.30    0.25
   3 -19   3   -0.14    0.13
   5 -19   3    0.63    0.21
   7 -19   3    0.06    0.16
   9 -19   3    0.08    0.16
   9 -19   3    0.33    0.17
  11 -19   3    0.21    0.16
  11 -19   3    0.48    0.21
  13 -19   3    0.07    0.15
  13 -19   3    0.06    0.17
  15 -19   3   -0.06    0.17
  15 -19   3   -0.12    0.16
  17 -19   3    0.03    0.16
  17 -19   3    0.11    0.19
  19 -19   3    0.00    0.18
  21 -19   3    0.23    0.26
  23 -19   3    0.26    0.30
  25 -19   3   -0.19    0.28
  27 -19   3    0.15    0.33
  29 -19   3   -0.25    0.33
  21  17  -3   -0.03    0.19
  21  17  -3    0.12    0.19
 -21 -17   3   -0.06    0.18
  19  17  -3   -0.16    0.19
 -19 -17   3   -0.07    0.18
  17  17  -3   -0.16    0.15
 -17 -17   3   -0.27    0.14
  15  17  -3    0.14    0.21
 -15 -17   3    0.11    0.21
  13  17  -3    0.21    0.20
 -13 -17   3    0.06    0.17
  11  17  -3    0.66    0.25
 -11 -17   3    0.64    0.22
   9  17  -3    2.33    0.34
  -9 -17   3    2.24    0.32
   7  17  -3    1.44    0.29
  -7 -17   3    1.61    0.26
  -5 -17   3    1.64    0.26
  -3 -17   3    0.04    0.11
  -1 -17   3    0.37    0.15
   1 -17   3    0.30    0.11
   1 -17   3    0.69    0.19
   3 -17   3    0.00    0.09
   3 -17   3    0.04    0.13
   5 -17   3    2.52    0.29
   5 -17   3    2.28    0.24
   7 -17   3    1.52    0.21
   7 -17   3    1.39    0.24
   9 -17   3    2.02    0.26
   9 -17   3    2.60    0.31
  11 -17   3    0.76    0.21
  11 -17   3    0.75    0.22
  13 -17   3    0.48    0.20
  13 -17   3    0.31    0.18
  15 -17   3    0.43    0.23
  15 -17   3   -0.19    0.15
  17 -17   3   -0.18    0.15
  17 -17   3   -0.06    0.15
  19 -17   3    0.19    0.22
  21 -17   3    0.00    0.20
  23 -17   3    1.44    0.41
  25 -17   3    0.09    0.27
  27 -17   3   -0.04    0.27
  29 -17   3    0.11    0.33
  31 -17   3    0.36    0.42
  21  15  -3    0.19    0.22
  21  15  -3    0.47    0.26
 -21 -15   3    0.69    0.26
  19  15  -3   -0.05    0.16
  19  15  -3    0.04    0.16
  19  15  -3   -0.09    0.18
 -19 -15   3   -0.04    0.16
  17  15  -3    0.35    0.17
  17  15  -3    0.19    0.20
 -17 -15   3    0.03    0.18
  15  15  -3   -0.03    0.15
 -15 -15   3    0.00    0.16
  13  15  -3    0.36    0.20
 -13 -15   3    0.21    0.16
  11  15  -3    0.04    0.15
 -11 -15   3    0.08    0.13
   9  15  -3    0.74    0.21
  -9 -15   3    0.56    0.19
   7  15  -3    0.35    0.16
  -7 -15   3    0.43    0.16
   5  15  -3    0.41    0.18
  -5 -15   3    0.34    0.15
  -3 -15   3   -0.02    0.06
  -3 -15   3   -0.08    0.09
  -1 -15   3    3.72    0.23
  -1 -15   3    3.89    0.33
   1 -15   3    3.37    0.31
   1 -15   3    3.37    0.23
   3 -15   3   -0.09    0.07
   3 -15   3   -0.10    0.10
   5 -15   3    0.30    0.14
   5 -15   3    0.40    0.13
   7 -15   3    0.16    0.11
   7 -15   3    0.24    0.15
   9 -15   3    0.44    0.16
   9 -15   3    0.45    0.16
  11 -15   3    0.09    0.13
  11 -15   3   -0.01    0.11
  13 -15   3    0.36    0.19
  13 -15   3    0.59    0.20
  15 -15   3   -0.03    0.14
  15 -15   3    0.02    0.15
  17 -15   3    0.21    0.20
  17 -15   3    0.29    0.19
  19 -15   3    0.00    0.18
  19 -15   3    0.04    0.15
  21 -15   3    0.36    0.27
  23 -15   3    0.05    0.24
  25 -15   3    0.14    0.27
  27 -15   3    0.49    0.33
  29 -15   3    0.01    0.31
  31 -15   3   -0.05    0.31
  27  13  -3    0.15    0.27
  25  13  -3    0.02    0.23
  23  13  -3    0.21    0.23
  21  13  -3    0.10    0.20
  21  13  -3    0.04    0.19
  19  13  -3   -0.11    0.13
  19  13  -3    0.14    0.16
  19  13  -3    0.01    0.17
 -19 -13   3    0.04    0.15
  17  13  -3    0.30    0.19
  17  13  -3    0.20    0.16
 -17 -13   3    0.39    0.19
  15  13  -3   -0.01    0.14
  15  13  -3    0.38    0.17
 -15 -13   3    1.22    0.24
  13  13  -3   -0.02    0.10
  13  13  -3    0.13    0.15
 -13 -13   3   -0.14    0.11
  11  13  -3    2.45    0.31
 -11 -13   3    2.81    0.30
   9  13  -3    0.02    0.11
  -9 -13   3    0.35    0.16
   7  13  -3    0.67    0.20
  -7 -13   3    1.03    0.19
   5  13  -3    0.09    0.12
  -5 -13   3   -0.01    0.09
   3  13  -3   -0.02    0.10
  -3 -13   3    0.05    0.09
  -1 -13   3    0.93    0.11
  -1 -13   3    0.73    0.16
   1 -13   3    0.86    0.11
   1 -13   3    0.81    0.16
   3 -13   3   -0.04    0.08
   3 -13   3    0.04    0.07
   5 -13   3    0.01    0.09
   5 -13   3    0.01    0.08
   7 -13   3    1.01    0.16
   7 -13   3    0.93    0.18
   9 -13   3    0.18    0.12
   9 -13   3    0.34    0.14
  11 -13   3    2.82    0.27
  11 -13   3    3.36    0.31
  13 -13   3    0.02    0.13
  13 -13   3   -0.02    0.10
  15 -13   3    0.15    0.17
  15 -13   3    0.33    0.17
  17 -13   3    0.07    0.17
  17 -13   3    0.16    0.15
  19 -13   3   -0.02    0.15
  19 -13   3    0.15    0.18
  21 -13   3    0.09    0.20
  23 -13   3    0.64    0.28
  25 -13   3   -0.10    0.25
  27 -13   3    0.29    0.28
  29 -13   3   -0.16    0.26
  31 -13   3    0.01    0.31
  33 -13   3    0.03    0.33
  33  11  -3   -0.17    0.34
  31  11  -3   -0.04    0.29
  29  11  -3    0.41    0.31
  27  11  -3   -0.06    0.24
  25  11  -3    0.00    0.24
  23  11  -3   -0.07    0.21
  21  11  -3    0.91    0.26
  21  11  -3    0.99    0.28
  19  11  -3    0.07    0.16
  19  11  -3    0.25    0.18
  19  11  -3    0.44    0.21
 -19 -11   3    0.05    0.14
  17  11  -3    0.73    0.21
  17  11  -3    0.55    0.19
  17  11  -3    0.75    0.22
 -17 -11   3    0.75    0.20
  15  11  -3   -0.06    0.11
  15  11  -3   -0.16    0.13
 -15 -11   3   -0.05    0.11
  13  11  -3    3.05    0.32
  13  11  -3    2.88    0.27
 -13 -11   3    3.01    0.29
  11  11  -3   -0.09    0.10
  11  11  -3    0.02    0.09
 -11 -11   3    0.11    0.11
   9  11  -3    1.34    0.21
   9  11  -3    1.59    0.17
  -9 -11   3    1.65    0.21
   7  11  -3   -0.05    0.08
  -7 -11   3   -0.01    0.09
   5  11  -3    6.99    0.40
  -5 -11   3    6.73    0.38
   3  11  -3   -0.09    0.08
  -3 -11   3    0.02    0.08
   1  11  -3   39.59    1.07
  -1 -11   3   42.14    0.85
  -1 -11   3   39.76    1.04
   1 -11   3   41.49    0.87
   1 -11   3   40.99    1.04
   3 -11   3   -0.02    0.06
   3 -11   3   -0.07    0.07
   5 -11   3    6.43    0.31
   5 -11   3    6.42    0.35
   7 -11   3    0.00    0.08
   7 -11   3    0.10    0.10
   9 -11   3    1.97    0.22
   9 -11   3    1.75    0.20
  11 -11   3    0.00    0.10
  11 -11   3    0.03    0.09
  13 -11   3    2.43    0.29
  13 -11   3    2.94    0.27
  15 -11   3    0.09    0.15
  15 -11   3   -0.08    0.09
  17 -11   3    0.71    0.18
  17 -11   3    1.04    0.27
  19 -11   3    0.41    0.22
  19 -11   3    0.34    0.18
  21 -11   3    1.03    0.32
  23 -11   3    0.32    0.25
  25 -11   3   -0.16    0.21
  27 -11   3   -0.02    0.20
  29 -11   3    0.13    0.25
  31 -11   3    0.32    0.34
  33 -11   3    0.24    0.35
  35   9  -3   -0.15    0.36
  33   9  -3   -0.08    0.30
  31   9  -3    0.56    0.36
  29   9  -3    0.17    0.29
  27   9  -3    0.09    0.26
  25   9  -3    0.39    0.26
  23   9  -3    0.03    0.19
  21   9  -3    0.18    0.19
  21   9  -3    0.23    0.18
  19   9  -3    0.04    0.16
  19   9  -3    0.16    0.15
  19   9  -3   -0.09    0.13
 -19  -9   3    0.07    0.15
  17   9  -3    2.42    0.30
  17   9  -3    1.93    0.27
  17   9  -3    2.13    0.25
 -17  -9   3    2.44    0.27
  15   9  -3    0.40    0.16
  15   9  -3    0.37    0.16
  15   9  -3    0.45    0.16
 -15  -9   3    0.56    0.16
  13   9  -3    0.56    0.17
  13   9  -3    0.20    0.12
 -13  -9   3    0.21    0.12
  11   9  -3    1.47    0.22
  11   9  -3    1.83    0.20
 -11  -9   3    1.89    0.21
   9   9  -3   -0.03    0.07
   9   9  -3   -0.13    0.08
  -9  -9   3   -0.01    0.08
   7   9  -3    0.16    0.10
   7   9  -3   -0.04    0.06
  -7  -9   3    0.07    0.08
   5   9  -3    0.01    0.08
  -5  -9   3    0.10    0.09
   3   9  -3   -0.01    0.07
  -3  -9   3    0.02    0.07
   1   9  -3    0.33    0.11
  -1  -9   3    0.20    0.09
  -1   9  -3    0.38    0.11
   1  -9   3    0.24    0.09
   3  -9   3    0.05    0.05
   3  -9   3    0.12    0.08
   5  -9   3    0.08    0.07
   5  -9   3    0.05    0.08
   7  -9   3    0.03    0.07
   7  -9   3   -0.05    0.06
   9  -9   3   -0.02    0.08
   9  -9   3    0.00    0.07
  11  -9   3    1.57    0.22
  11  -9   3    2.00    0.21
  13  -9   3    0.04    0.10
  13  -9   3    0.25    0.13
  15  -9   3    0.59    0.19
  15  -9   3    0.59    0.16
  17  -9   3    2.21    0.32
  17  -9   3    2.09    0.26
  19  -9   3    0.23    0.14
  19  -9   3    0.25    0.19
  21  -9   3    0.12    0.22
  23  -9   3   -0.06    0.20
  25  -9   3    0.12    0.23
  27  -9   3    0.02    0.22
  29  -9   3   -0.07    0.22
  31  -9   3    0.19    0.30
  33  -9   3    0.67    0.39
  35   7  -3   -0.06    0.34
  33   7  -3    0.00    0.35
  31   7  -3    0.02    0.30
  29   7  -3    0.05    0.28
  27   7  -3    0.01    0.21
  25   7  -3    0.03    0.22
  23   7  -3    0.08    0.22
  21   7  -3   -0.10    0.15
  21   7  -3   -0.01    0.15
  19   7  -3    0.44    0.20
  19   7  -3    0.68    0.20
 -19  -7   3    0.46    0.16
  17   7  -3    1.39    0.23
  17   7  -3    1.82    0.27
  17   7  -3    1.06    0.20
 -17  -7   3    1.46    0.21
  15   7  -3    0.38    0.16
  15   7  -3    0.34    0.14
  15   7  -3    0.14    0.11
 -15  -7   3    0.07    0.11
  13   7  -3    0.72    0.16
  13   7  -3    1.25    0.19
 -13  -7   3    1.13    0.17
  11   7  -3   -0.08    0.07
  11   7  -3   -0.05    0.07
 -11  -7   3   -0.08    0.07
   9   7  -3    0.06    0.10
   9   7  -3    0.17    0.08
  -9  -7   3    0.21    0.10
   7   7  -3    0.04    0.06
   7   7  -3    0.02    0.07
  -7  -7   3    0.03    0.07
   5   7  -3    0.52    0.12
   5   7  -3    0.56    0.08
  -5  -7   3    0.42    0.10
   3   7  -3    0.05    0.08
  -3  -7   3   -0.06    0.05
   1   7  -3   26.45    0.70
  -1  -7   3   25.84    0.67
  -1   7  -3   24.77    0.67
   1  -7   3   26.72    0.68
   3  -7   3   -0.04    0.06
   3  -7   3    0.07    0.05
   5  -7   3    0.53    0.10
   5  -7   3    0.27    0.09
   7  -7   3   -0.01    0.06
   7  -7   3    0.14    0.08
   9  -7   3    0.11    0.08
   9  -7   3    0.04    0.08
  11  -7   3    0.06    0.08
  11  -7   3   -0.01    0.10
  13  -7   3    0.62    0.14
  13  -7   3    0.93    0.19
  15  -7   3    0.23    0.12
  15  -7   3    0.42    0.18
  17  -7   3    1.73    0.28
  17  -7   3    1.66    0.23
  19  -7   3    0.49    0.16
  19  -7   3    0.64    0.22
  21  -7   3   -0.05    0.13
  21  -7   3   -0.09    0.15
  23  -7   3   -0.15    0.16
  25  -7   3    0.02    0.21
  27  -7   3    0.40    0.25
  29  -7   3    0.18    0.28
  31  -7   3    0.14    0.30
  33  -7   3    0.21    0.34
  35   5  -3    0.54    0.42
  33   5  -3   -0.01    0.29
  31   5  -3    0.10    0.28
  29   5  -3    0.14    0.28
  27   5  -3    0.05    0.23
  25   5  -3    0.17    0.25
  23   5  -3    0.99    0.30
  21   5  -3   -0.18    0.14
  19   5  -3    0.50    0.21
  19   5  -3    0.53    0.18
  17   5  -3    1.81    0.23
  17   5  -3    2.90    0.32
 -17  -5   3    1.69    0.20
  15   5  -3    0.31    0.15
  15   5  -3    0.26    0.13
 -15  -5   3    0.48    0.13
  13   5  -3    0.02    0.09
  13   5  -3    0.01    0.07
  13   5  -3   -0.01    0.09
 -13  -5   3    0.15    0.09
  11   5  -3    6.66    0.36
  11   5  -3    7.01    0.37
 -11  -5   3    6.90    0.32
   9   5  -3    0.07    0.08
   9   5  -3    0.24    0.09
  -9  -5   3    0.07    0.07
   7   5  -3    0.39    0.09
   7   5  -3    0.39    0.11
  -7  -5   3    0.37    0.09
   5   5  -3   -0.06    0.05
  -5  -5   3    0.16    0.07
   3   5  -3    0.06    0.07
  -3  -5   3    0.04    0.06
   1   5  -3    2.26    0.17
  -1  -5   3    2.09    0.15
  -1   5  -3    2.35    0.17
   1  -5   3    2.65    0.16
   3  -5   3    0.03    0.05
   5  -5   3    0.00    0.05
   5  -5   3   -0.01    0.05
   7  -5   3    0.70    0.11
   7  -5   3    0.67    0.12
   9  -5   3    0.08    0.06
   9  -5   3    0.05    0.08
  11  -5   3    6.10    0.32
  11  -5   3    6.47    0.37
  13  -5   3    0.10    0.09
  13  -5   3    0.08    0.11
  15  -5   3    0.28    0.12
  15  -5   3    0.35    0.16
  17  -5   3    1.81    0.22
  17  -5   3    1.91    0.29
  19  -5   3    0.91    0.25
  19  -5   3    0.27    0.15
  21  -5   3    0.11    0.19
  21  -5   3   -0.02    0.12
  23  -5   3    1.14    0.32
  25  -5   3   -0.20    0.19
  27  -5   3    0.21    0.23
  29  -5   3   -0.07    0.24
  31  -5   3    0.43    0.32
  33  -5   3   -0.26    0.27
  35   3  -3    0.64    0.39
  33   3  -3   -0.02    0.33
  31   3  -3   -0.23    0.28
  29   3  -3    0.15    0.26
  27   3  -3    0.12    0.25
  25   3  -3    0.02    0.21
  23   3  -3    0.11    0.21
  21   3  -3   -0.04    0.16
  19   3  -3   -0.17    0.13
  19   3  -3   -0.05    0.11
  17   3  -3    0.00    0.09
  17   3  -3   -0.07    0.12
 -17  -3   3    0.07    0.09
  15   3  -3    0.07    0.09
  15   3  -3    0.01    0.11
 -15  -3   3   -0.12    0.07
  13   3  -3    0.08    0.11
  13   3  -3   -0.04    0.08
 -13  -3   3    0.03    0.06
  11   3  -3    0.00    0.06
  11   3  -3   -0.03    0.08
  11   3  -3   -0.08    0.07
 -11  -3   3    0.05    0.06
   9   3  -3    0.08    0.07
   9   3  -3   -0.02    0.07
  -9  -3   3    0.01    0.05
   7   3  -3    0.00    0.05
   7   3  -3    0.02    0.07
  -7  -3   3   -0.03    0.04
   5   3  -3    0.06    0.06
  -5  -3   3    0.04    0.05
   3   3  -3    0.14    0.06
  -3  -3   3    0.07    0.05
  -1  -3   3    0.06    0.04
   1  -3   3    0.01    0.03
   3  -3   3    0.05    0.05
   5  -3   3    0.11    0.06
   5  -3   3    0.07    0.06
   7  -3   3   -0.08    0.05
   7  -3   3    0.12    0.06
   9  -3   3    0.07    0.08
   9  -3   3   -0.01    0.06
  11  -3   3   -0.08    0.06
  11  -3   3   -0.02    0.08
  13  -3   3    0.05    0.10
  13  -3   3    0.04    0.08
  15  -3   3    0.12    0.09
  15  -3   3   -0.03    0.10
  17  -3   3   -0.06    0.12
  17  -3   3    0.03    0.09
  19  -3   3    0.11    0.12
  19  -3   3    0.11    0.16
  21  -3   3    0.04    0.12
  21  -3   3    0.06    0.17
  23  -3   3    0.34    0.22
  25  -3   3   -0.27    0.17
  27  -3   3    0.05    0.20
  29  -3   3   -0.12    0.19
  31  -3   3   -0.08    0.24
  33  -3   3    0.16    0.31
  35   1  -3   -0.07    0.35
  33   1  -3   -0.03    0.31
  31   1  -3    0.31    0.32
  29   1  -3    0.64    0.34
  27   1  -3   -0.04    0.23
  25   1  -3   -0.16    0.20
  23   1  -3    1.36    0.33
  21   1  -3    0.17    0.21
  19   1  -3    1.07    0.26
  19   1  -3    1.47    0.21
  17   1  -3    0.22    0.12
  17   1  -3    0.02    0.13
 -17  -1   3    0.61    0.13
  15   1  -3    3.70    0.34
  15   1  -3    4.00    0.30
 -15  -1   3    3.73    0.23
  13   1  -3    0.61    0.16
  13   1  -3    0.80    0.14
 -13  -1   3    0.86    0.11
  11   1  -3   42.60    1.09
  11   1  -3   42.38    1.04
 -11  -1   3   41.94    0.87
   9   1  -3    0.29    0.09
   9   1  -3    0.41    0.12
  -9  -1   3    0.34    0.07
   7   1  -3   25.97    0.67
   7   1  -3   24.27    0.51
   7   1  -3   25.86    0.67
  -7  -1   3   26.41    0.53
   5   1  -3    2.44    0.16
   5   1  -3    2.42    0.17
  -5  -1   3    2.78    0.11
  -3  -1   3    0.02    0.02
  -1  -1   3    0.03    0.02
   1  -1   3    0.01    0.02
   3  -1   3    0.02    0.03
   5  -1   3    2.52    0.16
   5  -1   3    2.28    0.17
   7  -1   3   25.80    0.65
   9  -1   3    0.24    0.08
   9  -1   3    0.17    0.09
  11  -1   3   39.79    0.97
  11  -1   3   39.86    1.06
  13  -1   3    0.81    0.15
  13  -1   3    0.80    0.17
  15  -1   3    3.81    0.28
  15  -1   3    3.86    0.34
  17  -1   3    0.20    0.12
  17  -1   3    0.74    0.21
 -19   1  -3    1.36    0.20
  19  -1   3    1.52    0.29
 -21   1  -3    0.19    0.14
  21  -1   3    0.11    0.18
  23  -1   3    1.02    0.32
  25  -1   3   -0.11    0.20
  27  -1   3   -0.05    0.20
  29  -1   3   -0.11    0.22
  31  -1   3   -0.17    0.27
  33  -1   3    0.38    0.34
  35  -1   3   -0.02    0.39
  35  -1  -3    0.25    0.36
  33  -1  -3   -0.32    0.30
  31  -1  -3    0.28    0.33
  29  -1  -3    0.09    0.29
  27  -1  -3    0.24    0.25
  25  -1  -3   -0.39    0.19
  23  -1  -3    2.00    0.38
  21  -1  -3    0.14    0.23
  19  -1  -3    2.71    0.36
  19  -1  -3    1.50    0.22
  17  -1  -3    0.36    0.14
  17  -1  -3    0.29    0.16
 -17   1   3    0.40    0.10
  15  -1  -3    2.85    0.30
  15  -1  -3    4.26    0.31
 -15   1   3    3.97    0.22
  13  -1  -3    1.09    0.20
 -13   1   3    0.49    0.09
  11  -1  -3   41.71    1.08
 -11   1   3   41.21    0.82
   9  -1  -3    0.39    0.11
  -9   1   3    0.35    0.05
   7  -1  -3   26.49    0.68
  -7   1   3   26.03    0.50
   5  -1  -3    2.77    0.18
  -1   1   3    0.08    0.02
   1   1   3    0.04    0.03
   3   1   3    0.04    0.03
   5   1   3    2.26    0.16
   5   1   3    2.52    0.17
   7   1   3   24.84    0.63
   9   1   3    0.25    0.09
   9   1   3    0.25    0.09
  11   1   3   41.30    0.98
  11   1   3   40.39    1.06
 -13  -1  -3    0.70    0.13
  13   1   3    0.65    0.17
  13   1   3    0.62    0.09
 -15  -1  -3    4.01    0.29
  15   1   3    3.40    0.20
  15   1   3    3.99    0.35
 -17  -1  -3    0.41    0.14
  17   1   3    0.23    0.14
 -19  -1  -3    1.45    0.22
  19   1   3    1.56    0.29
 -21  -1  -3    0.42    0.16
  21   1   3    0.28    0.20
  23   1   3    0.90    0.30
  25   1   3    0.49    0.26
  27   1   3   -0.02    0.23
  29   1   3    0.42    0.29
  31   1   3    0.04    0.27
  33   1   3    0.14    0.33
  35   1   3    0.02    0.35
  35  -3  -3   -0.29    0.37
  33  -3  -3   -0.03    0.35
  31  -3  -3   -0.07    0.28
  29  -3  -3   -0.05    0.24
  27  -3  -3    0.09    0.27
  25  -3  -3   -0.42    0.19
  23  -3  -3    0.10    0.21
  21  -3  -3   -0.02    0.20
  19  -3  -3    0.07    0.10
  19  -3  -3    0.15    0.17
  17  -3  -3   -0.06    0.14
  15  -3  -3    0.13    0.13
  15  -3  -3    0.00    0.06
  13  -3  -3    0.00    0.05
  13  -3  -3   -0.09    0.10
  11  -3  -3   -0.04    0.08
  11  -3  -3    0.02    0.05
   9  -3  -3    0.06    0.08
   9  -3  -3    0.05    0.04
   7  -3  -3    0.00    0.07
   7  -3  -3    0.00    0.03
   5  -3  -3    0.00    0.06
   5  -3  -3    0.04    0.03
   3  -3  -3    0.11    0.06
   3  -3  -3    0.13    0.04
   1  -3  -3    0.05    0.03
  -1  -3  -3    0.03    0.04
   1   3   3    0.03    0.04
  -3  -3  -3    0.15    0.06
   3   3   3   -0.01    0.05
  -5  -3  -3    0.06    0.06
   5   3   3    0.08    0.06
  -7  -3  -3   -0.01    0.05
   7   3   3    0.05    0.07
  -9  -3  -3    0.04    0.06
   9   3   3    0.07    0.05
   9   3   3    0.07    0.07
 -11  -3  -3   -0.06    0.06
  11   3   3   -0.01    0.05
  11   3   3   -0.02    0.07
 -13  -3  -3    0.03    0.08
  13   3   3   -0.01    0.06
  13   3   3   -0.03    0.08
 -15  -3  -3    0.02    0.09
  15   3   3   -0.16    0.09
  15   3   3   -0.07    0.06
 -17  -3  -3   -0.06    0.09
  17   3   3   -0.06    0.12
 -19  -3  -3   -0.02    0.10
  19   3   3   -0.06    0.13
 -21  -3  -3    0.07    0.13
  21   3   3   -0.03    0.16
 -23  -3  -3    0.05    0.16
  23   3   3    0.09    0.19
  25   3   3   -0.09    0.20
  27   3   3    0.04    0.23
  29   3   3   -0.04    0.23
  31   3   3   -0.20    0.28
  33   3   3   -0.06    0.29
  35   3   3    0.13    0.40
  33  -5  -3    0.08    0.31
  31  -5  -3    0.41    0.37
  29  -5  -3    0.02    0.29
  27  -5  -3    0.05    0.26
  25  -5  -3   -0.15    0.21
  23  -5  -3    1.19    0.34
  21  -5  -3   -0.10    0.19
  19  -5  -3    0.19    0.19
  17  -5  -3    2.00    0.31
  15  -5  -3    0.29    0.08
  15  -5  -3    0.32    0.17
  13  -5  -3    0.09    0.06
  13  -5  -3    0.07    0.10
  11  -5  -3    6.75    0.25
   9  -5  -3    0.09    0.05
   9  -5  -3    0.07    0.08
   7  -5  -3    0.55    0.07
   7  -5  -3    0.79    0.13
   5  -5  -3    0.06    0.06
   5  -5  -3    0.00    0.04
   3  -5  -3    0.09    0.06
   3  -5  -3    0.07    0.06
   1  -5  -3    2.67    0.16
   1  -5  -3    2.06    0.16
  -1  -5  -3    2.61    0.17
  -3  -5  -3    0.17    0.07
  -5  -5  -3    0.11    0.07
   5   5   3   -0.05    0.06
  -7  -5  -3    0.42    0.11
   7   5   3    0.34    0.10
   7   5   3    0.55    0.11
  -9  -5  -3    0.02    0.07
   9   5   3    0.08    0.07
   9   5   3    0.14    0.08
   9   5   3    0.10    0.08
 -11  -5  -3    6.45    0.35
  11   5   3    5.80    0.36
  11   5   3    6.26    0.29
 -13  -5  -3    0.04    0.09
  13   5   3   -0.05    0.09
  13   5   3    0.07    0.07
 -15  -5  -3    0.15    0.11
  15   5   3    0.23    0.11
  15   5   3    0.27    0.15
 -17  -5  -3    2.12    0.25
  17   5   3    1.30    0.24
 -19  -5  -3    0.93    0.20
  19   5   3    0.69    0.23
 -21  -5  -3   -0.02    0.12
  21   5   3   -0.14    0.17
 -23  -5  -3    0.89    0.23
  23   5   3    0.86    0.31
  25   5   3    0.25    0.25
  27   5   3    0.12    0.23
  29   5   3    0.03    0.23
  31   5   3   -0.14    0.26
  33   5   3   -0.16    0.31
  35   5   3    0.36    0.40
  33  -7  -3    0.66    0.44
  31  -7  -3    0.02    0.32
  29  -7  -3    0.21    0.33
  27  -7  -3    0.19    0.28
  25  -7  -3   -0.09    0.21
  23  -7  -3    0.29    0.24
  21  -7  -3   -0.20    0.18
  19  -7  -3    0.14    0.19
  17  -7  -3    1.46    0.29
  15  -7  -3    0.05    0.14
  15  -7  -3    0.25    0.09
  13  -7  -3    0.89    0.13
  13  -7  -3    0.57    0.18
  11  -7  -3    0.08    0.07
  11  -7  -3   -0.01    0.09
   9  -7  -3    0.13    0.11
   9  -7  -3    0.07    0.06
   7  -7  -3    0.01    0.05
   7  -7  -3    0.04    0.08
   5  -7  -3    0.46    0.09
   5  -7  -3    0.53    0.11
   3  -7  -3    0.06    0.07
   3  -7  -3    0.09    0.07
   1  -7  -3   25.24    0.63
  -1  -7  -3   24.42    0.63
  -3  -7  -3    0.08    0.07
  -5  -7  -3    0.56    0.12
  -7  -7  -3    0.08    0.08
  -9  -7  -3    0.18    0.09
   9   7   3    0.08    0.09
   9   7   3    0.21    0.10
 -11  -7  -3    0.08    0.09
  11   7   3    0.10    0.10
  11   7   3    0.03    0.09
  11   7   3    0.01    0.08
 -13  -7  -3    1.04    0.18
  13   7   3    1.16    0.20
  13   7   3    0.54    0.12
 -15  -7  -3    0.28    0.14
  15   7   3    0.32    0.12
  15   7   3    0.23    0.15
 -17  -7  -3    1.42    0.23
  17   7   3    1.33    0.25
 -19  -7  -3    0.24    0.16
  19   7   3    0.34    0.21
 -21  -7  -3    0.27    0.17
  21   7   3   -0.04    0.17
 -23  -7  -3   -0.04    0.15
  23   7   3   -0.14    0.19
  25   7   3   -0.11    0.20
  27   7   3   -0.25    0.20
  29   7   3    0.16    0.27
  31   7   3   -0.02    0.27
  33   7   3    0.08    0.33
  33  -9  -3    0.07    0.32
  31  -9  -3   -0.10    0.28
  29  -9  -3    0.17    0.29
  27  -9  -3   -0.17    0.25
  25  -9  -3    0.25    0.25
  23  -9  -3    0.12    0.21
  21  -9  -3    0.45    0.24
  19  -9  -3    0.09    0.19
  17  -9  -3    2.03    0.32
  15  -9  -3    0.78    0.22
  15  -9  -3    0.42    0.12
  13  -9  -3    0.40    0.17
  13  -9  -3    0.30    0.10
  11  -9  -3    1.66    0.16
  11  -9  -3    1.60    0.23
   9  -9  -3   -0.09    0.05
   9  -9  -3    0.01    0.09
   7  -9  -3    0.11    0.08
   7  -9  -3    0.00    0.07
   5  -9  -3    0.02    0.07
   5  -9  -3    0.12    0.08
   3  -9  -3    0.01    0.06
   3  -9  -3   -0.04    0.06
   1  -9  -3    0.20    0.09
   1  -9  -3    0.17    0.08
  -1  -9  -3    0.19    0.09
  -3  -9  -3   -0.06    0.07
  -5  -9  -3    0.07    0.08
  -7  -9  -3   -0.02    0.09
  -9  -9  -3   -0.11    0.07
 -11  -9  -3    1.34    0.20
  11   9   3    1.52    0.20
  11   9   3    1.73    0.23
 -13  -9  -3    0.02    0.11
  13   9   3    0.27    0.12
  13   9   3    0.34    0.13
  13   9   3    0.45    0.15
 -15  -9  -3    0.25    0.16
  15   9   3    0.31    0.14
  15   9   3    0.39    0.16
 -17  -9  -3    2.27    0.29
  17   9   3    2.02    0.24
  17   9   3    1.78    0.28
 -19  -9  -3    0.03    0.15
  19   9   3    0.26    0.18
 -21  -9  -3   -0.04    0.14
  21   9   3    0.11    0.17
 -23  -9  -3    0.08    0.19
  23   9   3    0.34    0.24
  25   9   3    0.24    0.26
  27   9   3   -0.12    0.23
  29   9   3    0.14    0.25
  31   9   3   -0.05    0.30
  33   9   3    0.34    0.34
  33 -11  -3   -0.25    0.34
  31 -11  -3    0.47    0.38
  29 -11  -3    0.15    0.27
  27 -11  -3    0.21    0.27
  25 -11  -3    0.13    0.27
  23 -11  -3    0.20    0.24
  21 -11  -3    0.72    0.29
  19 -11  -3    0.32    0.21
  17 -11  -3    0.68    0.27
  15 -11  -3   -0.04    0.09
  15 -11  -3    0.14    0.16
  13 -11  -3    3.18    0.24
  13 -11  -3    2.92    0.33
  11 -11  -3   -0.02    0.07
  11 -11  -3   -0.05    0.11
   9 -11  -3    1.24    0.16
   9 -11  -3    1.36    0.21
   7 -11  -3   -0.02    0.07
   7 -11  -3   -0.04    0.09
   5 -11  -3    6.94    0.37
   5 -11  -3    6.45    0.33
   3 -11  -3   -0.04    0.06
   3 -11  -3    0.22    0.11
   1 -11  -3   40.43    0.99
   1 -11  -3   39.01    0.99
  -1 -11  -3   41.17    1.04
  -3 -11  -3    0.01    0.08
  -5 -11  -3    6.83    0.39
  -7 -11  -3    0.10    0.10
  -9 -11  -3    1.92    0.24
 -11 -11  -3    0.00    0.11
  11  11   3   -0.10    0.09
 -13 -11  -3    2.98    0.31
  13  11   3    3.14    0.31
 -15 -11  -3    0.05    0.14
  15  11   3   -0.09    0.10
  15  11   3    0.00    0.12
 -17 -11  -3    0.59    0.21
  17  11   3    0.42    0.19
 -19 -11  -3    0.27    0.18
  19  11   3    0.06    0.15
 -21 -11  -3    0.81    0.25
  21  11   3    0.70    0.25
 -23 -11  -3   -0.11    0.19
  23  11   3   -0.37    0.21
  25  11   3   -0.18    0.22
  27  11   3    0.09    0.27
  29  11   3    0.09    0.29
  31  11   3   -0.19    0.29
  33  11   3   -0.34    0.30
  31 -13  -3    0.37    0.33
  29 -13  -3   -0.31    0.26
  27 -13  -3    0.14    0.29
  25 -13  -3    0.01    0.24
  23 -13  -3    0.58    0.31
  21 -13  -3    0.18    0.22
  19 -13  -3   -0.11    0.17
  17 -13  -3   -0.02    0.19
  15 -13  -3    0.54    0.15
  15 -13  -3    0.29    0.18
  13 -13  -3   -0.16    0.10
  13 -13  -3   -0.02    0.09
  11 -13  -3    3.25    0.34
  11 -13  -3    3.21    0.26
   9 -13  -3    0.22    0.11
   9 -13  -3    0.25    0.14
   7 -13  -3    0.60    0.17
   7 -13  -3    1.11    0.17
   5 -13  -3   -0.01    0.08
   5 -13  -3    0.05    0.08
   3 -13  -3    0.06    0.09
   3 -13  -3   -0.02    0.07
   1 -13  -3    0.88    0.15
   1 -13  -3    0.82    0.17
  -1 -13  -3    0.68    0.14
  -1 -13  -3    0.71    0.17
  -3 -13  -3    0.02    0.10
  -5 -13  -3    0.04    0.10
  -7 -13  -3    0.84    0.20
  -9 -13  -3    0.28    0.15
 -11 -13  -3    3.00    0.32
 -13 -13  -3   -0.14    0.11
  13  13   3    0.02    0.12
 -15 -13  -3    0.39    0.19
  15  13   3   -0.09    0.15
 -17 -13  -3    0.28    0.18
  17  13   3    0.23    0.17
 -19 -13  -3    0.15    0.18
  19  13   3    0.01    0.18
 -21 -13  -3    0.15    0.18
  21  13   3    0.11    0.17
 -23 -13  -3    0.46    0.24
  23  13   3    0.32    0.26
 -25 -13  -3   -0.24    0.18
  25  13   3    0.04    0.25
  27  13   3   -0.06    0.26
  29  13   3   -0.02    0.29
  31  13   3   -0.17    0.29
  33  13   3    0.55    0.38
  31 -15  -3   -0.14    0.30
  29 -15  -3    0.30    0.35
  27 -15  -3   -0.22    0.28
  25 -15  -3   -0.25    0.24
  23 -15  -3   -0.04    0.25
  21 -15  -3    0.40    0.27
  19 -15  -3    0.03    0.19
  17 -15  -3   -0.02    0.20
  15 -15  -3   -0.31    0.14
  13 -15  -3    0.53    0.23
  13 -15  -3    0.23    0.14
  11 -15  -3    0.09    0.12
  11 -15  -3   -0.10    0.13
   9 -15  -3    0.57    0.16
   9 -15  -3    0.39    0.16
   7 -15  -3    0.42    0.15
   7 -15  -3   -0.06    0.09
   5 -15  -3    0.17    0.13
   5 -15  -3    0.29    0.13
   3 -15  -3    0.11    0.10
   3 -15  -3    0.09    0.10
   1 -15  -3    3.90    0.30
   1 -15  -3    3.46    0.31
  -1 -15  -3    3.01    0.30
  -1 -15  -3    3.30    0.27
  -3 -15  -3   -0.10    0.10
  -5 -15  -3    0.32    0.14
  -7 -15  -3    0.38    0.16
  -9 -15  -3    0.68    0.20
 -11 -15  -3    0.04    0.13
 -13 -15  -3    0.18    0.17
 -15 -15  -3   -0.05    0.15
  15  15   3    0.06    0.16
 -17 -15  -3    0.25    0.19
  17  15   3    0.49    0.21
 -19 -15  -3    0.09    0.17
  19  15   3    0.13    0.16
 -21 -15  -3    0.71    0.26
 -23 -15  -3   -0.04    0.21
 -25 -15  -3    0.03    0.22
  31 -17  -3    0.12    0.35
  29 -17  -3    0.11    0.32
  27 -17  -3   -0.10    0.27
  25 -17  -3   -0.01    0.25
  23 -17  -3    0.33    0.32
  21 -17  -3    0.16    0.22
  19 -17  -3   -0.13    0.19
  17 -17  -3   -0.23    0.18
  15 -17  -3    0.13    0.20
  13 -17  -3    0.26    0.16
  13 -17  -3    0.06    0.17
  11 -17  -3    0.60    0.18
  11 -17  -3    0.47    0.21
   9 -17  -3    1.80    0.25
   9 -17  -3    2.13    0.29
   7 -17  -3    1.18    0.23
   7 -17  -3    1.52    0.23
   5 -17  -3    1.95    0.25
   5 -17  -3    2.24    0.27
   3 -17  -3   -0.02    0.12
   3 -17  -3    0.12    0.10
   1 -17  -3    0.20    0.15
   1 -17  -3    0.38    0.14
  -1 -17  -3    0.47    0.15
  -1 -17  -3    0.34    0.17
  -3 -17  -3   -0.03    0.13
  -5 -17  -3    2.34    0.32
  -7 -17  -3    1.84    0.31
  -9 -17  -3    1.65    0.29
 -11 -17  -3    0.37    0.20
 -13 -17  -3    0.54    0.22
 -15 -17  -3    0.55    0.22
  15  17   3   -0.36    0.14
 -17 -17  -3    0.09    0.19
  17  17   3   -0.13    0.14
 -19 -17  -3   -0.13    0.20
  19  17   3   -0.06    0.19
 -21 -17  -3    0.08    0.22
  21  17   3    0.11    0.19
 -23 -17  -3    0.97    0.32
 -25 -17  -3   -0.08    0.22
  29 -19  -3   -0.23    0.34
  27 -19  -3    0.05    0.33
  25 -19  -3    0.02    0.30
  23 -19  -3    0.32    0.30
  21 -19  -3    0.09    0.26
  19 -19  -3    0.07    0.22
  17 -19  -3    0.03    0.21
  15 -19  -3   -0.16    0.17
  13 -19  -3   -0.08    0.17
  13 -19  -3   -0.03    0.15
  11 -19  -3    0.29    0.19
  11 -19  -3    0.28    0.18
   9 -19  -3   -0.11    0.13
   9 -19  -3    0.40    0.18
   7 -19  -3    0.57    0.19
   7 -19  -3    0.43    0.19
   5 -19  -3    0.45    0.17
   5 -19  -3    0.58    0.19
   3 -19  -3   -0.12    0.11
   3 -19  -3   -0.03    0.10
   1 -19  -3    1.77    0.24
   1 -19  -3    1.72    0.29
  -1 -19  -3    1.61    0.23
  -1 -19  -3    2.07    0.31
  -3 -19  -3    0.01    0.15
  -3 -19  -3   -0.21    0.08
  -5 -19  -3    0.67    0.23
  -7 -19  -3    0.43    0.20
  -9 -19  -3    0.01    0.15
 -11 -19  -3    0.43    0.22
 -13 -19  -3    0.12    0.19
 -15 -19  -3   -0.06    0.17
 -17 -19  -3    0.21    0.20
  17  19   3   -0.06    0.18
 -19 -19  -3   -0.14    0.17
  19  19   3    0.02    0.18
 -21 -19  -3    0.39    0.26
  21  19   3   -0.01    0.21
 -23 -19  -3    0.45    0.27
 -25 -19  -3   -0.07    0.26
  29 -21  -3   -0.42    0.34
  27 -21  -3   -0.05    0.32
  25 -21  -3    0.14    0.30
  23 -21  -3   -0.06    0.27
  21 -21  -3    0.48    0.29
  19 -21  -3    0.42    0.28
  17 -21  -3   -0.21    0.19
  15 -21  -3    0.06    0.21
  13 -21  -3    0.12    0.21
  13 -21  -3    0.16    0.20
  11 -21  -3    0.81    0.24
  11 -21  -3    1.09    0.28
   9 -21  -3    0.13    0.17
   9 -21  -3   -0.15    0.15
   7 -21  -3    0.03    0.17
   7 -21  -3    0.12    0.16
   5 -21  -3   -0.14    0.11
   5 -21  -3   -0.08    0.15
   3 -21  -3   -0.01    0.12
   3 -21  -3    0.09    0.17
   1 -21  -3    0.28    0.19
   1 -21  -3    0.39    0.16
  -1 -21  -3    0.46    0.23
  -1 -21  -3    0.25    0.15
  -3 -21  -3   -0.11    0.15
  -3 -21  -3   -0.12    0.10
  -5 -21  -3   -0.20    0.09
  -5 -21  -3   -0.13    0.17
  -7 -21  -3   -0.37    0.15
  -9 -21  -3   -0.03    0.16
 -11 -21  -3    0.84    0.28
 -13 -21  -3    0.13    0.20
 -15 -21  -3    0.17    0.23
 -17 -21  -3    0.02    0.22
  17  21   3    0.14    0.22
 -19 -21  -3    0.44    0.28
  19  21   3   -0.07    0.24
 -21 -21  -3   -0.01    0.22
  21  21   3    0.32    0.24
 -23 -21  -3   -0.02    0.27
  23  21   3   -0.14    0.23
 -25 -21  -3    0.19    0.28
  27 -23  -3    0.19    0.38
  25 -23  -3    0.23    0.35
  23 -23  -3    0.15    0.33
  21 -23  -3   -0.15    0.26
  19 -23  -3    0.23    0.27
  17 -23  -3    0.83    0.30
  15 -23  -3    0.04    0.24
  13 -23  -3    0.19    0.22
  11 -23  -3    0.20    0.18
  11 -23  -3   -0.17    0.18
   9 -23  -3    0.16    0.18
   9 -23  -3    0.00    0.18
   7 -23  -3   -0.08    0.17
   7 -23  -3   -0.22    0.14
   5 -23  -3    0.79    0.26
   5 -23  -3    1.24    0.26
   3 -23  -3    0.05    0.15
   3 -23  -3   -0.07    0.14
   1 -23  -3    0.90    0.27
   1 -23  -3    1.28    0.25
  -1 -23  -3    1.57    0.33
  -3 -23  -3   -0.07    0.17
  -5 -23  -3    0.65    0.26
  -7 -23  -3    0.01    0.19
  -9 -23  -3    0.29    0.22
 -11 -23  -3   -0.18    0.17
 -13 -23  -3    0.35    0.24
 -15 -23  -3   -0.08    0.22
 -17 -23  -3    0.26    0.25
  17  23   3    0.56    0.30
 -19 -23  -3    0.16    0.26
  19  23   3    0.01    0.24
 -21 -23  -3    0.00    0.27
  21  23   3   -0.12    0.26
 -23 -23  -3   -0.17    0.28
  23  23   3   -0.04    0.25
  25 -25  -3    0.29    0.39
  23 -25  -3   -0.33    0.30
  21 -25  -3    0.09    0.32
  19 -25  -3    0.34    0.28
  17 -25  -3   -0.02    0.26
  15 -25  -3    0.11    0.25
  13 -25  -3   -0.23    0.19
  11 -25  -3   -0.05    0.20
   9 -25  -3    0.18    0.22
   7 -25  -3   -0.04    0.18
   5 -25  -3   -0.02    0.18
   3 -25  -3   -0.13    0.18
   1 -25  -3   -0.23    0.17
  -1 -25  -3   -0.09    0.18
  -3 -25  -3    0.02    0.21
  -5 -25  -3   -0.03    0.20
  -7 -25  -3   -0.35    0.21
  -9 -25  -3    0.57    0.25
 -11 -25  -3    0.00    0.24
 -13 -25  -3    0.12    0.23
 -15 -25  -3    0.01    0.24
 -17 -25  -3    0.29    0.27
  17  25   3   -0.10    0.23
 -19 -25  -3   -0.30    0.24
  19  25   3    0.15    0.28
 -21 -25  -3    0.26    0.31
  21  25   3    0.15    0.27
  11 -27  -3    0.26    0.25
   9 -27  -3    0.10    0.24
   7 -27  -3    0.09    0.20
   5 -27  -3    0.11    0.23
   3 -27  -3    0.24    0.22
   1 -27  -3    0.06    0.21
  -1 -27  -3    0.08    0.22
  -3 -27  -3    0.12    0.22
  -5 -27  -3    0.07    0.22
  -7 -27  -3   -0.16    0.22
  -9 -27  -3   -0.21    0.20
 -11 -27  -3   -0.08    0.21
 -13 -27  -3   -0.15    0.23
 -15 -27  -3    0.08    0.28
 -17 -27  -3   -0.21    0.24
  17  27   3   -0.50    0.24
  19  27   3    0.08    0.29
   9 -29  -3    0.30    0.27
   7 -29  -3    0.27    0.28
   5 -29  -3   -0.29    0.23
   3 -29  -3   -0.07    0.23
   1 -29  -3   -0.10    0.25
  -1 -29  -3    0.03    0.24
  -3 -29  -3    0.03    0.26
  -5 -29  -3    0.13    0.26
  -7 -29  -3   -0.03    0.27
  -9 -29  -3    0.01    0.27
 -11 -29  -3   -0.01    0.26
 -13 -29  -3    0.01    0.27
   9 -31  -3    0.00    0.25
   7 -31  -3    0.07    0.29
   5 -31  -3    0.00    0.27
   3 -31  -3    0.02    0.26
   1 -31  -3    0.12    0.27
  -1 -31  -3    0.30    0.30
  -3 -31  -3   -0.07    0.27
  -5 -31  -3    0.10    0.27
  -7 -31  -3    0.17    0.30
 -10 -30   4    0.82    0.35
  -8 -30   4   -0.14    0.22
  -6 -30   4    0.31    0.26
  -4 -30   4   -0.04    0.21
  -2 -30   4    0.20    0.26
   0 -30   4    0.13    0.26
   2 -30   4   -0.15    0.22
   4 -30   4   -0.01    0.26
   6 -30   4    0.32    0.29
   8 -30   4   -0.28    0.20
  10 -30   4    0.77    0.33
  12 -30   4    0.07    0.26
  14 -30   4    0.47    0.34
 -16 -28   4   17.08    1.05
 -14 -28   4   -0.29    0.22
 -12 -28   4   15.90    0.98
 -10 -28   4   -0.05    0.21
  -8 -28   4   27.02    1.25
  -6 -28   4   -0.15    0.19
  -4 -28   4   19.29    1.02
  -2 -28   4   -0.13    0.21
   0 -28   4   25.18    1.19
   2 -28   4   -0.17    0.23
   4 -28   4   18.49    0.99
   6 -28   4    0.20    0.25
   8 -28   4   24.22    1.15
  10 -28   4    0.27    0.25
  12 -28   4   15.87    0.95
  14 -28   4    0.14    0.27
 -20 -26   4    0.05    0.26
 -18 -26   4    0.21    0.25
 -16 -26   4    0.35    0.29
 -14 -26   4    0.93    0.36
 -12 -26   4    0.00    0.20
 -10 -26   4    0.17    0.23
  -8 -26   4    0.05    0.19
  -6 -26   4    0.71    0.28
  -4 -26   4    0.13    0.19
  -2 -26   4    0.83    0.30
   0 -26   4    0.25    0.25
   2 -26   4    0.53    0.27
   4 -26   4    0.06    0.22
   6 -26   4    1.62    0.35
   8 -26   4    0.15    0.22
  10 -26   4    0.51    0.28
  12 -26   4    0.07    0.23
  14 -26   4    1.31    0.37
  16 -26   4   -0.05    0.25
 -20 -24   4   26.44    1.26
 -18 -24   4    0.26    0.26
 -16 -24   4   23.01    1.13
 -14 -24   4    0.23    0.23
 -12 -24   4   39.11    1.46
 -10 -24   4    0.19    0.21
  -8 -24   4   49.81    1.65
  -6 -24   4    0.49    0.23
  -4 -24   4   77.92    2.13
  -2 -24   4    0.32    0.22
   0 -24   4   47.46    1.57
   2 -24   4    0.68    0.29
   4 -24   4   76.44    2.08
   6 -24   4    0.47    0.23
   8 -24   4   52.43    1.65
  10 -24   4    0.55    0.26
  12 -24   4   39.85    1.41
  14 -24   4    0.17    0.23
  16 -24   4   22.84    1.07
 -20 -22   4    0.30    0.26
 -18 -22   4    1.21    0.34
 -16 -22   4    0.09    0.21
 -14 -22   4    0.03    0.21
 -12 -22   4   -0.07    0.17
 -10 -22   4    3.75    0.44
  -8 -22   4   -0.06    0.15
  -6 -22   4    0.38    0.23
  -4 -22   4    0.05    0.15
  -2 -22   4    0.13    0.17
   0 -22   4   -0.19    0.13
   2 -22   4    0.09    0.18
   4 -22   4    0.09    0.17
   6 -22   4    0.08    0.19
   8 -22   4   -0.05    0.14
  10 -22   4    2.99    0.40
  12 -22   4    0.22    0.23
  14 -22   4    0.31    0.23
  16 -22   4    0.19    0.21
  22  20  -4    0.12    0.27
  20  20  -4   20.45    1.07
 -20 -20   4   22.22    1.04
  18  20  -4    0.08    0.21
 -18 -20   4    0.00    0.18
  16  20  -4   42.59    1.53
 -16 -20   4   41.11    1.44
  14  20  -4    0.29    0.24
 -14 -20   4    0.21    0.19
  12  20  -4   26.39    1.13
 -12 -20   4   28.16    1.11
 -10 -20   4    0.42    0.20
  -8 -20   4   82.86    2.13
  -6 -20   4    0.68    0.24
  -4 -20   4   37.60    1.25
  -2 -20   4    0.25    0.20
   0 -20   4   58.33    1.61
   2 -20   4    0.38    0.20
   4 -20   4   37.26    1.23
   6 -20   4    0.47    0.21
   8 -20   4   82.02    2.06
  10 -20   4    0.13    0.17
  12 -20   4   27.79    1.06
  14 -20   4    0.62    0.23
  16 -20   4   44.03    1.44
  18 -20   4    0.05    0.22
  18 -20   4    0.22    0.23
  20 -20   4   23.87    1.12
  22 -20   4    0.25    0.27
  24 -20   4   28.36    1.35
  26 -20   4    0.23    0.33
  28 -20   4    9.99    0.90
  30 -20   4    0.13    0.36
  22  18  -4    0.96    0.34
  20  18  -4    0.24    0.24
  20  18  -4    0.22    0.20
 -20 -18   4    0.34    0.23
  18  18  -4    0.37    0.23
 -18 -18   4    0.85    0.28
  16  18  -4    0.10    0.20
 -16 -18   4    0.17    0.16
  14  18  -4    4.60    0.47
 -14 -18   4    4.07    0.43
  12  18  -4    0.09    0.18
 -12 -18   4    0.08    0.18
  10  18  -4    1.21    0.28
 -10 -18   4    1.51    0.28
   8  18  -4    0.37    0.22
  -8 -18   4   -0.07    0.14
  -6 -18   4    0.20    0.15
  -4 -18   4   -0.08    0.13
  -2 -18   4    3.35    0.35
   0 -18   4    0.11    0.14
   2 -18   4    2.47    0.32
   4 -18   4    0.09    0.13
   6 -18   4    0.38    0.19
   8 -18   4   -0.07    0.13
   8 -18   4    0.02    0.12
  10 -18   4    1.25    0.24
  10 -18   4    0.78    0.22
  12 -18   4    0.29    0.18
  12 -18   4    0.17    0.17
  14 -18   4    4.02    0.41
  14 -18   4    3.93    0.40
  16 -18   4   -0.09    0.17
  16 -18   4    0.11    0.18
  18 -18   4    0.44    0.25
  18 -18   4    0.82    0.24
  20 -18   4    0.23    0.24
  22 -18   4    1.37    0.37
  24 -18   4    0.39    0.28
  26 -18   4    0.37    0.36
  28 -18   4   -0.28    0.28
  30 -18   4    0.92    0.42
  22  16  -4    0.15    0.25
  20  16  -4   41.62    1.31
  20  16  -4   41.44    1.45
 -20 -16   4   43.12    1.40
  18  16  -4    0.07    0.20
 -18 -16   4    0.05    0.14
  16  16  -4   73.29    1.99
 -16 -16   4   71.51    1.90
  14  16  -4    0.12    0.18
 -14 -16   4   -0.12    0.14
  12  16  -4   88.28    2.20
 -12 -16   4   85.60    2.08
  10  16  -4   -0.10    0.15
 -10 -16   4   -0.10    0.13
   8  16  -4  103.79    2.45
  -8 -16   4  106.49    2.36
   6  16  -4    0.18    0.15
  -6 -16   4    0.09    0.13
   4  16  -4  112.26    2.53
  -4 -16   4  110.49    2.41
  -2 -16   4   -0.11    0.09
   0 -16   4  105.26    2.30
   2 -16   4    0.09    0.09
   2 -16   4    0.00    0.13
   4 -16   4  110.45    2.41
   4 -16   4  116.07    2.23
   6 -16   4    0.22    0.16
   6 -16   4    0.04    0.10
   8 -16   4  114.69    2.34
   8 -16   4  110.37    2.43
  10 -16   4    0.01    0.12
  10 -16   4    0.09    0.14
  12 -16   4   94.46    2.19
  12 -16   4   95.48    2.17
  14 -16   4    0.03    0.15
  14 -16   4    0.28    0.18
  16 -16   4   80.59    2.07
  16 -16   4   77.77    1.94
  18 -16   4    0.08    0.17
  18 -16   4    0.07    0.19
  20 -16   4   43.05    1.51
  22 -16   4    0.18    0.23
  24 -16   4   22.68    1.18
  26 -16   4   -0.15    0.25
  28 -16   4   17.36    1.09
  30 -16   4    0.03    0.30
  32 -16   4   10.24    0.95
  22  14  -4    0.02    0.20
  20  14  -4    0.09    0.17
  20  14  -4    0.29    0.18
  20  14  -4    0.34    0.22
 -20 -14   4    0.12    0.18
  18  14  -4    3.20    0.35
  18  14  -4    4.38    0.44
 -18 -14   4    3.93    0.40
  16  14  -4    0.01    0.14
  16  14  -4   -0.12    0.15
 -16 -14   4    0.08    0.16
  14  14  -4    0.14    0.13
  14  14  -4    0.14    0.17
 -14 -14   4    0.27    0.17
  12  14  -4    1.43    0.26
 -12 -14   4    0.90    0.22
  10  14  -4   14.56    0.70
 -10 -14   4   14.73    0.66
   8  14  -4   -0.05    0.11
  -8 -14   4   -0.05    0.10
   6  14  -4    0.85    0.20
  -6 -14   4    1.06    0.20
   4  14  -4    0.30    0.15
  -4 -14   4   -0.03    0.09
   2  14  -4   14.16    0.64
  -2 -14   4   13.79    0.59
  -2 -14   4   13.85    0.41
   0 -14   4   -0.01    0.06
   0 -14   4    0.02    0.10
   2 -14   4   14.38    0.45
   2 -14   4   14.11    0.61
   4 -14   4    0.05    0.09
   4 -14   4    0.16    0.09
   6 -14   4    1.05    0.16
   6 -14   4    1.46    0.22
   8 -14   4    0.00    0.11
   8 -14   4    0.00    0.09
  10 -14   4   14.17    0.61
  10 -14   4   13.64    0.61
  12 -14   4    1.20    0.21
  12 -14   4    0.76    0.20
  14 -14   4    0.56    0.19
  14 -14   4    0.26    0.16
  16 -14   4    0.05    0.14
  16 -14   4   -0.07    0.14
  18 -14   4    4.98    0.49
  18 -14   4    4.37    0.41
  20 -14   4    0.31    0.24
  20 -14   4    0.30    0.21
  22 -14   4    0.62    0.27
  24 -14   4    0.67    0.31
  26 -14   4    1.93    0.45
  28 -14   4   -0.03    0.29
  30 -14   4   -0.07    0.26
  32 -14   4   -0.04    0.35
  28  12  -4   17.09    0.99
  26  12  -4    0.28    0.26
  24  12  -4   40.69    1.44
  22  12  -4   -0.08    0.18
  22  12  -4    0.15    0.21
  20  12  -4   26.88    1.01
  20  12  -4   27.10    0.93
  20  12  -4   26.14    1.04
  18  12  -4    0.22    0.16
  18  12  -4    0.22    0.16
  18  12  -4    0.45    0.21
 -18 -12   4    0.01    0.14
  16  12  -4   94.63    2.11
  16  12  -4   92.87    2.25
 -16 -12   4   92.72    2.12
  14  12  -4    0.97    0.24
  14  12  -4    1.16    0.19
 -14 -12   4    1.28    0.22
  12  12  -4   77.35    1.69
  12  12  -4   77.81    1.90
 -12 -12   4   79.41    1.81
  10  12  -4    1.08    0.15
  10  12  -4    0.96    0.20
 -10 -12   4    1.12    0.20
   8  12  -4  214.10    4.16
  -8 -12   4  219.81    4.00
   6  12  -4    1.64    0.23
  -6 -12   4    2.18    0.25
   4  12  -4  135.42    2.77
  -4 -12   4  135.96    2.66
   2  12  -4    3.00    0.28
  -2 -12   4    2.90    0.26
   0  12  -4  362.20    6.49
   0 -12   4  371.45    6.11
   0 -12   4  354.42    6.22
   2 -12   4    2.97    0.19
   2 -12   4    2.91    0.27
   4 -12   4  131.10    2.60
   4 -12   4  136.92    2.48
   6 -12   4    2.07    0.23
   6 -12   4    1.99    0.19
   8 -12   4  219.62    4.03
   8 -12   4  223.85    4.06
  10 -12   4    1.08    0.19
  10 -12   4    1.22    0.20
  12 -12   4   78.06    1.84
  12 -12   4   78.27    1.79
  14 -12   4    1.08    0.21
  14 -12   4    0.80    0.21
  16 -12   4   94.85    2.29
  16 -12   4   96.91    2.15
  18 -12   4    0.16    0.15
  18 -12   4    0.22    0.19
  20 -12   4   25.78    1.10
  20 -12   4   28.00    1.01
  22 -12   4    0.23    0.23
  24 -12   4   45.58    1.66
  26 -12   4    0.28    0.28
  28 -12   4   16.84    1.05
  30 -12   4    0.03    0.29
  32 -12   4   15.09    1.11
  34  10  -4    0.00    0.37
  32  10  -4   -0.26    0.34
  30  10  -4    1.51    0.41
  28  10  -4   -0.03    0.27
  26  10  -4    0.31    0.26
  24  10  -4    0.32    0.28
  22  10  -4    2.95    0.40
  22  10  -4    3.23    0.38
  20  10  -4    0.16    0.18
  20  10  -4    0.26    0.20
  18  10  -4    0.60    0.21
  18  10  -4    0.86    0.22
  18  10  -4    0.87    0.20
 -18 -10   4    0.91    0.21
  16  10  -4   -0.03    0.13
  16  10  -4   -0.08    0.13
 -16 -10   4   -0.04    0.12
  14  10  -4   12.70    0.55
  14  10  -4   14.07    0.64
 -14 -10   4   12.49    0.56
  12  10  -4    1.17    0.21
  12  10  -4    0.88    0.16
 -12 -10   4    0.69    0.16
  10  10  -4    5.54    0.30
  10  10  -4    4.59    0.35
 -10 -10   4    5.18    0.33
   8  10  -4    0.18    0.12
   8  10  -4    0.14    0.08
  -8 -10   4    0.04    0.09
   6  10  -4    3.96    0.31
  -6 -10   4    3.75    0.28
   4  10  -4    0.49    0.13
  -4 -10   4    0.17    0.09
   2  10  -4    2.68    0.24
  -2 -10   4    2.32    0.21
   0  10  -4    0.10    0.09
   0 -10   4    0.01    0.06
   2 -10   4    2.51    0.22
   2 -10   4    2.29    0.15
   4 -10   4    0.32    0.08
   4 -10   4    0.46    0.12
   6 -10   4    4.04    0.28
   6 -10   4    3.92    0.25
   8 -10   4    0.09    0.09
   8 -10   4    0.06    0.09
  10 -10   4    6.25    0.37
  10 -10   4    5.57    0.36
  12 -10   4    0.91    0.19
  12 -10   4    1.02    0.18
  14 -10   4   13.34    0.63
  14 -10   4   13.69    0.58
  16 -10   4    0.19    0.13
  16 -10   4    0.07    0.14
  18 -10   4    1.30    0.28
  18 -10   4    1.29    0.23
  20 -10   4    0.23    0.22
  20 -10   4    0.26    0.19
  22 -10   4    3.16    0.44
  24 -10   4    0.43    0.26
  26 -10   4    0.22    0.26
  28 -10   4    0.16    0.27
  30 -10   4    0.84    0.37
  32 -10   4    0.53    0.35
  34   8  -4    0.19    0.36
  32   8  -4   14.36    1.02
  30   8  -4   -0.01    0.29
  28   8  -4   25.96    1.22
  26   8  -4   -0.18    0.20
  24   8  -4   53.19    1.69
  22   8  -4   -0.19    0.18
  22   8  -4   -0.13    0.14
  20   8  -4   79.21    1.99
  20   8  -4   81.17    2.03
  18   8  -4   -0.07    0.12
  18   8  -4    0.04    0.14
  18   8  -4    0.12    0.14
 -18  -8   4    0.31    0.14
  16   8  -4  107.90    2.34
  16   8  -4  108.35    2.15
  16   8  -4  107.50    2.38
 -16  -8   4  105.38    2.19
  14   8  -4   -0.07    0.10
  14   8  -4    0.07    0.11
 -14  -8   4    0.11    0.11
  12   8  -4  217.60    4.18
  12   8  -4  221.89    4.03
 -12  -8   4  222.53    3.95
  10   8  -4    0.13    0.10
  10   8  -4   -0.03    0.09
 -10  -8   4    0.03    0.09
   8   8  -4  226.43    3.92
   8   8  -4  221.62    4.14
  -8  -8   4  221.40    3.93
   6   8  -4    0.09    0.06
   6   8  -4    0.05    0.08
  -6  -8   4   -0.02    0.07
  -4  -8   4  184.96    3.29
   2   8  -4    0.57    0.12
  -2  -8   4    0.46    0.11
   0   8  -4  205.36    3.78
   0  -8   4  212.48    3.67
  -2   8  -4    0.44    0.11
   2  -8   4    0.40    0.10
   4  -8   4  184.01    3.21
   4  -8   4  182.04    3.26
   6  -8   4    0.05    0.06
   6  -8   4    0.13    0.08
   8  -8   4  215.80    3.82
   8  -8   4  214.44    3.89
  10  -8   4    0.06    0.08
  10  -8   4    0.14    0.10
  12  -8   4  227.17    4.04
  12  -8   4  219.79    4.20
  14  -8   4    0.03    0.11
  14  -8   4    0.02    0.09
  16  -8   4  112.58    2.52
  16  -8   4  109.59    2.33
  18  -8   4   -0.02    0.11
  18  -8   4   -0.02    0.16
  20  -8   4   82.82    1.96
  20  -8   4   83.63    2.21
  22  -8   4    0.01    0.16
  24  -8   4   54.28    1.79
  26  -8   4    0.14    0.24
  28  -8   4   28.02    1.33
  30  -8   4    0.02    0.26
  32  -8   4   12.43    0.96
  34  -8   4    0.26    0.35
  34   6  -4   -0.12    0.34
  32   6  -4    0.12    0.33
  30   6  -4    0.03    0.30
  28   6  -4    0.17    0.26
  26   6  -4    1.15    0.35
  24   6  -4    0.28    0.26
  22   6  -4    0.62    0.26
  20   6  -4    0.44    0.21
  20   6  -4   -0.01    0.15
  18   6  -4    0.58    0.18
  18   6  -4    0.10    0.15
 -18  -6   4    0.40    0.14
  16   6  -4   -0.15    0.11
  16   6  -4    0.01    0.09
  16   6  -4   -0.04    0.11
 -16  -6   4    0.08    0.10
  14   6  -4    0.92    0.15
  14   6  -4    0.96    0.18
  14   6  -4    1.01    0.19
 -14  -6   4    0.84    0.15
  12   6  -4    1.63    0.21
  12   6  -4    1.90    0.21
 -12  -6   4    1.94    0.19
  10   6  -4    3.66    0.29
  10   6  -4    3.52    0.25
 -10  -6   4    3.88    0.24
   8   6  -4    0.10    0.08
   8   6  -4   -0.02    0.07
  -8  -6   4    0.14    0.07
   6   6  -4    9.27    0.40
   6   6  -4    8.68    0.30
  -6  -6   4    8.54    0.34
   4   6  -4    0.66    0.12
  -4  -6   4    0.66    0.11
   2   6  -4    1.71    0.16
  -2  -6   4    1.87    0.16
   0   6  -4    0.14    0.08
   0  -6   4    0.19    0.08
  -2   6  -4    1.75    0.15
   2  -6   4    1.83    0.16
   4  -6   4    0.62    0.09
   4  -6   4    0.83    0.12
   6  -6   4    7.77    0.34
   6  -6   4    8.57    0.34
   8  -6   4    0.07    0.08
   8  -6   4    0.07    0.08
  10  -6   4    3.66    0.26
  10  -6   4    3.54    0.27
  12  -6   4    1.57    0.21
  12  -6   4    1.13    0.17
  14  -6   4    1.11    0.22
  14  -6   4    0.73    0.16
  16  -6   4   -0.05    0.13
  16  -6   4    0.39    0.14
  18  -6   4    0.49    0.17
  18  -6   4    0.47    0.19
  20  -6   4    0.59    0.23
  20  -6   4    0.96    0.22
  22  -6   4    0.46    0.23
  22  -6   4    0.54    0.22
  24  -6   4    0.31    0.23
  26  -6   4    1.60    0.39
  28  -6   4    0.10    0.25
  30  -6   4    0.58    0.33
  32  -6   4   -0.01    0.27
  34  -6   4    0.20    0.29
  34   4  -4    0.36    0.38
  32   4  -4   14.04    0.98
  30   4  -4   -0.28    0.26
  28   4  -4   19.17    1.05
  26   4  -4    0.15    0.25
  24   4  -4   78.93    2.18
  22   4  -4    0.21    0.22
  20   4  -4   39.02    1.28
  20   4  -4   37.59    1.16
  18   4  -4    0.03    0.12
  18   4  -4    0.07    0.14
  16   4  -4  117.67    2.52
  16   4  -4  116.04    2.45
 -16  -4   4  113.19    2.20
  14   4  -4    0.02    0.09
  14   4  -4    0.05    0.11
 -14  -4   4    0.18    0.09
  12   4  -4  135.38    2.43
  12   4  -4  139.56    2.72
  12   4  -4  135.65    2.71
 -12  -4   4  137.86    2.47
  10   4  -4    0.46    0.12
  10   4  -4    0.51    0.12
 -10  -4   4    0.32    0.08
   8   4  -4  184.56    3.40
   8   4  -4  184.17    3.30
  -8  -4   4  182.38    3.14
   6   4  -4    0.63    0.09
   6   4  -4    0.51    0.10
  -6  -4   4    0.46    0.08
   4   4  -4   20.96    0.59
  -4  -4   4   21.62    0.52
   2   4  -4    0.79    0.11
  -2  -4   4    1.06    0.11
   0   4  -4  340.99    5.77
   0  -4   4  335.62    5.54
   2  -4   4    0.79    0.10
   4  -4   4   21.54    0.56
   4  -4   4   21.50    0.52
   6  -4   4    0.53    0.10
   6  -4   4    0.58    0.11
   8  -4   4  185.08    3.26
   8  -4   4  182.86    3.37
  10  -4   4    0.41    0.12
  10  -4   4    0.60    0.12
  12  -4   4  139.36    2.77
  12  -4   4  136.36    2.62
  14  -4   4    0.21    0.13
  14  -4   4    0.26    0.11
  16  -4   4  109.47    2.46
  16  -4   4  112.56    2.29
  18  -4   4   -0.03    0.11
  18  -4   4    0.08    0.16
  20  -4   4   37.84    1.14
  20  -4   4   39.55    1.32
  22  -4   4    0.15    0.17
  22  -4   4    0.27    0.20
  24  -4   4   76.12    2.19
  26  -4   4    0.11    0.21
  28  -4   4   19.73    1.08
  30  -4   4    0.13    0.26
  32  -4   4   16.92    1.08
  34  -4   4    0.29    0.34
  34   2  -4    0.27    0.38
  32   2  -4   -0.12    0.29
  30   2  -4   -0.17    0.26
  28   2  -4    0.28    0.29
  26   2  -4    0.97    0.35
  24   2  -4    0.98    0.33
  22   2  -4    0.22    0.21
  20   2  -4    0.03    0.15
  20   2  -4    0.77    0.24
  18   2  -4    3.42    0.30
  18   2  -4    2.58    0.34
  16   2  -4   -0.09    0.11
  16   2  -4   -0.09    0.11
 -16  -2   4   -0.03    0.07
  14   2  -4   13.84    0.60
  14   2  -4   14.45    0.58
 -14  -2   4   14.04    0.44
  12   2  -4    2.38    0.24
  12   2  -4    3.06    0.27
 -12  -2   4    2.95    0.18
  10   2  -4    2.22    0.14
  10   2  -4    2.50    0.21
  10   2  -4    2.39    0.21
 -10  -2   4    2.20    0.14
   8   2  -4    0.57    0.12
   8   2  -4    0.33    0.10
  -8  -2   4    0.33    0.06
   6   2  -4    1.66    0.16
   6   2  -4    2.03    0.16
  -6  -2   4    1.85    0.12
   4   2  -4    0.65    0.10
  -4  -2   4    0.76    0.07
   2   2  -4   19.19    0.49
  -2  -2   4   18.36    0.41
   0  -2   4    0.10    0.04
   2  -2   4   16.83    0.42
   4  -2   4    0.94    0.10
   6  -2   4    1.85    0.16
   6  -2   4    1.55    0.15
   8  -2   4    0.53    0.10
   8  -2   4    0.27    0.09
  10  -2   4    2.16    0.21
  10  -2   4    2.57    0.21
  12  -2   4    2.82    0.24
  12  -2   4    2.94    0.27
  14  -2   4   12.50    0.58
  14  -2   4   12.72    0.53
  16  -2   4   -0.03    0.10
  16  -2   4    0.04    0.12
  18  -2   4    2.84    0.28
  18  -2   4    2.95    0.35
  20  -2   4    0.02    0.17
  20  -2   4    0.24    0.15
 -22   2  -4    0.04    0.15
  22  -2   4   -0.02    0.14
  24  -2   4    0.13    0.24
  26  -2   4    0.50    0.29
  28  -2   4    0.08    0.22
  30  -2   4    0.08    0.24
  32  -2   4    0.54    0.34
  34  -2   4    0.43    0.40
  34   0  -4   -0.01    0.34
  32   0  -4   16.39    1.09
  30   0  -4   -0.07    0.29
  28   0  -4   29.66    1.37
  26   0  -4   -0.11    0.21
  24   0  -4   49.31    1.67
  22   0  -4    0.02    0.22
  20   0  -4   61.33    1.56
  20   0  -4   58.09    1.70
  18   0  -4   -0.09    0.14
  18   0  -4    0.03    0.10
  16   0  -4  103.93    2.37
  16   0  -4  108.52    2.27
 -16   0   4  106.65    1.96
  14   0  -4   -0.11    0.10
  14   0  -4    0.05    0.09
 -14   0   4    0.05    0.06
  12   0  -4  374.57    6.55
  12   0  -4  373.30    6.57
 -12   0   4  367.13    6.05
  10   0  -4   -0.05    0.08
 -10   0   4    0.00    0.04
   8   0  -4  205.82    3.72
  -8   0   4  210.40    3.43
   6   0  -4    0.12    0.07
  -6   0   4    0.10    0.03
   4   0  -4  341.26    5.69
  -4   0   4  333.62    5.80
  -2   0   4    0.11    0.03
   0   0   4  621.26   10.14
   2   0   4    0.15    0.05
   4   0   4  337.92    5.58
   4   0   4  339.35    5.72
   6   0   4    0.13    0.07
   6   0   4    0.13    0.07
   8   0   4  197.83    3.58
   8   0   4  198.28    3.47
  10   0   4   -0.03    0.06
  10   0   4    0.03    0.07
  12   0   4  357.06    6.07
  14   0   4    0.08    0.09
  14   0   4   -0.02    0.10
  16   0   4  107.36    2.40
  16   0   4  108.43    2.22
 -18   0  -4   -0.15    0.07
  18   0   4   -0.06    0.14
 -20   0  -4   59.50    1.48
  20   0   4   55.20    1.64
 -22   0  -4    0.15    0.14
  22   0   4   -0.24    0.17
  24   0   4   44.47    1.54
  26   0   4    0.04    0.22
  28   0   4   25.73    1.25
  30   0   4   -0.15    0.24
  32   0   4   16.00    1.06
  34   0   4   -0.31    0.35
  34  -2  -4    0.39    0.42
  32  -2  -4    0.06    0.32
  30  -2  -4    0.17    0.32
  28  -2  -4    0.01    0.26
  26  -2  -4    0.92    0.34
  24  -2  -4    0.66    0.30
  22  -2  -4   -0.11    0.19
  20  -2  -4    0.69    0.25
  20  -2  -4    0.54    0.19
  18  -2  -4    2.64    0.28
  18  -2  -4    3.36    0.38
  16  -2  -4    0.33    0.17
  14  -2  -4   13.42    0.61
 -14   2   4   13.21    0.38
  12  -2  -4    2.57    0.26
 -12   2   4    2.98    0.15
  10  -2  -4    2.13    0.21
 -10   2   4    2.22    0.11
   8  -2  -4    0.36    0.11
   6  -2  -4    1.82    0.17
   4  -2  -4    1.00    0.12
   4  -2  -4    0.94    0.06
   2  -2  -4   18.92    0.39
   2  -2  -4   18.26    0.47
   0  -2  -4    0.18    0.04
  -2  -2  -4   17.07    0.43
  -4  -2  -4    0.68    0.09
   4   2   4    1.02    0.11
   4   2   4    0.72    0.10
  -6  -2  -4    1.37    0.13
   6   2   4    1.37    0.13
   6   2   4    1.58    0.15
  -8  -2  -4    0.32    0.09
   8   2   4    0.26    0.09
 -10  -2  -4    2.13    0.19
  10   2   4    1.79    0.20
 -12  -2  -4    3.35    0.25
  12   2   4    2.97    0.27
 -14  -2  -4   13.85    0.54
  14   2   4   12.93    0.39
  14   2   4   12.85    0.58
 -16  -2  -4    0.00    0.11
  16   2   4   -0.08    0.10
 -18  -2  -4    2.64    0.27
  18   2   4    2.62    0.33
 -20  -2  -4    0.35    0.19
  20   2   4    0.55    0.22
 -22  -2  -4   -0.09    0.12
  22   2   4    0.03    0.20
  24   2   4    0.23    0.24
  26   2   4    0.68    0.29
  28   2   4    0.11    0.25
  30   2   4    0.21    0.28
  32   2   4   -0.17    0.30
  34   2   4    0.13    0.34
  34  -4  -4   -0.14    0.34
  32  -4  -4   14.36    1.07
  30  -4  -4    0.05    0.30
  28  -4  -4   18.72    1.09
  26  -4  -4    0.01    0.26
  24  -4  -4   81.72    2.31
  22  -4  -4    0.00    0.19
  20  -4  -4   38.00    1.32
  18  -4  -4    0.02    0.15
  14  -4  -4    0.16    0.13
  14  -4  -4    0.13    0.06
  12  -4  -4  135.42    2.75
  12  -4  -4  137.73    2.34
  10  -4  -4    0.35    0.06
  10  -4  -4    0.56    0.14
   8  -4  -4  184.01    3.04
   6  -4  -4    0.55    0.11
   6  -4  -4    0.55    0.06
   4  -4  -4   20.26    0.44
   4  -4  -4   20.13    0.56
   2  -4  -4    1.06    0.09
   2  -4  -4    0.86    0.11
   0  -4  -4  337.04    5.51
  -2  -4  -4    1.02    0.11
  -4  -4  -4   22.26    0.58
   4   4   4   20.90    0.56
  -6  -4  -4    0.49    0.10
   6   4   4    0.48    0.10
  -8  -4  -4  178.56    3.21
   8   4   4  181.69    3.31
 -10  -4  -4    0.46    0.12
  10   4   4    0.32    0.11
 -12  -4  -4  132.14    2.56
  12   4   4  132.10    2.66
  12   4   4  133.52    2.43
 -14  -4  -4    0.03    0.09
  14   4   4    0.17    0.12
  14   4   4    0.01    0.06
 -16  -4  -4  112.98    2.35
  16   4   4  113.83    2.51
 -18  -4  -4    0.10    0.13
  18   4   4   -0.09    0.12
 -20  -4  -4   37.42    1.15
  20   4   4   38.67    1.30
 -22  -4  -4    0.01    0.15
  22   4   4   -0.28    0.14
 -24  -4  -4   76.80    1.94
  24   4   4   74.64    2.14
  26   4   4    0.05    0.22
  28   4   4   16.87    0.98
  30   4   4   -0.21    0.23
  32   4   4   14.61    1.03
  34   4   4    0.16    0.37
  34  -6  -4    0.12    0.41
  32  -6  -4   -0.11    0.33
  30  -6  -4    0.11    0.34
  28  -6  -4    0.05    0.31
  26  -6  -4    1.56    0.40
  24  -6  -4    0.36    0.27
  22  -6  -4    0.92    0.32
  20  -6  -4    0.78    0.27
  18  -6  -4    0.39    0.20
  16  -6  -4    0.12    0.16
  14  -6  -4    1.05    0.12
  14  -6  -4    0.98    0.21
  12  -6  -4    2.04    0.25
  12  -6  -4    1.85    0.14
  10  -6  -4    3.74    0.29
  10  -6  -4    3.82    0.18
   8  -6  -4    0.13    0.08
   8  -6  -4    0.14    0.05
   6  -6  -4    8.92    0.39
   6  -6  -4    8.63    0.28
   4  -6  -4    0.57    0.09
   4  -6  -4    0.58    0.11
   2  -6  -4    1.61    0.15
   2  -6  -4    1.76    0.14
   0  -6  -4    0.17    0.08
  -2  -6  -4    1.63    0.15
  -4  -6  -4    0.78    0.12
  -6  -6  -4    9.11    0.38
   6   6   4    8.00    0.36
  -8  -6  -4    0.11    0.08
   8   6   4    0.07    0.08
   8   6   4    0.07    0.07
 -10  -6  -4    3.52    0.27
  10   6   4    3.65    0.28
 -12  -6  -4    1.48    0.20
  12   6   4    1.80    0.23
 -14  -6  -4    0.82    0.18
  14   6   4    0.75    0.18
  14   6   4    0.75    0.13
 -16  -6  -4    0.05    0.12
  16   6   4    0.16    0.14
 -18  -6  -4    0.35    0.15
  18   6   4    0.59    0.22
 -20  -6  -4    0.39    0.18
  20   6   4    0.74    0.25
 -22  -6  -4    0.50    0.21
  22   6   4    0.45    0.25
 -24  -6  -4    0.03    0.19
  24   6   4    0.58    0.27
  26   6   4    1.51    0.38
  28   6   4    0.00    0.24
  30   6   4   -0.01    0.26
  32   6   4    0.27    0.32
  34   6   4    0.07    0.37
  34  -8  -4    0.14    0.37
  32  -8  -4   15.91    1.13
  30  -8  -4   -0.46    0.27
  28  -8  -4   28.90    1.39
  26  -8  -4    0.04    0.22
  24  -8  -4   52.16    1.77
  22  -8  -4    0.07    0.20
  20  -8  -4   78.37    2.14
  18  -8  -4    0.14    0.19
  16  -8  -4  109.36    2.51
  14  -8  -4    0.21    0.15
  14  -8  -4    0.17    0.08
  12  -8  -4  223.26    4.30
  12  -8  -4  229.77    3.86
  10  -8  -4    0.27    0.13
  10  -8  -4    0.09    0.07
   8  -8  -4  223.06    3.76
   8  -8  -4  221.57    4.10
   6  -8  -4    0.09    0.06
   6  -8  -4    0.04    0.09
   4  -8  -4  180.20    3.07
   4  -8  -4  172.63    3.23
   2  -8  -4    0.40    0.10
   2  -8  -4    0.34    0.10
   0  -8  -4  199.94    3.48
  -2  -8  -4    0.32    0.10
  -4  -8  -4  181.62    3.25
  -6  -8  -4    0.17    0.09
  -8  -8  -4  226.71    4.03
   8   8   4  222.74    3.99
 -10  -8  -4    0.14    0.10
  10   8   4    0.05    0.09
  10   8   4    0.05    0.10
 -12  -8  -4  214.88    4.05
  12   8   4  222.01    4.03
  12   8   4  228.14    4.20
 -14  -8  -4    0.06    0.11
  14   8   4    0.12    0.12
 -16  -8  -4  105.62    2.30
  16   8   4  106.30    2.39
 -18  -8  -4    0.13    0.15
  18   8   4    0.01    0.14
 -20  -8  -4   80.69    1.98
  20   8   4   81.74    2.11
 -22  -8  -4    0.28    0.18
  22   8   4    0.00    0.18
 -24  -8  -4   55.34    1.61
  24   8   4   50.30    1.69
  26   8   4    0.14    0.23
  28   8   4   28.93    1.32
  30   8   4    0.11    0.26
  32   8   4   13.76    1.01
  34   8   4    0.09    0.37
  32 -10  -4    0.56    0.36
  30 -10  -4    1.89    0.49
  28 -10  -4    0.75    0.35
  26 -10  -4   -0.04    0.21
  24 -10  -4    0.53    0.27
  22 -10  -4    3.09    0.45
  20 -10  -4    0.42    0.23
  18 -10  -4    1.12    0.29
  16 -10  -4    0.06    0.15
  14 -10  -4   14.08    0.48
  14 -10  -4   13.82    0.68
  12 -10  -4    1.10    0.21
  12 -10  -4    1.14    0.14
  10 -10  -4    5.74    0.39
  10 -10  -4    6.24    0.30
   8 -10  -4    0.14    0.10
   8 -10  -4    0.15    0.09
   6 -10  -4    4.03    0.25
   6 -10  -4    3.65    0.28
   4 -10  -4    0.23    0.10
   4 -10  -4    0.31    0.11
   2 -10  -4    2.56    0.22
   2 -10  -4    1.95    0.19
   0 -10  -4    0.01    0.06
   0 -10  -4    0.10    0.08
  -2 -10  -4    2.12    0.21
  -4 -10  -4    0.25    0.12
  -6 -10  -4    4.09    0.30
  -8 -10  -4    0.10    0.09
 -10 -10  -4    5.24    0.36
  10  10   4    5.53    0.37
 -12 -10  -4    1.23    0.22
  12  10   4    0.99    0.20
 -14 -10  -4   13.57    0.62
  14  10   4   13.27    0.61
  14  10   4   13.22    0.60
 -16 -10  -4   -0.06    0.13
  16  10   4    0.04    0.13
 -18 -10  -4    0.99    0.24
  18  10   4    1.29    0.27
 -20 -10  -4    0.51    0.20
  20  10   4    0.38    0.21
 -22 -10  -4    3.22    0.38
  22  10   4    3.01    0.41
 -24 -10  -4    0.52    0.24
  24  10   4    0.58    0.28
  26  10   4    0.05    0.24
  28  10   4   -0.12    0.25
  30  10   4    1.63    0.45
  32  10   4   -0.36    0.29
  34  10   4    0.17    0.35
  32 -12  -4   11.85    1.01
  30 -12  -4    0.02    0.30
  28 -12  -4   16.66    1.06
  26 -12  -4    0.43    0.28
  24 -12  -4   42.67    1.61
  22 -12  -4    0.18    0.25
  20 -12  -4   29.31    1.21
  18 -12  -4   -0.05    0.16
  16 -12  -4   93.92    2.31
  14 -12  -4    1.03    0.16
  14 -12  -4    1.30    0.26
  12 -12  -4   79.65    1.63
  12 -12  -4   78.30    1.91
  10 -12  -4    1.17    0.21
  10 -12  -4    0.96    0.15
   8 -12  -4  220.70    4.26
   8 -12  -4  232.97    4.02
   6 -12  -4    1.71    0.21
   6 -12  -4    1.80    0.20
   4 -12  -4  136.32    2.52
   4 -12  -4  126.67    2.59
   2 -12  -4    3.03    0.27
   2 -12  -4    3.05    0.25
   0 -12  -4  357.30    6.25
   0 -12  -4  356.81    6.11
  -2 -12  -4    3.12    0.27
  -4 -12  -4  132.82    2.62
  -6 -12  -4    2.04    0.25
  -8 -12  -4  217.10    4.03
 -10 -12  -4    1.04    0.21
 -12 -12  -4   75.57    1.81
  12  12   4   74.76    1.78
 -14 -12  -4    1.47    0.26
  14  12   4    1.45    0.25
 -16 -12  -4   90.50    2.15
  16  12   4   90.86    2.11
 -18 -12  -4    0.22    0.18
  18  12   4    0.19    0.17
 -20 -12  -4   26.05    1.03
  20  12   4   27.90    1.08
 -22 -12  -4   -0.03    0.18
  22  12   4   -0.22    0.20
 -24 -12  -4   40.46    1.39
  24  12   4   38.11    1.46
  26  12   4    0.06    0.23
  28  12   4   15.51    0.98
  30  12   4   -0.05    0.32
  32  12   4   13.66    1.04
  32 -14  -4    0.46    0.36
  30 -14  -4    0.27    0.37
  28 -14  -4    0.17    0.30
  26 -14  -4    1.65    0.42
  24 -14  -4    0.54    0.30
  22 -14  -4    0.26    0.25
  20 -14  -4    0.16    0.22
  18 -14  -4    4.42    0.48
  16 -14  -4    0.13    0.18
  14 -14  -4    0.23    0.17
  12 -14  -4    0.91    0.23
  12 -14  -4    1.08    0.18
  10 -14  -4   13.92    0.55
  10 -14  -4   13.56    0.64
   8 -14  -4    0.06    0.11
   8 -14  -4    0.00    0.10
   6 -14  -4    1.26    0.21
   6 -14  -4    0.76    0.16
   4 -14  -4    0.08    0.09
   4 -14  -4   -0.03    0.09
   2 -14  -4   12.99    0.55
   2 -14  -4   12.76    0.55
   0 -14  -4   -0.05    0.10
   0 -14  -4    0.02    0.09
  -2 -14  -4   12.24    0.56
  -4 -14  -4    0.03    0.11
  -6 -14  -4    1.33    0.23
  -8 -14  -4    0.40    0.16
 -10 -14  -4   13.15    0.64
 -12 -14  -4    1.63    0.27
  12  14   4    1.32    0.26
 -14 -14  -4    0.22    0.18
  14  14   4    0.26    0.15
 -16 -14  -4   -0.09    0.14
  16  14   4   -0.11    0.15
 -18 -14  -4    4.80    0.46
  18  14   4    3.79    0.41
 -20 -14  -4    0.01    0.17
 -22 -14  -4    0.18    0.21
 -24 -14  -4    0.46    0.24
  26  14   4    1.26    0.38
  28  14   4    0.03    0.29
  30  14   4   -0.31    0.29
  32  14   4    0.09    0.32
  30 -16  -4    0.40    0.38
  28 -16  -4   17.52    1.12
  26 -16  -4    0.03    0.26
  24 -16  -4   25.65    1.28
  22 -16  -4    0.31    0.26
  20 -16  -4   41.45    1.51
  18 -16  -4    0.12    0.21
  16 -16  -4   78.49    2.11
  14 -16  -4    0.40    0.22
  12 -16  -4   96.35    2.03
  12 -16  -4   90.82    2.24
  10 -16  -4    0.11    0.12
  10 -16  -4    0.05    0.13
   8 -16  -4  107.58    2.25
   8 -16  -4  107.52    2.40
   6 -16  -4    0.07    0.11
   6 -16  -4    0.07    0.12
   4 -16  -4  109.71    2.28
   4 -16  -4  105.42    2.29
   2 -16  -4    0.04    0.13
   2 -16  -4    0.05    0.12
   0 -16  -4  101.84    2.19
   0 -16  -4  104.33    2.25
  -2 -16  -4    0.30    0.14
  -2 -16  -4   -0.10    0.09
  -4 -16  -4  110.20    2.41
  -6 -16  -4    0.06    0.15
  -8 -16  -4  108.22    2.43
 -10 -16  -4    0.06    0.16
 -12 -16  -4   92.18    2.24
 -14 -16  -4    0.02    0.16
  14  16   4    0.04    0.15
 -16 -16  -4   72.75    2.00
  16  16   4   78.93    1.99
 -18 -16  -4   -0.16    0.16
  18  16   4    0.15    0.18
 -20 -16  -4   41.54    1.44
 -22 -16  -4    0.15    0.21
 -24 -16  -4   21.83    1.07
 -26 -16  -4    0.06    0.26
  30 -18  -4    0.78    0.45
  28 -18  -4    0.40    0.37
  26 -18  -4    0.35    0.32
  24 -18  -4    0.36    0.31
  22 -18  -4    1.40    0.40
  20 -18  -4    0.21    0.25
  18 -18  -4    0.47    0.25
  16 -18  -4    0.00    0.18
  14 -18  -4    4.98    0.48
  12 -18  -4    0.39    0.17
  12 -18  -4    0.23    0.17
  10 -18  -4    1.29    0.25
  10 -18  -4    0.84    0.20
   8 -18  -4    0.09    0.13
   8 -18  -4    0.07    0.13
   6 -18  -4    0.27    0.15
   6 -18  -4    0.39    0.16
   4 -18  -4   -0.03    0.10
   4 -18  -4   -0.07    0.13
   2 -18  -4    2.97    0.30
   2 -18  -4    2.68    0.32
   0 -18  -4   -0.09    0.09
   0 -18  -4    0.09    0.15
  -2 -18  -4    2.97    0.35
  -2 -18  -4    2.72    0.28
  -4 -18  -4   -0.16    0.13
  -6 -18  -4    0.18    0.18
  -8 -18  -4    0.20    0.17
 -10 -18  -4    0.89    0.26
 -12 -18  -4    0.18    0.20
 -14 -18  -4    4.36    0.45
  14  18   4    4.35    0.46
 -16 -18  -4    0.01    0.19
  16  18   4    0.32    0.20
 -18 -18  -4    0.31    0.24
  18  18   4    0.61    0.24
 -20 -18  -4    0.27    0.22
  20  18   4    0.18    0.20
 -22 -18  -4    1.50    0.36
 -24 -18  -4    0.15    0.26
 -26 -18  -4    0.21    0.31
  28 -20  -4   10.03    0.93
  26 -20  -4    0.02    0.31
  24 -20  -4   24.00    1.29
  22 -20  -4   -0.03    0.26
  20 -20  -4   22.28    1.12
  18 -20  -4    0.22    0.24
  16 -20  -4   45.02    1.55
  14 -20  -4    0.25    0.22
  12 -20  -4   27.25    1.08
  12 -20  -4   27.51    0.99
  10 -20  -4    0.13    0.18
  10 -20  -4    0.49    0.21
   8 -20  -4   81.31    2.02
   8 -20  -4   80.16    1.96
   6 -20  -4    0.70    0.22
   6 -20  -4    0.65    0.22
   4 -20  -4   37.71    1.17
   4 -20  -4   37.85    1.20
   2 -20  -4    0.03    0.15
   2 -20  -4    0.65    0.23
   0 -20  -4   55.01    1.57
   0 -20  -4   59.27    1.53
  -2 -20  -4    0.56    0.23
  -2 -20  -4    0.49    0.19
  -4 -20  -4   36.52    1.14
  -4 -20  -4   37.85    1.27
  -6 -20  -4    0.92    0.27
  -8 -20  -4   82.15    2.14
 -10 -20  -4    0.41    0.22
 -12 -20  -4   25.86    1.09
 -14 -20  -4    0.08    0.20
 -16 -20  -4   42.82    1.50
  16  20   4   40.82    1.43
 -18 -20  -4    0.11    0.24
  18  20   4    0.03    0.18
 -20 -20  -4   21.39    1.07
  20  20   4   22.48    1.05
 -22 -20  -4    0.07    0.23
  22  20   4    0.23    0.22
 -24 -20  -4   25.59    1.24
 -26 -20  -4    0.16    0.30
  28 -22  -4   -0.02    0.35
  26 -22  -4    0.56    0.37
  24 -22  -4   -0.40    0.29
  22 -22  -4    1.16    0.41
  20 -22  -4    0.10    0.27
  18 -22  -4    1.31    0.37
  16 -22  -4    0.12    0.24
  14 -22  -4    0.46    0.27
  12 -22  -4    0.00    0.17
  12 -22  -4   -0.34    0.15
  10 -22  -4    2.95    0.39
  10 -22  -4    2.72    0.35
   8 -22  -4    0.09    0.17
   8 -22  -4    0.01    0.18
   6 -22  -4    0.86    0.25
   6 -22  -4    0.70    0.23
   4 -22  -4    0.05    0.15
   4 -22  -4    0.41    0.18
   2 -22  -4    0.08    0.14
   2 -22  -4   -0.18    0.15
   0 -22  -4    0.09    0.18
   0 -22  -4   -0.11    0.11
  -2 -22  -4   -0.11    0.12
  -2 -22  -4    0.08    0.18
  -4 -22  -4    0.10    0.21
  -4 -22  -4    0.01    0.13
  -6 -22  -4    0.67    0.28
  -8 -22  -4   -0.01    0.19
 -10 -22  -4    2.55    0.41
 -12 -22  -4    0.14    0.20
 -14 -22  -4    0.14    0.21
 -16 -22  -4    0.26    0.26
  16  22   4    0.22    0.23
 -18 -22  -4    1.48    0.37
  18  22   4    1.45    0.36
 -20 -22  -4    0.43    0.30
  20  22   4    0.06    0.25
 -22 -22  -4    1.26    0.40
  22  22   4    2.74    0.47
 -24 -22  -4    0.39    0.33
  26 -24  -4   -0.37    0.30
  24 -24  -4   12.32    0.97
  22 -24  -4   -0.15    0.28
  20 -24  -4   27.72    1.32
  18 -24  -4    0.26    0.27
  16 -24  -4   23.35    1.12
  14 -24  -4    0.07    0.24
  12 -24  -4   40.65    1.43
  10 -24  -4    0.30    0.25
  10 -24  -4    0.47    0.24
   8 -24  -4   50.71    1.57
   8 -24  -4   53.20    1.59
   6 -24  -4   -0.01    0.20
   6 -24  -4   -0.22    0.19
   4 -24  -4   72.90    1.98
   4 -24  -4   77.31    1.97
   2 -24  -4    0.42    0.25
   2 -24  -4    0.43    0.24
   0 -24  -4   44.45    1.48
  -2 -24  -4    0.30    0.24
  -4 -24  -4   76.51    2.13
  -6 -24  -4    0.06    0.21
  -8 -24  -4   53.70    1.77
 -10 -24  -4    0.43    0.25
 -12 -24  -4   42.28    1.55
 -14 -24  -4    0.14    0.25
 -16 -24  -4   21.39    1.10
  16  24   4   19.91    1.06
 -18 -24  -4   -0.03    0.26
  18  24   4   -0.03    0.25
 -20 -24  -4   24.99    1.26
  20  24   4   25.10    1.22
 -22 -24  -4   -0.41    0.25
  22  24   4    0.11    0.29
  24 -26  -4    0.18    0.38
  22 -26  -4    1.49    0.44
  20 -26  -4   -0.03    0.30
  18 -26  -4    0.04    0.30
  16 -26  -4    0.29    0.28
  10 -26  -4   -0.04    0.21
   8 -26  -4   -0.09    0.19
   6 -26  -4    1.81    0.36
   4 -26  -4   -0.04    0.19
   2 -26  -4    0.27    0.24
   0 -26  -4   -0.08    0.19
  -2 -26  -4    0.18    0.23
  -4 -26  -4   -0.04    0.21
  -6 -26  -4    1.41    0.38
  -8 -26  -4    0.11    0.25
 -10 -26  -4    0.44    0.27
 -12 -26  -4   -0.10    0.19
 -14 -26  -4    1.87    0.44
 -16 -26  -4   -0.07    0.22
  16  26   4    0.19    0.29
 -18 -26  -4   -0.13    0.23
  18  26   4    0.14    0.30
  20  26   4    0.29    0.30
  10 -28  -4    0.32    0.26
   8 -28  -4   25.58    1.14
   6 -28  -4    0.39    0.28
   4 -28  -4   18.80    0.99
   2 -28  -4    0.06    0.24
   0 -28  -4   28.84    1.26
  -2 -28  -4    0.13    0.26
  -4 -28  -4   16.37    0.97
  -6 -28  -4    0.07    0.24
  -8 -28  -4   25.91    1.26
 -10 -28  -4    0.10    0.24
 -12 -28  -4   16.49    1.01
 -14 -28  -4   -0.03    0.26
  16  28   4   17.59    1.08
   8 -30  -4    0.34    0.29
   6 -30  -4    0.14    0.25
   4 -30  -4   -0.15    0.20
   2 -30  -4   -0.08    0.25
   0 -30  -4    0.19    0.26
  -2 -30  -4   -0.16    0.23
  -4 -30  -4   -0.20    0.25
  -6 -30  -4    0.38    0.31
  -8 -30  -4    0.08    0.31
 -10 -30  -4    0.84    0.38
   8 -32  -4   13.77    0.93
   6 -32  -4   -0.08    0.29
   4 -32  -4   13.58    0.94
   2 -32  -4    0.45    0.33
   0 -32  -4   13.58    0.95
  -2 -32  -4    0.22    0.33
  -5 -31   5    0.11    0.23
  -3 -31   5   -0.06    0.23
  -1 -31   5   -0.15    0.26
   1 -31   5    0.31    0.30
   3 -31   5   -0.06    0.26
   5 -31   5   -0.19    0.28
   7 -31   5    0.05    0.30
   9 -31   5    0.00    0.28
 -13 -29   5    0.13    0.25
 -11 -29   5    0.18    0.26
  -9 -29   5    0.18    0.28
  -7 -29   5   -0.11    0.21
  -5 -29   5   -0.09    0.19
  -3 -29   5   -0.15    0.18
  -1 -29   5    0.26    0.25
   1 -29   5    0.00    0.21
   3 -29   5    0.03    0.23
   5 -29   5    0.02    0.25
   7 -29   5   -0.40    0.19
   9 -29   5    0.17    0.27
  11 -29   5    0.11    0.27
  13 -29   5    0.12    0.28
  15 -29   5    0.15    0.30
 -19 -27   5    0.12    0.27
 -17 -27   5    0.01    0.26
 -15 -27   5   -0.03    0.23
 -13 -27   5    0.05    0.23
 -11 -27   5    0.24    0.25
  -9 -27   5    0.15    0.21
  -7 -27   5    0.03    0.19
  -5 -27   5    0.09    0.18
  -3 -27   5    0.05    0.23
  -1 -27   5    0.15    0.25
   1 -27   5    0.49    0.28
   3 -27   5   -0.09    0.18
   5 -27   5   -0.09    0.21
   7 -27   5   -0.25    0.19
   9 -27   5    0.13    0.26
  11 -27   5   -0.01    0.22
  13 -27   5    0.27    0.26
  15 -27   5   -0.07    0.26
 -19 -25   5    0.20    0.26
 -17 -25   5    0.23    0.24
 -15 -25   5    0.11    0.23
 -13 -25   5    0.14    0.24
 -11 -25   5   -0.11    0.17
  -9 -25   5   -0.05    0.19
  -7 -25   5   -0.06    0.17
  -5 -25   5   -0.09    0.17
  -3 -25   5    0.19    0.19
  -1 -25   5    0.02    0.19
   1 -25   5   -0.06    0.18
   3 -25   5    0.53    0.26
   5 -25   5    0.03    0.20
   7 -25   5    0.06    0.20
   9 -25   5   -0.02    0.20
  11 -25   5    0.28    0.24
  13 -25   5    0.03    0.23
  15 -25   5    0.03    0.25
  17 -25   5   -0.18    0.24
 -19 -23   5    0.09    0.23
 -17 -23   5   -0.11    0.19
 -15 -23   5    0.25    0.23
 -13 -23   5    0.62    0.27
 -11 -23   5    0.31    0.22
  -9 -23   5    0.11    0.18
  -7 -23   5    1.21    0.29
  -5 -23   5    0.24    0.19
  -3 -23   5    0.58    0.23
  -1 -23   5    0.05    0.18
   1 -23   5   -0.18    0.16
   3 -23   5    0.97    0.28
   5 -23   5   -0.15    0.19
   7 -23   5    0.89    0.28
   9 -23   5    0.14    0.20
  11 -23   5    0.69    0.27
  13 -23   5   -0.02    0.22
  15 -23   5    0.20    0.24
  17 -23   5    0.28    0.27
  23  21  -5    0.15    0.30
  21  21  -5    0.09    0.26
  19  21  -5    0.10    0.25
 -19 -21   5   -0.17    0.21
  17  21  -5   -0.08    0.22
 -17 -21   5    0.33    0.23
  15  21  -5    0.21    0.24
 -15 -21   5   -0.16    0.16
  13  21  -5   -0.09    0.19
 -13 -21   5   -0.02    0.18
  11  21  -5    0.11    0.21
 -11 -21   5    0.39    0.21
  -9 -21   5    0.13    0.17
  -7 -21   5    0.25    0.18
  -5 -21   5   -0.04    0.13
  -3 -21   5    0.07    0.15
  -1 -21   5    0.14    0.14
   1 -21   5   -0.07    0.14
   3 -21   5    0.02    0.15
   5 -21   5    0.16    0.17
   7 -21   5    0.18    0.20
   9 -21   5    0.11    0.16
  11 -21   5    0.29    0.20
  13 -21   5   -0.08    0.17
  15 -21   5    0.06    0.20
  17 -21   5    0.15    0.20
  19 -21   5   -0.23    0.20
  23  19  -5   -0.07    0.27
  21  19  -5    0.11    0.26
  19  19  -5   -0.08    0.22
 -19 -19   5   -0.01    0.19
  17  19  -5    0.31    0.27
 -17 -19   5    0.48    0.25
  15  19  -5    0.23    0.25
 -15 -19   5    0.49    0.24
  13  19  -5    0.03    0.20
 -13 -19   5    0.06    0.15
  11  19  -5   -0.09    0.16
 -11 -19   5   -0.04    0.14
   9  19  -5    0.28    0.21
  -9 -19   5    0.29    0.18
   7  19  -5   -0.10    0.15
  -7 -19   5   -0.04    0.12
  -5 -19   5   -0.17    0.12
  -3 -19   5    0.52    0.19
  -1 -19   5   -0.13    0.10
   1 -19   5    0.00    0.13
   3 -19   5    0.70    0.22
   5 -19   5    0.07    0.14
   7 -19   5    0.22    0.18
   9 -19   5    0.60    0.24
  11 -19   5    0.02    0.15
  13 -19   5   -0.03    0.18
  15 -19   5    0.45    0.22
  17 -19   5    0.28    0.23
  17 -19   5    0.17    0.22
  19 -19   5   -0.08    0.20
  19 -19   5    0.01    0.21
  21 -19   5    0.17    0.28
  23 -19   5    0.23    0.28
  25 -19   5   -0.23    0.28
  27 -19   5   -0.02    0.26
  29 -19   5   -0.47    0.31
  23  17  -5   -0.13    0.24
  21  17  -5   -0.14    0.21
  19  17  -5    0.28    0.25
 -19 -17   5    0.19    0.21
  17  17  -5   -0.31    0.16
 -17 -17   5   -0.01    0.15
  15  17  -5    0.02    0.20
 -15 -17   5   -0.03    0.17
  13  17  -5    0.72    0.26
 -13 -17   5    1.23    0.27
  11  17  -5    0.01    0.15
 -11 -17   5    0.20    0.16
   9  17  -5   -0.08    0.15
  -9 -17   5   -0.03    0.14
   7  17  -5   -0.03    0.12
  -7 -17   5   -0.07    0.12
   5  17  -5   -0.02    0.14
  -5 -17   5    0.12    0.13
   3  17  -5    1.99    0.30
  -3 -17   5    1.58    0.25
  -1 -17   5    0.20    0.13
   1 -17   5   -0.08    0.11
   3 -17   5    1.89    0.27
   5 -17   5    0.03    0.12
   7 -17   5   -0.04    0.12
   9 -17   5    0.34    0.15
   9 -17   5    0.27    0.17
  11 -17   5    0.09    0.15
  11 -17   5   -0.15    0.11
  13 -17   5    1.42    0.25
  13 -17   5    1.43    0.28
  15 -17   5    0.07    0.16
  15 -17   5    0.12    0.18
  17 -17   5    0.04    0.17
  17 -17   5    0.07    0.18
  19 -17   5    0.10    0.19
  19 -17   5    0.35    0.25
  21 -17   5    0.57    0.27
  23 -17   5    0.60    0.31
  25 -17   5    0.28    0.27
  27 -17   5   -0.01    0.29
  29 -17   5    0.13    0.31
  31 -17   5   -0.19    0.32
  23  15  -5    0.79    0.30
  21  15  -5    0.15    0.23
  19  15  -5    0.65    0.25
 -19 -15   5    0.76    0.24
  17  15  -5    0.26    0.21
 -17 -15   5    0.06    0.16
  15  15  -5    0.06    0.16
 -15 -15   5   -0.06    0.16
  13  15  -5    0.69    0.25
 -13 -15   5    0.74    0.22
  11  15  -5    1.07    0.26
 -11 -15   5    0.85    0.22
   9  15  -5    0.02    0.13
  -9 -15   5    0.18    0.15
   7  15  -5    1.49    0.26
  -7 -15   5    1.89    0.26
   5  15  -5   -0.22    0.10
  -5 -15   5    0.04    0.10
   3  15  -5    0.07    0.14
  -3 -15   5    0.38    0.15
   1  15  -5    2.45    0.30
  -1 -15   5    2.62    0.28
   1 -15   5    2.46    0.28
   3 -15   5    0.19    0.13
   3 -15   5    0.36    0.10
   5 -15   5   -0.12    0.08
   5 -15   5   -0.20    0.10
   7 -15   5    2.14    0.22
   7 -15   5    1.90    0.26
   9 -15   5    0.03    0.14
   9 -15   5    0.01    0.12
  11 -15   5    0.67    0.20
  11 -15   5    1.21    0.22
  13 -15   5    0.85    0.24
  13 -15   5    1.25    0.25
  15 -15   5    0.12    0.14
  15 -15   5   -0.10    0.14
  17 -15   5   -0.22    0.15
  17 -15   5   -0.14    0.17
  19 -15   5    0.58    0.23
  19 -15   5    0.73    0.28
  21 -15   5    0.00    0.21
  23 -15   5    0.23    0.24
  25 -15   5    0.11    0.24
  27 -15   5    0.22    0.27
  29 -15   5    0.08    0.29
  31 -15   5   -0.06    0.33
  23  13  -5    0.26    0.25
  21  13  -5   -0.01    0.18
  19  13  -5    0.04    0.16
  19  13  -5   -0.08    0.14
  19  13  -5   -0.17    0.14
 -19 -13   5   -0.09    0.13
  17  13  -5    1.26    0.29
  17  13  -5    1.07    0.23
 -17 -13   5    0.70    0.22
  15  13  -5    0.88    0.19
  15  13  -5    0.64    0.23
 -15 -13   5    0.85    0.23
  13  13  -5    0.03    0.13
  13  13  -5   -0.02    0.09
 -13 -13   5   -0.07    0.12
  11  13  -5    2.27    0.21
  11  13  -5    2.45    0.31
 -11 -13   5    2.09    0.26
   9  13  -5    0.24    0.15
  -9 -13   5    0.05    0.12
   7  13  -5    0.35    0.15
  -7 -13   5    0.62    0.17
   5  13  -5   -0.02    0.09
  -5 -13   5    0.05    0.10
   3  13  -5   -0.03    0.12
  -3 -13   5   -0.01    0.09
   1  13  -5    2.77    0.28
  -1 -13   5    4.00    0.30
   1 -13   5    4.07    0.20
   3 -13   5    0.05    0.09
   3 -13   5    0.02    0.07
   5 -13   5    0.03    0.07
   5 -13   5   -0.01    0.08
   7 -13   5    0.22    0.11
   7 -13   5    0.57    0.16
   9 -13   5    0.03    0.10
   9 -13   5   -0.13    0.07
  11 -13   5    2.34    0.27
  11 -13   5    2.34    0.26
  13 -13   5   -0.03    0.11
  13 -13   5    0.14    0.13
  15 -13   5    0.87    0.21
  15 -13   5    0.66    0.23
  17 -13   5    1.22    0.26
  17 -13   5    0.98    0.27
  19 -13   5    0.09    0.17
  19 -13   5    0.14    0.17
  21 -13   5    0.21    0.21
  21 -13   5   -0.19    0.15
  23 -13   5    0.39    0.26
  25 -13   5    0.02    0.25
  27 -13   5    0.15    0.28
  29 -13   5   -0.11    0.27
  31 -13   5   -0.18    0.30
  29  11  -5    0.13    0.31
  27  11  -5   -0.08    0.23
  25  11  -5   -0.02    0.23
  23  11  -5    0.33    0.26
  23  11  -5    0.95    0.30
  21  11  -5    0.06    0.17
  21  11  -5   -0.21    0.15
  19  11  -5   -0.12    0.15
  19  11  -5   -0.03    0.14
  17  11  -5   -0.07    0.14
  17  11  -5    0.00    0.13
 -17 -11   5   -0.03    0.13
  15  11  -5    1.10    0.25
  15  11  -5    1.02    0.19
 -15 -11   5    1.09    0.21
  13  11  -5    2.50    0.25
  13  11  -5    2.68    0.30
 -13 -11   5    2.46    0.27
  11  11  -5    0.02    0.12
  11  11  -5   -0.05    0.08
 -11 -11   5   -0.09    0.09
   9  11  -5   -0.01    0.11
   9  11  -5    0.01    0.07
  -9 -11   5   -0.03    0.08
   7  11  -5    1.01    0.19
  -7 -11   5    1.50    0.20
   5  11  -5    0.00    0.09
  -5 -11   5   -0.03    0.08
   3  11  -5    5.95    0.37
  -3 -11   5    6.67    0.36
   1  11  -5    3.34    0.28
  -1 -11   5    3.28    0.26
  -1  11  -5    3.66    0.28
   1 -11   5    3.02    0.26
   3 -11   5    6.49    0.37
   3 -11   5    6.22    0.26
   5 -11   5   -0.14    0.07
   5 -11   5   -0.06    0.06
   7 -11   5    1.13    0.16
   7 -11   5    1.22    0.18
   9 -11   5   -0.02    0.10
   9 -11   5   -0.18    0.08
  11 -11   5   -0.07    0.09
  11 -11   5    0.09    0.10
  13 -11   5    2.22    0.28
  13 -11   5    2.38    0.27
  15 -11   5    1.29    0.25
  15 -11   5    0.77    0.20
  17 -11   5   -0.31    0.12
  17 -11   5   -0.25    0.12
  19 -11   5    0.05    0.16
  19 -11   5   -0.13    0.17
  21 -11   5    0.33    0.20
  21 -11   5    0.05    0.21
  23 -11   5    0.33    0.24
  25 -11   5   -0.03    0.24
  27 -11   5    0.18    0.23
  29 -11   5   -0.17    0.22
  31 -11   5   -0.09    0.30
  33 -11   5    0.01    0.33
  33   9  -5   -0.28    0.31
  31   9  -5   -0.04    0.31
  29   9  -5    0.11    0.30
  27   9  -5    0.04    0.23
  25   9  -5    0.27    0.24
  23   9  -5    0.14    0.21
  21   9  -5    0.30    0.19
  21   9  -5    0.03    0.17
  19   9  -5    0.28    0.19
  19   9  -5    0.23    0.19
  17   9  -5    0.18    0.16
  17   9  -5    0.13    0.16
  17   9  -5   -0.01    0.12
 -17  -9   5    0.23    0.14
  15   9  -5    0.17    0.14
  15   9  -5    0.22    0.14
 -15  -9   5   -0.22    0.09
  13   9  -5   -0.03    0.10
  13   9  -5    0.06    0.10
 -13  -9   5    0.17    0.11
  11   9  -5    0.02    0.09
  11   9  -5    0.06    0.08
 -11  -9   5   -0.13    0.08
   9   9  -5   -0.10    0.08
   9   9  -5    0.04    0.07
  -9  -9   5    0.07    0.08
   7   9  -5    1.69    0.21
   7   9  -5    1.78    0.14
  -7  -9   5    1.27    0.17
   5   9  -5    0.09    0.08
  -5  -9   5   -0.05    0.06
   3   9  -5   -0.06    0.06
  -3  -9   5    0.07    0.07
   1   9  -5    0.94    0.15
  -1  -9   5    0.78    0.14
  -1   9  -5    1.04    0.15
   1  -9   5    1.13    0.15
  -3   9  -5    0.02    0.08
   3  -9   5    0.10    0.05
   3  -9   5   -0.01    0.07
   5  -9   5    0.04    0.06
   5  -9   5    0.02    0.06
   7  -9   5    1.48    0.16
   7  -9   5    1.60    0.19
   9  -9   5   -0.09    0.07
   9  -9   5   -0.01    0.08
  11  -9   5   -0.10    0.09
  11  -9   5   -0.04    0.08
  13  -9   5    0.08    0.11
  13  -9   5    0.10    0.10
  15  -9   5    0.05    0.10
  15  -9   5   -0.02    0.13
  17  -9   5    0.29    0.15
  17  -9   5    0.09    0.16
  19  -9   5    0.49    0.22
  19  -9   5    0.52    0.20
  21  -9   5   -0.03    0.16
  21  -9   5    0.03    0.18
  23  -9   5   -0.01    0.17
  25  -9   5    0.41    0.24
  27  -9   5   -0.21    0.22
  29  -9   5   -0.13    0.24
  31  -9   5   -0.08    0.27
  33  -9   5   -0.17    0.33
  35   7  -5   -0.16    0.35
  33   7  -5    0.19    0.37
  31   7  -5    0.12    0.27
  29   7  -5   -0.26    0.22
  27   7  -5    0.33    0.26
  25   7  -5   -0.09    0.18
  23   7  -5    0.72    0.27
  21   7  -5    0.08    0.17
  21   7  -5    0.08    0.17
  19   7  -5    0.03    0.14
  19   7  -5    0.12    0.16
  17   7  -5    0.07    0.11
  17   7  -5   -0.17    0.12
  17   7  -5    0.16    0.14
 -17  -7   5    0.11    0.11
  15   7  -5    2.15    0.21
  15   7  -5    1.96    0.25
  15   7  -5    2.15    0.26
 -15  -7   5    1.72    0.21
  13   7  -5    0.40    0.14
  13   7  -5    0.65    0.17
 -13  -7   5    0.36    0.12
  11   7  -5    1.33    0.20
  11   7  -5    1.29    0.17
 -11  -7   5    1.01    0.15
   9   7  -5    1.81    0.17
   9   7  -5    1.88    0.21
  -9  -7   5    1.77    0.18
   7   7  -5   -0.05    0.07
   7   7  -5   -0.07    0.05
  -7  -7   5    0.06    0.07
   5   7  -5   -0.09    0.06
  -5  -7   5   -0.04    0.05
   3   7  -5    0.70    0.13
  -3  -7   5    0.50    0.11
   1   7  -5    5.69    0.30
  -1  -7   5    5.93    0.29
  -1   7  -5    5.51    0.28
   1  -7   5    4.98    0.27
  -3   7  -5    0.57    0.11
   3  -7   5    0.49    0.11
   5  -7   5    0.00    0.06
   5  -7   5   -0.06    0.06
   7  -7   5   -0.06    0.06
   7  -7   5    0.08    0.08
   9  -7   5    1.52    0.18
   9  -7   5    1.74    0.20
  11  -7   5    1.26    0.19
  11  -7   5    1.44    0.19
  13  -7   5    0.14    0.13
  13  -7   5    0.20    0.12
  15  -7   5    2.15    0.28
  15  -7   5    2.01    0.25
  17  -7   5    0.03    0.12
  17  -7   5    0.16    0.15
  19  -7   5    0.12    0.14
  19  -7   5    0.00    0.14
  21  -7   5   -0.01    0.17
  21  -7   5    0.18    0.19
  23  -7   5    0.98    0.31
  25  -7   5    0.25    0.23
  27  -7   5    0.15    0.22
  29  -7   5    0.22    0.26
  31  -7   5    0.16    0.27
  33  -7   5   -0.07    0.26
  35   5  -5   -0.10    0.34
  33   5  -5    0.05    0.34
  31   5  -5    0.29    0.34
  29   5  -5    0.38    0.30
  27   5  -5    0.38    0.27
  25   5  -5   -0.12    0.22
  23   5  -5    0.01    0.20
  21   5  -5    0.02    0.15
  21   5  -5   -0.02    0.14
  19   5  -5   -0.08    0.12
  19   5  -5   -0.08    0.15
  17   5  -5    0.00    0.13
  17   5  -5   -0.07    0.10
 -17  -5   5    0.02    0.09
  15   5  -5   -0.04    0.10
  15   5  -5   -0.06    0.08
  15   5  -5   -0.08    0.11
 -15  -5   5   -0.10    0.07
  13   5  -5    0.00    0.09
  13   5  -5   -0.03    0.07
  13   5  -5   -0.04    0.08
 -13  -5   5   -0.05    0.07
  11   5  -5   -0.03    0.07
  11   5  -5   -0.01    0.08
 -11  -5   5   -0.08    0.06
   9   5  -5    0.09    0.08
   9   5  -5   -0.06    0.07
  -9  -5   5   -0.09    0.05
   7   5  -5    0.01    0.06
   7   5  -5   -0.06    0.05
  -7  -5   5   -0.01    0.05
   5   5  -5    0.01    0.06
  -5  -5   5    0.09    0.06
   3   5  -5    0.05    0.07
  -3  -5   5    0.06    0.06
   1   5  -5    0.08    0.07
  -1  -5   5   -0.06    0.04
  -1   5  -5    0.12    0.06
   1  -5   5   -0.04    0.04
  -3   5  -5    0.03    0.06
   3  -5   5    0.00    0.05
  -5   5  -5   -0.06    0.05
   5  -5   5    0.00    0.06
   5  -5   5   -0.05    0.04
   7  -5   5   -0.03    0.06
   7  -5   5   -0.08    0.05
   9  -5   5    0.06    0.08
   9  -5   5   -0.01    0.06
  11  -5   5   -0.11    0.06
  11  -5   5    0.07    0.08
  13  -5   5   -0.04    0.09
  13  -5   5   -0.12    0.08
  15  -5   5    0.05    0.09
  15  -5   5    0.04    0.11
  17  -5   5   -0.06    0.10
  17  -5   5    0.05    0.13
  19  -5   5   -0.06    0.11
  19  -5   5    0.20    0.16
  21  -5   5    0.05    0.17
  21  -5   5   -0.07    0.15
  23  -5   5   -0.02    0.17
  23  -5   5    0.07    0.19
  25  -5   5   -0.04    0.19
  27  -5   5    0.20    0.22
  29  -5   5    0.24    0.27
  31  -5   5    0.09    0.26
  33  -5   5    0.28    0.33
  35   3  -5   -0.08    0.35
  33   3  -5   -0.34    0.30
  31   3  -5    0.17    0.31
  29   3  -5    0.03    0.25
  27   3  -5   -0.01    0.23
  25   3  -5   -0.21    0.20
  23   3  -5    1.10    0.31
  21   3  -5    0.06    0.13
  21   3  -5   -0.07    0.17
  19   3  -5    0.55    0.19
  19   3  -5    0.65    0.23
  17   3  -5    1.96    0.26
  17   3  -5    2.17    0.29
  15   3  -5    0.52    0.15
  15   3  -5    0.00    0.12
 -15  -3   5    0.13    0.08
  13   3  -5   -0.05    0.08
  13   3  -5    0.08    0.10
 -13  -3   5    0.03    0.06
  11   3  -5    6.23    0.25
  11   3  -5    6.11    0.36
  11   3  -5    6.39    0.36
 -11  -3   5    6.57    0.26
   9   3  -5    0.16    0.09
   9   3  -5    0.04    0.07
  -9  -3   5    0.10    0.06
   7   3  -5    0.54    0.11
   7   3  -5    0.33    0.09
  -7  -3   5    0.54    0.08
   5   3  -5    0.01    0.07
   5   3  -5    0.08    0.06
  -5  -3   5    0.01    0.04
   3   3  -5    0.06    0.06
  -3  -3   5    0.03    0.04
   1   3  -5    2.68    0.18
  -1  -3   5    2.46    0.15
  -1   3  -5    2.41    0.15
   1  -3   5    2.64    0.16
   3  -3   5   -0.01    0.05
   5  -3   5    0.00    0.05
   5  -3   5    0.04    0.05
   7  -3   5    0.54    0.11
   7  -3   5    0.45    0.10
   9  -3   5    0.05    0.06
   9  -3   5    0.00    0.06
  11  -3   5    6.31    0.35
  11  -3   5    7.19    0.39
  13  -3   5    0.04    0.10
  13  -3   5    0.00    0.09
  15  -3   5    0.35    0.15
  15  -3   5    0.30    0.13
  17  -3   5    1.95    0.29
  17  -3   5    2.00    0.26
  19  -3   5    0.38    0.17
  19  -3   5    0.62    0.22
  21  -3   5   -0.14    0.12
  21  -3   5    0.01    0.15
  23  -3   5    1.48    0.28
  23  -3   5    1.17    0.32
  25  -3   5    0.46    0.22
  27  -3   5    0.28    0.21
  29  -3   5   -0.14    0.22
  31  -3   5    0.36    0.30
  33  -3   5   -0.19    0.26
  35   1  -5    0.13    0.39
  33   1  -5   -0.17    0.35
  31   1  -5    0.19    0.30
  29   1  -5    0.19    0.29
  27   1  -5    0.18    0.28
  25   1  -5   -0.16    0.20
  23   1  -5    0.16    0.24
  21   1  -5    0.02    0.21
  21   1  -5    0.01    0.12
  19   1  -5   -0.05    0.11
  19   1  -5    0.09    0.16
  17   1  -5    0.00    0.10
  17   1  -5   -0.07    0.12
  15   1  -5    2.69    0.26
  15   1  -5    2.52    0.28
 -15  -1   5    2.45    0.17
  13   1  -5    3.78    0.31
  13   1  -5    4.23    0.31
 -13  -1   5    3.58    0.19
  11   1  -5    3.74    0.28
  11   1  -5    3.47    0.27
 -11  -1   5    3.30    0.16
   9   1  -5    1.01    0.15
   9   1  -5    0.76    0.13
   9   1  -5    1.00    0.08
  -9  -1   5    1.16    0.09
   7   1  -5    5.08    0.26
   7   1  -5    5.30    0.29
  -7  -1   5    5.62    0.17
   5   1  -5    0.03    0.06
   5   1  -5   -0.02    0.06
  -5  -1   5    0.00    0.03
  -3  -1   5    2.52    0.12
  -1  -1   5    0.09    0.04
   1  -1   5    0.00    0.04
   3  -1   5    2.58    0.16
   3  -1   5    2.56    0.17
   5  -1   5   -0.05    0.04
   5  -1   5    0.02    0.05
   7  -1   5    5.54    0.28
   7  -1   5    5.28    0.27
   9  -1   5    0.80    0.13
   9  -1   5    1.00    0.14
  11  -1   5    3.45    0.28
  11  -1   5    3.40    0.26
  13  -1   5    4.15    0.32
  13  -1   5    3.69    0.29
  15  -1   5    2.66    0.29
  15  -1   5    2.44    0.26
  17  -1   5    0.06    0.10
  17  -1   5    0.15    0.14
  19  -1   5    0.13    0.13
  19  -1   5   -0.11    0.10
 -21   1  -5    0.17    0.12
  21  -1   5    0.04    0.17
 -23   1  -5    0.11    0.14
  23  -1   5   -0.03    0.17
  25  -1   5   -0.21    0.18
  27  -1   5    0.34    0.23
  29  -1   5   -0.04    0.21
  31  -1   5    0.22    0.28
  33  -1   5   -0.40    0.28
  35  -1  -5    0.48    0.43
  33  -1  -5    0.27    0.38
  31  -1  -5    0.33    0.33
  29  -1  -5   -0.35    0.22
  27  -1  -5    0.23    0.28
  25  -1  -5    0.00    0.26
  23  -1  -5    0.33    0.25
  21  -1  -5   -0.02    0.19
  21  -1  -5    0.11    0.14
  19  -1  -5   -0.07    0.15
  19  -1  -5    0.07    0.13
  17  -1  -5    0.05    0.13
  17  -1  -5    0.07    0.11
  15  -1  -5    2.60    0.25
  15  -1  -5    2.29    0.28
  13  -1  -5    4.09    0.33
 -13   1   5    3.79    0.17
  11  -1  -5    3.19    0.27
 -11   1   5    3.49    0.14
   9  -1  -5    0.99    0.16
   7  -1  -5    5.36    0.29
   5  -1  -5   -0.02    0.06
   3  -1  -5    2.54    0.16
  -3   1   5    2.69    0.11
   1  -1  -5   -0.01    0.05
  -1   1   5   -0.03    0.03
   1   1   5    0.03    0.04
   3   1   5    2.27    0.16
   5   1   5    0.03    0.05
   5   1   5   -0.01    0.06
   7   1   5    5.57    0.28
   9   1   5    1.04    0.15
   9   1   5    0.74    0.13
  11   1   5    3.40    0.28
  11   1   5    3.07    0.24
  13   1   5    3.94    0.32
  13   1   5    4.00    0.30
 -15  -1  -5    2.33    0.24
  15   1   5    2.51    0.25
  15   1   5    2.09    0.26
 -17  -1  -5    0.06    0.09
  17   1   5   -0.02    0.11
 -19  -1  -5    0.02    0.11
  19   1   5    0.04    0.13
 -21  -1  -5    0.02    0.13
  21   1   5   -0.07    0.16
 -23  -1  -5    0.15    0.16
  23   1   5    0.07    0.18
  25   1   5    0.02    0.21
  27   1   5    0.20    0.23
  29   1   5   -0.10    0.24
  31   1   5    0.15    0.29
  33   1   5   -0.06    0.30
  33  -3  -5    0.40    0.38
  31  -3  -5    0.17    0.32
  29  -3  -5   -0.26    0.24
  27  -3  -5    0.03    0.26
  25  -3  -5    0.15    0.27
  23  -3  -5    1.22    0.32
  21  -3  -5   -0.15    0.12
  21  -3  -5   -0.19    0.17
  19  -3  -5    0.58    0.20
  19  -3  -5    0.44    0.16
  17  -3  -5    2.38    0.32
  15  -3  -5    0.15    0.14
  13  -3  -5    0.04    0.12
 -13   3   5   -0.04    0.04
  11  -3  -5    6.56    0.38
 -11   3   5    6.20    0.18
   9  -3  -5   -0.05    0.07
   7  -3  -5    0.47    0.11
   5  -3  -5    0.05    0.03
   5  -3  -5    0.01    0.06
   3  -3  -5   -0.04    0.04
   3  -3  -5    0.09    0.06
  -3   3   5    0.03    0.04
   1  -3  -5    2.49    0.18
   1  -3  -5    2.33    0.14
  -1  -3  -5    2.27    0.15
  -3  -3  -5    0.11    0.07
  -5  -3  -5    0.02    0.06
  -7  -3  -5    0.47    0.10
   7   3   5    0.49    0.10
  -9  -3  -5    0.08    0.07
   9   3   5    0.13    0.08
 -11  -3  -5    6.06    0.34
  11   3   5    5.62    0.36
 -13  -3  -5    0.09    0.09
  13   3   5    0.09    0.09
 -15  -3  -5    0.16    0.10
  15   3   5    0.12    0.13
 -17  -3  -5    1.76    0.24
  17   3   5    1.67    0.27
 -19  -3  -5    0.70    0.19
  19   3   5    0.40    0.20
 -21  -3  -5    0.15    0.15
  21   3   5   -0.16    0.14
 -23  -3  -5    0.43    0.20
  23   3   5    0.53    0.28
  25   3   5    0.05    0.22
  27   3   5    0.09    0.22
  29   3   5   -0.05    0.24
  31   3   5    0.14    0.29
  33   3   5    0.22    0.33
  33  -5  -5   -0.32    0.34
  31  -5  -5    0.40    0.38
  29  -5  -5   -0.32    0.27
  27  -5  -5    0.17    0.27
  25  -5  -5   -0.07    0.26
  23  -5  -5   -0.21    0.22
  21  -5  -5    0.10    0.22
  19  -5  -5    0.04    0.18
  17  -5  -5    0.03    0.14
  15  -5  -5   -0.11    0.11
  13  -5  -5   -0.03    0.05
  13  -5  -5    0.09    0.11
  11  -5  -5   -0.09    0.08
  11  -5  -5   -0.04    0.04
   9  -5  -5    0.02    0.04
   9  -5  -5    0.01    0.08
   7  -5  -5    0.02    0.07
   7  -5  -5    0.06    0.04
   5  -5  -5   -0.02    0.05
   5  -5  -5   -0.04    0.06
   3  -5  -5   -0.01    0.06
   3  -5  -5    0.01    0.05
   1  -5  -5   -0.10    0.06
   1  -5  -5    0.05    0.06
  -1  -5  -5   -0.03    0.06
   1   5   5    0.05    0.06
  -3  -5  -5    0.06    0.07
   3   5   5    0.02    0.05
  -5  -5  -5    0.01    0.06
   5   5   5    0.04    0.06
  -7  -5  -5   -0.03    0.05
  -9  -5  -5    0.01    0.07
   9   5   5   -0.02    0.07
 -11  -5  -5   -0.04    0.08
  11   5   5   -0.01    0.08
 -13  -5  -5    0.06    0.08
  13   5   5    0.08    0.10
 -15  -5  -5   -0.05    0.10
  15   5   5   -0.02    0.12
 -17  -5  -5    0.00    0.11
  17   5   5    0.02    0.12
 -19  -5  -5    0.00    0.12
  19   5   5    0.00    0.15
 -21  -5  -5   -0.15    0.12
  21   5   5   -0.14    0.17
 -23  -5  -5    0.06    0.16
  23   5   5   -0.28    0.21
 -25  -5  -5    0.10    0.17
  25   5   5    0.05    0.21
  27   5   5    0.00    0.26
  29   5   5    0.01    0.26
  31   5   5   -0.04    0.29
  33   5   5    0.19    0.33
  33  -7  -5    0.12    0.35
  31  -7  -5    0.07    0.36
  29  -7  -5    0.01    0.30
  27  -7  -5    0.04    0.26
  25  -7  -5   -0.24    0.23
  23  -7  -5    0.32    0.26
  21  -7  -5    0.23    0.24
  19  -7  -5   -0.20    0.15
  17  -7  -5   -0.10    0.15
  15  -7  -5    1.98    0.28
  13  -7  -5    0.42    0.16
  13  -7  -5    0.37    0.08
  11  -7  -5    1.47    0.22
  11  -7  -5    1.01    0.11
   9  -7  -5    1.70    0.13
   9  -7  -5    1.60    0.21
   7  -7  -5   -0.01    0.07
   7  -7  -5   -0.06    0.05
   5  -7  -5    0.04    0.06
   5  -7  -5    0.07    0.07
   3  -7  -5    0.47    0.09
   3  -7  -5    0.45    0.11
   1  -7  -5    5.10    0.28
   1  -7  -5    5.54    0.26
  -1  -7  -5    6.09    0.29
  -3  -7  -5    0.34    0.10
  -5  -7  -5    0.14    0.08
   5   7   5   -0.04    0.06
  -7  -7  -5   -0.02    0.07
   7   7   5   -0.06    0.06
  -9  -7  -5    1.75    0.20
   9   7   5    1.60    0.20
 -11  -7  -5    1.11    0.19
  11   7   5    0.98    0.18
 -13  -7  -5    0.29    0.13
  13   7   5    0.65    0.17
 -15  -7  -5    1.86    0.25
  15   7   5    1.81    0.26
 -17  -7  -5    0.04    0.13
  17   7   5    0.02    0.13
 -19  -7  -5    0.09    0.14
  19   7   5   -0.13    0.14
 -21  -7  -5    0.21    0.17
  21   7   5    0.14    0.20
 -23  -7  -5    0.63    0.24
  23   7   5    1.14    0.31
 -25  -7  -5   -0.10    0.16
  25   7   5    0.02    0.20
  27   7   5   -0.11    0.21
  29   7   5    0.05    0.24
  31   7   5    0.16    0.32
  33   7   5    0.09    0.31
  33  -9  -5   -0.06    0.39
  31  -9  -5   -0.11    0.36
  29  -9  -5    0.18    0.29
  27  -9  -5    0.35    0.28
  25  -9  -5   -0.09    0.22
  23  -9  -5    0.11    0.23
  21  -9  -5    0.19    0.22
  19  -9  -5    0.82    0.27
  17  -9  -5    0.15    0.16
  15  -9  -5    0.03    0.14
  13  -9  -5    0.01    0.12
  13  -9  -5    0.12    0.08
  11  -9  -5   -0.04    0.06
  11  -9  -5   -0.03    0.10
   9  -9  -5    0.14    0.10
   9  -9  -5   -0.07    0.06
   7  -9  -5    1.92    0.16
   7  -9  -5    1.71    0.21
   5  -9  -5   -0.03    0.06
   5  -9  -5    0.02    0.08
   3  -9  -5    0.01    0.07
   3  -9  -5    0.04    0.06
   1  -9  -5    1.15    0.16
   1  -9  -5    0.75    0.13
  -1  -9  -5    0.90    0.14
  -3  -9  -5    0.05    0.08
  -5  -9  -5   -0.01    0.07
  -7  -9  -5    2.06    0.22
   7   9   5    1.73    0.20
  -9  -9  -5    0.09    0.09
   9   9   5   -0.08    0.07
 -11  -9  -5   -0.09    0.09
  11   9   5   -0.05    0.10
 -13  -9  -5   -0.09    0.09
  13   9   5    0.04    0.10
 -15  -9  -5   -0.22    0.10
  15   9   5   -0.03    0.13
 -17  -9  -5    0.37    0.17
  17   9   5    0.06    0.14
 -19  -9  -5    0.54    0.22
  19   9   5    0.86    0.26
 -21  -9  -5    0.06    0.16
  21   9   5   -0.07    0.18
 -23  -9  -5    0.02    0.18
  23   9   5    0.08    0.23
 -25  -9  -5   -0.11    0.17
  25   9   5   -0.03    0.20
  27   9   5   -0.05    0.27
  29   9   5    0.09    0.27
  31   9   5   -0.25    0.31
  33   9   5    0.13    0.35
  33 -11  -5    0.20    0.34
  31 -11  -5    0.15    0.32
  29 -11  -5    0.27    0.31
  27 -11  -5   -0.14    0.22
  25 -11  -5    0.02    0.22
  23 -11  -5    0.63    0.33
  21 -11  -5    0.18    0.22
  19 -11  -5   -0.04    0.18
  17 -11  -5   -0.05    0.16
  15 -11  -5    1.24    0.27
  13 -11  -5    2.18    0.30
  13 -11  -5    2.59    0.20
  11 -11  -5   -0.04    0.11
  11 -11  -5   -0.07    0.07
   9 -11  -5    0.07    0.08
   9 -11  -5   -0.11    0.09
   7 -11  -5    0.82    0.17
   7 -11  -5    1.26    0.16
   5 -11  -5   -0.02    0.07
   5 -11  -5   -0.03    0.08
   3 -11  -5    6.48    0.37
   3 -11  -5    6.10    0.34
   1 -11  -5    3.46    0.26
   1 -11  -5    3.77    0.28
  -1 -11  -5    3.30    0.27
  -3 -11  -5    6.15    0.36
  -5 -11  -5   -0.08    0.08
  -7 -11  -5    1.34    0.21
  -9 -11  -5    0.08    0.11
   9  11   5    0.00    0.11
 -11 -11  -5   -0.08    0.09
  11  11   5   -0.14    0.10
 -13 -11  -5    2.57    0.30
  13  11   5    2.51    0.29
 -15 -11  -5    1.17    0.24
  15  11   5    1.15    0.23
 -17 -11  -5    0.17    0.17
  17  11   5   -0.03    0.13
 -19 -11  -5   -0.05    0.16
  19  11   5    0.11    0.17
 -21 -11  -5    0.23    0.18
  21  11   5    0.01    0.18
 -23 -11  -5    0.64    0.26
  23  11   5    0.34    0.25
 -25 -11  -5    0.04    0.22
  25  11   5    0.10    0.24
  27  11   5   -0.14    0.23
  29  11   5    0.08    0.28
  31  11   5    0.11    0.34
  33  11   5    0.02    0.34
  31 -13  -5   -0.08    0.32
  29 -13  -5    0.26    0.31
  27 -13  -5   -0.14    0.23
  25 -13  -5   -0.01    0.22
  23 -13  -5   -0.20    0.23
  21 -13  -5   -0.02    0.20
  19 -13  -5    0.22    0.21
  17 -13  -5    1.33    0.30
  15 -13  -5    0.41    0.21
  13 -13  -5    0.04    0.10
  13 -13  -5   -0.17    0.13
  11 -13  -5    2.78    0.32
  11 -13  -5    2.75    0.24
   9 -13  -5    0.06    0.12
   9 -13  -5    0.06    0.09
   7 -13  -5    0.54    0.16
   7 -13  -5    0.72    0.15
   5 -13  -5    0.09    0.10
   5 -13  -5   -0.04    0.09
   3 -13  -5   -0.01    0.10
   3 -13  -5   -0.03    0.07
   1 -13  -5    3.70    0.30
   1 -13  -5    4.16    0.31
  -1 -13  -5    3.64    0.30
  -3 -13  -5   -0.07    0.08
  -5 -13  -5    0.09    0.12
  -7 -13  -5    0.36    0.15
  -9 -13  -5   -0.01    0.10
 -11 -13  -5    2.40    0.29
  11  13   5    2.54    0.30
 -13 -13  -5    0.09    0.14
  13  13   5   -0.08    0.12
 -15 -13  -5    0.70    0.22
  15  13   5    0.55    0.19
 -17 -13  -5    0.79    0.23
 -19 -13  -5    0.07    0.17
 -21 -13  -5   -0.10    0.17
 -23 -13  -5    0.30    0.24
  23  13   5    0.36    0.26
 -25 -13  -5    0.13    0.23
  25  13   5   -0.17    0.23
  27  13   5   -0.21    0.24
  29  13   5    0.30    0.29
  31  13   5   -0.04    0.34
  33  13   5    0.10    0.35
  31 -15  -5    0.18    0.33
  29 -15  -5    0.15    0.31
  27 -15  -5    0.19    0.28
  25 -15  -5   -0.04    0.26
  23 -15  -5    0.22    0.25
  21 -15  -5    0.21    0.24
  19 -15  -5    0.33    0.23
  17 -15  -5    0.12    0.19
  15 -15  -5    0.03    0.17
  13 -15  -5    0.49    0.22
  13 -15  -5    0.92    0.18
  11 -15  -5    1.06    0.24
  11 -15  -5    0.68    0.16
   9 -15  -5    0.18    0.12
   9 -15  -5    0.07    0.13
   7 -15  -5    1.76    0.24
   7 -15  -5    2.09    0.23
   5 -15  -5   -0.05    0.10
   5 -15  -5   -0.01    0.09
   3 -15  -5    0.28    0.13
   3 -15  -5    0.19    0.13
   1 -15  -5    3.35    0.29
   1 -15  -5    2.72    0.28
  -1 -15  -5    2.30    0.28
  -1 -15  -5    2.60    0.26
  -3 -15  -5    0.60    0.18
  -5 -15  -5   -0.06    0.10
  -7 -15  -5    2.29    0.30
  -9 -15  -5   -0.07    0.13
 -11 -15  -5    0.85    0.24
 -13 -15  -5    0.79    0.23
  13  15   5    0.84    0.23
 -15 -15  -5   -0.07    0.14
  15  15   5    0.15    0.17
 -17 -15  -5    0.03    0.16
  17  15   5   -0.22    0.15
 -19 -15  -5    0.84    0.26
 -21 -15  -5    0.03    0.20
 -23 -15  -5    0.13    0.21
 -25 -15  -5   -0.06    0.22
  29 -17  -5    0.22    0.37
  27 -17  -5    0.18    0.30
  25 -17  -5    0.68    0.35
  23 -17  -5    0.32    0.29
  21 -17  -5   -0.01    0.23
  19 -17  -5    0.26    0.24
  17 -17  -5    0.26    0.22
  15 -17  -5   -0.24    0.14
  13 -17  -5    0.94    0.27
  11 -17  -5   -0.04    0.12
  11 -17  -5   -0.06    0.14
   9 -17  -5    0.12    0.14
   9 -17  -5    0.07    0.17
   7 -17  -5    0.01    0.12
   7 -17  -5    0.13    0.13
   5 -17  -5    0.14    0.12
   5 -17  -5   -0.08    0.11
   3 -17  -5    1.97    0.26
   3 -17  -5    1.95    0.26
   1 -17  -5    0.06    0.11
   1 -17  -5   -0.03    0.13
  -1 -17  -5   -0.03    0.10
  -1 -17  -5   -0.01    0.12
  -3 -17  -5    1.70    0.27
  -5 -17  -5   -0.11    0.14
  -7 -17  -5    0.13    0.17
  -9 -17  -5    0.35    0.18
 -11 -17  -5    0.20    0.17
 -13 -17  -5    1.47    0.30
  13  17   5    1.99    0.33
 -15 -17  -5   -0.02    0.18
  15  17   5    0.20    0.19
 -17 -17  -5   -0.02    0.18
  17  17   5    0.02    0.18
 -19 -17  -5    0.28    0.22
  19  17   5    0.37    0.23
 -21 -17  -5    0.43    0.23
 -23 -17  -5    0.23    0.24
 -25 -17  -5    0.23    0.27
  29 -19  -5    0.52    0.41
  27 -19  -5   -0.04    0.33
  25 -19  -5    0.24    0.30
  23 -19  -5   -0.18    0.26
  21 -19  -5    0.23    0.28
  19 -19  -5   -0.19    0.21
  17 -19  -5    0.27    0.25
  15 -19  -5    0.21    0.21
  13 -19  -5   -0.13    0.17
  11 -19  -5    0.02    0.18
  11 -19  -5    0.02    0.14
   9 -19  -5    0.50    0.21
   9 -19  -5    0.24    0.19
   7 -19  -5    0.17    0.14
   7 -19  -5   -0.18    0.13
   5 -19  -5    0.00    0.15
   5 -19  -5   -0.05    0.12
   3 -19  -5    0.79    0.19
   3 -19  -5    0.44    0.21
   1 -19  -5   -0.11    0.15
   1 -19  -5   -0.01    0.11
  -1 -19  -5    0.06    0.16
  -1 -19  -5    0.11    0.13
  -3 -19  -5    0.85    0.21
  -3 -19  -5    0.47    0.21
  -5 -19  -5    0.27    0.20
  -7 -19  -5    0.18    0.19
  -9 -19  -5    0.39    0.23
 -11 -19  -5    0.09    0.18
 -13 -19  -5   -0.03    0.17
 -15 -19  -5    0.22    0.22
  15  19   5    0.26    0.21
 -17 -19  -5    0.05    0.20
  17  19   5    0.24    0.23
 -19 -19  -5    0.15    0.23
  19  19   5    0.30    0.22
 -21 -19  -5    0.14    0.22
 -23 -19  -5    0.10    0.24
 -25 -19  -5   -0.07    0.28
 -27 -19  -5    0.14    0.30
  27 -21  -5    0.02    0.34
  25 -21  -5    0.43    0.36
  23 -21  -5   -0.09    0.26
  21 -21  -5   -0.01    0.24
  19 -21  -5    0.35    0.27
  17 -21  -5    0.18    0.23
  15 -21  -5    0.13    0.22
  13 -21  -5   -0.08    0.18
  11 -21  -5    0.29    0.21
  11 -21  -5    0.04    0.18
   9 -21  -5   -0.04    0.15
   9 -21  -5    0.10    0.17
   7 -21  -5    0.04    0.17
   7 -21  -5   -0.01    0.15
   5 -21  -5    0.00    0.13
   5 -21  -5    0.10    0.16
   3 -21  -5   -0.06    0.12
   3 -21  -5   -0.04    0.16
   1 -21  -5    0.06    0.18
   1 -21  -5   -0.01    0.14
  -1 -21  -5    0.09    0.18
  -1 -21  -5   -0.07    0.12
  -3 -21  -5    0.03    0.13
  -3 -21  -5    0.10    0.20
  -5 -21  -5   -0.14    0.15
  -7 -21  -5    0.21    0.20
  -9 -21  -5   -0.09    0.17
 -11 -21  -5    0.15    0.22
 -13 -21  -5   -0.02    0.16
 -15 -21  -5    0.20    0.24
  15  21   5   -0.03    0.18
 -17 -21  -5    0.02    0.21
  17  21   5    0.20    0.25
 -19 -21  -5    0.12    0.24
  19  21   5    0.31    0.23
 -21 -21  -5   -0.17    0.20
  21  21   5    0.01    0.20
 -23 -21  -5   -0.03    0.25
 -25 -21  -5    0.18    0.28
  27 -23  -5    0.01    0.36
  25 -23  -5   -0.14    0.32
  23 -23  -5   -0.18    0.29
  21 -23  -5    0.18    0.27
  19 -23  -5   -0.07    0.23
  17 -23  -5    0.24    0.27
  15 -23  -5    0.50    0.28
  13 -23  -5    0.19    0.25
  11 -23  -5    0.66    0.26
  11 -23  -5    0.56    0.25
   9 -23  -5   -0.16    0.17
   9 -23  -5   -0.03    0.17
   7 -23  -5    0.74    0.24
   7 -23  -5    0.71    0.23
   5 -23  -5    0.02    0.17
   5 -23  -5    0.04    0.18
   3 -23  -5    0.75    0.25
   3 -23  -5    1.01    0.25
   1 -23  -5    0.05    0.19
   1 -23  -5    0.15    0.16
  -1 -23  -5   -0.01    0.13
  -1 -23  -5   -0.04    0.19
  -3 -23  -5    0.91    0.30
  -3 -23  -5    1.10    0.25
  -5 -23  -5    0.04    0.15
  -5 -23  -5    0.18    0.22
  -7 -23  -5    0.33    0.25
  -9 -23  -5    0.15    0.24
 -11 -23  -5    0.67    0.27
 -13 -23  -5    0.44    0.29
 -15 -23  -5    0.36    0.28
  15  23   5    0.29    0.26
 -17 -23  -5    0.46    0.28
  17  23   5    0.02    0.24
 -19 -23  -5   -0.02    0.24
  19  23   5    0.09    0.22
 -21 -23  -5   -0.05    0.28
  21  23   5   -0.20    0.23
 -23 -23  -5   -0.09    0.27
  25 -25  -5    0.04    0.38
  23 -25  -5   -0.51    0.28
  21 -25  -5    0.37    0.34
  19 -25  -5    0.11    0.31
  17 -25  -5    0.31    0.28
  15 -25  -5   -0.03    0.23
  13 -25  -5   -0.24    0.18
  11 -25  -5   -0.12    0.22
   9 -25  -5    0.05    0.20
   9 -25  -5    0.10    0.21
   7 -25  -5    0.04    0.19
   7 -25  -5   -0.21    0.17
   5 -25  -5    0.05    0.18
   5 -25  -5    0.04    0.16
   3 -25  -5   -0.16    0.19
   3 -25  -5    0.08    0.17
   1 -25  -5    0.04    0.20
  -1 -25  -5    0.05    0.23
  -3 -25  -5    0.03    0.23
  -5 -25  -5   -0.16    0.20
  -7 -25  -5    0.00    0.25
  -9 -25  -5    0.16    0.27
 -11 -25  -5   -0.43    0.17
 -13 -25  -5   -0.15    0.19
 -15 -25  -5    0.28    0.26
  15  25   5   -0.17    0.23
 -17 -25  -5    0.17    0.26
  17  25   5    0.03    0.26
 -19 -25  -5    0.06    0.26
  19  25   5    0.18    0.28
  21  25   5    0.23    0.28
  23 -27  -5    0.48    0.38
  21 -27  -5   -0.11    0.32
  19 -27  -5   -0.20    0.30
   9 -27  -5   -0.02    0.22
   7 -27  -5    0.27    0.26
   5 -27  -5    0.16    0.24
   3 -27  -5    0.10    0.22
   1 -27  -5   -0.03    0.22
  -1 -27  -5    0.55    0.28
  -3 -27  -5   -0.05    0.21
  -5 -27  -5   -0.05    0.25
  -7 -27  -5    0.12    0.24
  -9 -27  -5   -0.13    0.25
 -11 -27  -5    0.03    0.24
 -13 -27  -5   -0.02    0.24
 -15 -27  -5    0.25    0.28
  15  27   5    0.14    0.28
  17  27   5   -0.37    0.24
   7 -29  -5    0.13    0.27
   5 -29  -5   -0.01    0.23
   3 -29  -5   -0.19    0.23
   1 -29  -5    0.20    0.25
  -1 -29  -5   -0.12    0.25
  -3 -29  -5    0.22    0.30
  -5 -29  -5    0.00    0.25
  -7 -29  -5   -0.10    0.24
  -9 -29  -5    0.00    0.28
 -11 -29  -5   -0.13    0.26
   7 -31  -5   -0.10    0.26
   5 -31  -5    0.00    0.26
   3 -31  -5    0.02    0.29
   1 -31  -5    0.05    0.28
  -1 -31  -5    0.09    0.27
  -3 -31  -5    0.11    0.32
  -5 -31  -5    0.13    0.31
 -10 -30   6    4.29    0.58
  -8 -30   6    0.44    0.28
  -6 -30   6    2.61    0.48
  -4 -30   6    0.27    0.23
  -2 -30   6    4.54    0.58
   0 -30   6    0.07    0.25
   2 -30   6    3.35    0.51
   4 -30   6    0.31    0.30
   6 -30   6    2.62    0.49
   8 -30   6   -0.07    0.27
  10 -30   6    4.30    0.57
  12 -30   6    0.16    0.30
 -16 -28   6    0.50    0.29
 -14 -28   6    0.12    0.26
 -12 -28   6    0.28    0.26
 -10 -28   6   -0.22    0.19
  -8 -28   6    0.05    0.21
  -6 -28   6   -0.24    0.17
  -4 -28   6    0.08    0.22
  -2 -28   6    0.02    0.21
   0 -28   6    0.32    0.26
   2 -28   6   -0.04    0.23
   4 -28   6    0.09    0.24
   6 -28   6   -0.04    0.22
   8 -28   6    0.50    0.31
  10 -28   6    0.23    0.27
  12 -28   6    0.29    0.28
  14 -28   6    0.40    0.31
  16 -28   6   -0.01    0.28
 -18 -26   6    3.99    0.55
 -16 -26   6    0.17    0.23
 -14 -26   6    5.72    0.59
 -12 -26   6    0.95    0.33
 -10 -26   6    5.04    0.55
  -8 -26   6    0.27    0.23
  -6 -26   6    3.54    0.46
  -4 -26   6    1.22    0.32
  -2 -26   6    5.39    0.54
   0 -26   6    0.14    0.23
   2 -26   6    4.29    0.50
   4 -26   6    1.38    0.35
   6 -26   6    3.18    0.45
   8 -26   6    0.03    0.22
  10 -26   6    3.73    0.49
  12 -26   6    1.10    0.35
  14 -26   6    6.08    0.62
  16 -26   6   -0.08    0.25
 -18 -24   6    0.04    0.25
 -16 -24   6    0.51    0.27
 -14 -24   6    0.66    0.27
 -12 -24   6    0.42    0.25
 -10 -24   6    1.02    0.30
  -8 -24   6    0.46    0.25
  -6 -24   6    0.12    0.21
  -4 -24   6   -0.02    0.19
  -2 -24   6    0.63    0.28
   0 -24   6   -0.04    0.18
   2 -24   6    0.64    0.26
   4 -24   6    0.62    0.27
   6 -24   6    0.20    0.23
   8 -24   6    0.40    0.25
  10 -24   6    1.08    0.32
  12 -24   6    0.34    0.24
  14 -24   6    0.24    0.26
  16 -24   6    0.25    0.26
  18 -24   6    0.18    0.27
  24  22  -6    0.43    0.37
  22  22  -6    8.95    0.79
  20  22  -6    0.17    0.28
  18  22  -6    6.63    0.67
 -18 -22   6    6.02    0.59
  16  22  -6    1.08    0.34
 -16 -22   6    0.73    0.29
  14  22  -6    9.86    0.75
 -14 -22   6   11.57    0.74
  12  22  -6   -0.23    0.19
 -12 -22   6   -0.01    0.18
  10  22  -6   17.02    0.92
 -10 -22   6   15.84    0.85
  -8 -22   6    2.55    0.37
  -6 -22   6   20.43    0.94
  -4 -22   6    0.97    0.27
  -2 -22   6   17.25    0.85
   0 -22   6    2.08    0.35
   2 -22   6   15.31    0.79
   4 -22   6    0.20    0.18
   6 -22   6   21.70    0.97
   8 -22   6    2.53    0.39
  10 -22   6   15.88    0.84
  12 -22   6   -0.16    0.17
  14 -22   6    9.06    0.67
  16 -22   6    0.64    0.30
  18 -22   6    6.70    0.59
  24  20  -6    0.78    0.37
  22  20  -6    0.85    0.33
  20  20  -6    0.20    0.28
  18  20  -6    0.28    0.27
 -18 -20   6    0.11    0.20
  16  20  -6    0.17    0.24
 -16 -20   6    0.16    0.21
  14  20  -6   -0.02    0.18
 -14 -20   6    0.30    0.20
  12  20  -6    0.19    0.20
 -12 -20   6    0.16    0.17
  10  20  -6    0.79    0.27
 -10 -20   6    0.73    0.26
   8  20  -6    0.10    0.18
  -8 -20   6    0.26    0.20
   6  20  -6    0.18    0.22
  -6 -20   6    0.03    0.16
  -4 -20   6    0.47    0.22
  -2 -20   6    0.69    0.23
   0 -20   6   -0.13    0.12
   2 -20   6    0.79    0.23
   4 -20   6    0.59    0.22
   6 -20   6    0.30    0.20
   8 -20   6    0.61    0.23
  10 -20   6    0.63    0.25
  12 -20   6    0.14    0.16
  14 -20   6    0.12    0.19
  16 -20   6    0.10    0.20
  18 -20   6    0.20    0.22
  20 -20   6    0.19    0.26
  24  18  -6    0.22    0.30
  22  18  -6    6.06    0.62
  20  18  -6   -0.16    0.19
  18  18  -6   10.62    0.73
 -18 -18   6   10.96    0.69
  16  18  -6    0.05    0.22
 -16 -18   6    0.05    0.17
  14  18  -6   14.42    0.81
 -14 -18   6   12.42    0.71
  12  18  -6    0.18    0.21
 -12 -18   6   -0.07    0.16
  10  18  -6   12.79    0.74
 -10 -18   6   13.68    0.71
   8  18  -6    0.25    0.19
  -8 -18   6    0.05    0.15
   6  18  -6   17.50    0.82
  -6 -18   6   16.58    0.75
   4  18  -6    0.24    0.21
  -4 -18   6    0.43    0.18
  -2 -18   6   14.31    0.69
   0 -18   6    1.90    0.28
   2 -18   6   14.18    0.69
   4 -18   6    0.22    0.16
   6 -18   6   17.65    0.79
   8 -18   6    0.44    0.20
  10 -18   6   13.62    0.70
  12 -18   6    0.06    0.17
  14 -18   6   14.53    0.76
  16 -18   6    0.03    0.17
  16 -18   6   -0.18    0.15
  18 -18   6   10.32    0.69
  18 -18   6    9.97    0.67
  20 -18   6   -0.07    0.19
  20 -18   6    0.07    0.20
  22 -18   6    7.01    0.66
  24 -18   6    0.43    0.32
  26 -18   6    4.34    0.59
  28 -18   6    0.13    0.35
  30 -18   6    2.12    0.53
  24  16  -6    0.26    0.26
  22  16  -6    0.83    0.32
  20  16  -6    0.26    0.23
  18  16  -6   -0.01    0.17
 -18 -16   6    0.13    0.17
  16  16  -6    0.26    0.21
 -16 -16   6    0.33    0.19
  14  16  -6    3.56    0.41
 -14 -16   6    3.18    0.37
  12  16  -6    0.13    0.19
 -12 -16   6   -0.03    0.14
  10  16  -6    0.32    0.20
 -10 -16   6    0.33    0.19
   8  16  -6    0.01    0.15
  -8 -16   6    0.33    0.17
   6  16  -6    0.98    0.24
  -6 -16   6    1.22    0.23
   4  16  -6    0.15    0.15
  -4 -16   6    0.02    0.12
   2  16  -6    0.07    0.13
  -2 -16   6   -0.09    0.10
   0 -16   6    0.05    0.11
   2 -16   6    0.18    0.13
   4 -16   6    0.05    0.13
   6 -16   6    1.64    0.27
   8 -16   6    0.29    0.13
   8 -16   6    0.14    0.14
  10 -16   6    0.57    0.16
  10 -16   6    0.70    0.21
  12 -16   6    0.24    0.18
  12 -16   6    0.02    0.13
  14 -16   6    3.60    0.37
  14 -16   6    3.06    0.37
  16 -16   6    0.24    0.20
  16 -16   6    0.22    0.18
  18 -16   6    0.07    0.18
  18 -16   6   -0.11    0.17
  20 -16   6    0.20    0.20
  20 -16   6    0.14    0.23
  22 -16   6    0.57    0.26
  24 -16   6    0.11    0.23
  26 -16   6    0.11    0.24
  28 -16   6   -0.12    0.24
  30 -16   6    0.18    0.30
  32 -16   6    0.20    0.34
  22  14  -6   10.04    0.69
  20  14  -6    0.23    0.22
  18  14  -6   12.66    0.75
 -18 -14   6   14.41    0.70
  16  14  -6    2.92    0.39
 -16 -14   6    3.12    0.34
  14  14  -6   19.68    0.87
 -14 -14   6   19.58    0.80
  12  14  -6    0.81    0.23
 -12 -14   6    0.61    0.20
  10  14  -6   17.74    0.79
 -10 -14   6   18.39    0.74
   8  14  -6    8.83    0.54
  -8 -14   6    7.99    0.48
   6  14  -6   24.59    0.91
  -6 -14   6   25.18    0.86
   4  14  -6    0.74    0.19
  -4 -14   6    0.76    0.18
   2  14  -6   16.16    0.69
  -2 -14   6   16.55    0.66
   0  14  -6    8.92    0.49
   0 -14   6    7.04    0.43
   2 -14   6   16.64    0.45
   2 -14   6   16.16    0.66
   4 -14   6    0.55    0.17
   4 -14   6    1.15    0.14
   6 -14   6   25.51    0.73
   6 -14   6   26.42    0.89
   8 -14   6    8.61    0.50
   8 -14   6    9.10    0.43
  10 -14   6   17.30    0.67
  10 -14   6   18.13    0.74
  12 -14   6    1.06    0.23
  12 -14   6    0.99    0.20
  14 -14   6   19.31    0.81
  14 -14   6   20.10    0.82
  16 -14   6    3.46    0.40
  16 -14   6    3.94    0.39
  18 -14   6   14.02    0.72
  18 -14   6   14.30    0.78
  20 -14   6    0.19    0.19
  20 -14   6    0.23    0.24
  22 -14   6   10.61    0.74
  24 -14   6    0.20    0.25
  26 -14   6    5.81    0.64
  28 -14   6    0.20    0.25
  30 -14   6    5.49    0.70
  32 -14   6    0.18    0.38
  22  12  -6   -0.09    0.18
  20  12  -6    0.17    0.18
  20  12  -6    0.39    0.21
  18  12  -6    0.11    0.15
  18  12  -6    0.13    0.16
 -18 -12   6   -0.02    0.14
  16  12  -6    0.09    0.17
  16  12  -6    0.34    0.16
 -16 -12   6    0.26    0.17
  14  12  -6    0.81    0.17
  14  12  -6    0.68    0.21
 -14 -12   6    1.10    0.21
  12  12  -6    0.32    0.16
  12  12  -6    0.10    0.10
 -12 -12   6    0.04    0.11
  10  12  -6    0.17    0.13
  10  12  -6    0.23    0.09
 -10 -12   6    0.21    0.12
   8  12  -6    0.21    0.13
  -8 -12   6    0.02    0.10
   6  12  -6    0.65    0.18
  -6 -12   6    0.83    0.17
   4  12  -6    1.85    0.24
  -4 -12   6    1.57    0.21
   2  12  -6    2.65    0.27
  -2 -12   6    2.46    0.25
   0  12  -6   -0.05    0.10
   0 -12   6    0.02    0.08
  -2  12  -6    2.28    0.24
   2 -12   6    2.50    0.25
   4 -12   6    1.58    0.22
   4 -12   6    1.80    0.15
   6 -12   6    1.19    0.15
   6 -12   6    1.38    0.20
   8 -12   6   -0.01    0.08
   8 -12   6    0.03    0.09
  10 -12   6    0.06    0.11
  10 -12   6    0.14    0.11
  12 -12   6    0.11    0.12
  12 -12   6    0.15    0.13
  14 -12   6    0.74    0.20
  14 -12   6    1.13    0.23
  16 -12   6    0.47    0.20
  16 -12   6    0.23    0.17
  18 -12   6   -0.12    0.14
  18 -12   6    0.07    0.15
  20 -12   6   -0.08    0.19
  20 -12   6    0.48    0.22
  22 -12   6    0.09    0.20
  22 -12   6    0.21    0.22
  24 -12   6   -0.20    0.18
  26 -12   6    0.35    0.29
  28 -12   6    0.51    0.34
  30 -12   6    0.16    0.29
  32 -12   6    0.01    0.32
  28  10  -6    0.30    0.32
  26  10  -6    4.19    0.51
  24  10  -6    0.99    0.32
  22  10  -6   14.99    0.79
  22  10  -6   15.79    0.81
  20  10  -6    0.20    0.21
  20  10  -6    0.74    0.26
  18  10  -6   13.24    0.65
  18  10  -6   14.12    0.72
  16  10  -6    0.64    0.20
  16  10  -6    0.57    0.20
 -16 -10   6    0.63    0.17
  14  10  -6   17.05    0.64
  14  10  -6   18.16    0.77
 -14 -10   6   17.64    0.67
  12  10  -6    0.19    0.14
  12  10  -6   -0.08    0.08
 -12 -10   6   -0.02    0.08
  10  10  -6   34.70    0.86
  10  10  -6   34.04    1.05
 -10 -10   6   33.05    0.95
   8  10  -6    0.34    0.15
   8  10  -6    0.14    0.07
  -8 -10   6    0.02    0.08
   6  10  -6   75.43    1.75
  -6 -10   6   76.70    1.64
   4  10  -6    3.91    0.30
  -4 -10   6    3.37    0.26
   2  10  -6   37.56    1.02
   0  10  -6   31.53    0.90
   0 -10   6   32.77    0.89
  -2  10  -6   37.00    0.98
  -4  10  -6    4.09    0.28
   4 -10   6    3.87    0.21
   4 -10   6    4.06    0.29
   6 -10   6   76.91    1.67
   6 -10   6   75.79    1.55
   8 -10   6    0.23    0.11
   8 -10   6    0.18    0.10
  10 -10   6   33.04    0.95
  10 -10   6   33.33    0.98
  12 -10   6    0.00    0.09
  12 -10   6    0.04    0.11
  14 -10   6   17.03    0.73
  14 -10   6   18.41    0.73
  16 -10   6    0.58    0.19
  16 -10   6    0.49    0.19
  18 -10   6   13.61    0.73
  18 -10   6   14.32    0.69
  20 -10   6    0.65    0.25
  20 -10   6    0.80    0.24
  22 -10   6   15.44    0.86
  22 -10   6   16.04    0.78
  24 -10   6    0.95    0.34
  26 -10   6    5.39    0.60
  28 -10   6    0.11    0.27
  30 -10   6    4.52    0.63
  32 -10   6   -0.03    0.32
  34   8  -6    0.00    0.36
  32   8  -6    0.17    0.35
  30   8  -6    0.52    0.30
  28   8  -6   -0.15    0.24
  26   8  -6    0.43    0.30
  24   8  -6    0.79    0.31
  22   8  -6    2.07    0.34
  22   8  -6    1.89    0.32
  20   8  -6    0.18    0.20
  20   8  -6    0.07    0.18
  18   8  -6    0.47    0.19
  18   8  -6    0.13    0.16
  16   8  -6    0.20    0.15
  16   8  -6    0.13    0.15
 -16  -8   6    0.47    0.15
  14   8  -6    8.04    0.45
  14   8  -6    8.46    0.50
 -14  -8   6    9.08    0.43
  12   8  -6    0.10    0.11
  12   8  -6    0.06    0.11
 -12  -8   6    0.07    0.09
  10   8  -6    0.20    0.10
  10   8  -6    0.07    0.10
 -10  -8   6    0.05    0.08
   8   8  -6    0.77    0.11
   8   8  -6    0.60    0.15
  -8  -8   6    0.58    0.13
   6   8  -6    1.26    0.18
  -6  -8   6    1.63    0.18
   4   8  -6    0.23    0.10
  -4  -8   6    0.18    0.08
   2   8  -6    0.51    0.13
  -2  -8   6    0.59    0.12
   0   8  -6    0.04    0.08
   0  -8   6    0.07    0.07
  -2   8  -6    0.67    0.12
   2  -8   6    0.84    0.13
  -4   8  -6    0.14    0.09
   4  -8   6    0.24    0.07
   4  -8   6    0.00    0.06
   6  -8   6    1.69    0.16
   6  -8   6    1.23    0.17
   8  -8   6    0.68    0.15
   8  -8   6    0.69    0.13
  10  -8   6    0.07    0.09
  10  -8   6    0.15    0.10
  12  -8   6    0.22    0.13
  12  -8   6    0.02    0.09
  14  -8   6    8.69    0.49
  14  -8   6    8.44    0.47
  16  -8   6    0.29    0.17
  16  -8   6    0.49    0.16
  18  -8   6    0.28    0.19
  18  -8   6    0.53    0.20
  20  -8   6    0.53    0.21
  20  -8   6    0.26    0.21
  22  -8   6    2.03    0.36
  22  -8   6    1.57    0.30
  24  -8   6    0.56    0.27
  26  -8   6    0.26    0.23
  28  -8   6   -0.17    0.23
  30  -8   6    0.34    0.30
  32  -8   6    0.36    0.31
  34  -8   6    0.10    0.34
  34   6  -6    1.62    0.53
  32   6  -6   -0.15    0.32
  30   6  -6    3.92    0.57
  28   6  -6   -0.24    0.26
  26   6  -6    4.02    0.51
  24   6  -6    0.00    0.23
  22   6  -6   22.58    0.94
  22   6  -6   22.26    0.98
  20   6  -6   -0.08    0.15
  20   6  -6    0.17    0.17
  18   6  -6   18.62    0.79
  18   6  -6   19.21    0.81
  16   6  -6    1.28    0.17
  16   6  -6    1.23    0.23
  16   6  -6    1.45    0.24
 -16  -6   6    1.37    0.18
  14   6  -6   24.77    0.86
  14   6  -6   24.90    0.82
 -14  -6   6   24.38    0.70
  12   6  -6    1.01    0.18
  12   6  -6    1.11    0.20
 -12  -6   6    1.06    0.15
  10   6  -6   75.26    1.75
  10   6  -6   79.97    1.64
 -10  -6   6   78.10    1.55
   8   6  -6    1.81    0.20
   8   6  -6    1.68    0.16
  -8  -6   6    1.80    0.17
   6   6  -6  117.40    2.12
  -6  -6   6  117.71    2.15
   4   6  -6    8.98    0.40
  -4  -6   6    8.40    0.34
   2   6  -6   43.61    1.02
  -2  -6   6   42.10    0.94
   0   6  -6    6.56    0.31
   0  -6   6    5.92    0.29
  -2   6  -6   41.45    0.94
   2  -6   6   42.00    0.96
  -4   6  -6    9.02    0.34
   4  -6   6    9.40    0.31
   6  -6   6  114.87    2.22
   6  -6   6  118.53    2.19
   8  -6   6    1.69    0.18
   8  -6   6    1.59    0.19
  10  -6   6   78.97    1.68
  10  -6   6   75.37    1.68
  12  -6   6    0.74    0.16
  12  -6   6    0.63    0.17
  14  -6   6   26.11    0.90
  14  -6   6   24.60    0.83
  16  -6   6    0.78    0.21
  16  -6   6    1.14    0.21
  18  -6   6   19.45    0.78
  18  -6   6   18.74    0.83
  20  -6   6    0.04    0.16
  20  -6   6   -0.07    0.16
  22  -6   6   21.93    0.91
  22  -6   6   22.33    1.02
  24  -6   6    0.30    0.25
  26  -6   6    2.65    0.44
  28  -6   6   -0.21    0.21
  30  -6   6    3.00    0.52
  32  -6   6   -0.17    0.29
  34  -6   6    1.84    0.50
  34   4  -6    0.20    0.39
  32   4  -6    0.21    0.36
  30   4  -6   -0.16    0.26
  28   4  -6    0.03    0.26
  26   4  -6    0.93    0.33
  24   4  -6    0.10    0.25
  22   4  -6    0.50    0.24
  22   4  -6    0.61    0.22
  20   4  -6    0.49    0.19
  20   4  -6    0.56    0.24
  18   4  -6    0.29    0.16
  18   4  -6    0.70    0.22
  16   4  -6   -0.06    0.11
  16   4  -6    0.02    0.13
  14   4  -6    0.59    0.17
  14   4  -6    1.11    0.13
  14   4  -6    0.89    0.19
 -14  -4   6    1.16    0.14
  12   4  -6    1.82    0.23
  12   4  -6    1.43    0.20
 -12  -4   6    1.76    0.15
  10   4  -6    4.02    0.27
  10   4  -6    3.89    0.29
 -10  -4   6    4.14    0.21
   8   4  -6    0.08    0.08
   8   4  -6    0.04    0.07
  -8  -4   6    0.19    0.06
   6   4  -6    8.90    0.39
   6   4  -6    8.88    0.31
  -6  -4   6    8.65    0.30
   4   4  -6    0.59    0.11
  -4  -4   6    0.66    0.09
   2   4  -6    1.94    0.17
  -2  -4   6    2.01    0.15
   0   4  -6    0.04    0.06
   0  -4   6    0.07    0.05
  -2   4  -6    2.00    0.15
   4  -4   6    0.62    0.09
   4  -4   6    0.47    0.10
   6  -4   6    8.59    0.37
   6  -4   6    8.91    0.34
   8  -4   6    0.07    0.08
   8  -4   6    0.13    0.08
  10  -4   6    4.29    0.29
  10  -4   6    3.73    0.28
  12  -4   6    1.43    0.21
  12  -4   6    1.60    0.21
  14  -4   6    0.99    0.20
  14  -4   6    0.98    0.19
  16  -4   6    0.00    0.10
  16  -4   6   -0.04    0.13
  18  -4   6    0.14    0.13
  18  -4   6    0.43    0.18
  20  -4   6    0.36    0.20
  20  -4   6    0.33    0.19
  22  -4   6    0.64    0.24
  22  -4   6    0.63    0.23
  24  -4   6    0.63    0.25
  24  -4   6    0.18    0.24
  26  -4   6    1.82    0.39
  28  -4   6   -0.01    0.23
  30  -4   6    0.16    0.27
  32  -4   6    0.10    0.25
  34  -4   6    0.05    0.29
  34   2  -6    3.29    0.61
  32   2  -6   -0.37    0.31
  30   2  -6    4.16    0.60
  28   2  -6    0.10    0.25
  26   2  -6    3.61    0.50
  24   2  -6    0.53    0.31
  22   2  -6   16.92    0.78
  22   2  -6   17.18    0.89
  20   2  -6    0.68    0.25
  20   2  -6    0.86    0.22
  18   2  -6   13.77    0.65
  18   2  -6   14.46    0.71
  16   2  -6    0.24    0.17
  16   2  -6    0.00    0.11
  14   2  -6   15.58    0.63
  14   2  -6   15.56    0.64
 -14  -2   6   15.38    0.43
  12   2  -6    2.22    0.24
  12   2  -6    1.96    0.22
 -12  -2   6    2.25    0.15
  10   2  -6   36.85    0.95
 -10  -2   6   36.55    0.74
   8   2  -6    0.96    0.13
   8   2  -6    0.74    0.14
  -8  -2   6    0.51    0.07
   6   2  -6   41.76    1.03
   6   2  -6   41.82    0.92
  -6  -2   6   43.93    0.81
   4   2  -6    1.43    0.15
   4   2  -6    1.71    0.14
  -4  -2   6    1.93    0.11
   2   2  -6   28.92    0.73
  -2  -2   6   28.72    0.62
   0   2  -6   17.25    0.48
   0  -2   6   17.27    0.45
   2  -2   6   28.49    0.68
   4  -2   6    1.82    0.14
   4  -2   6    1.98    0.16
   6  -2   6   41.94    0.95
   6  -2   6   42.09    0.98
   8  -2   6    0.60    0.12
   8  -2   6    0.28    0.10
  10  -2   6   36.65    0.96
  10  -2   6   36.52    0.98
  12  -2   6    2.48    0.25
  12  -2   6    1.58    0.20
  14  -2   6   16.11    0.63
  14  -2   6   16.07    0.68
  16  -2   6    0.11    0.11
  16  -2   6    0.02    0.14
  18  -2   6   13.97    0.71
  18  -2   6   15.50    0.67
  20  -2   6    0.21    0.16
  20  -2   6    0.67    0.24
  22  -2   6   15.13    0.81
  22  -2   6   15.93    0.74
 -24   2  -6    0.61    0.24
  24  -2   6    0.37    0.27
  26  -2   6    3.56    0.48
  28  -2   6   -0.18    0.20
  30  -2   6    4.69    0.60
  32  -2   6    0.05    0.28
  34  -2   6    3.80    0.62
  34   0  -6    0.17    0.35
  32   0  -6   -0.16    0.35
  30   0  -6    0.21    0.33
  28   0  -6    0.04    0.27
  26   0  -6   -0.19    0.20
  24   0  -6    0.17    0.24
  22   0  -6    2.14    0.37
  22   0  -6    2.38    0.32
  20   0  -6    0.12    0.15
  20   0  -6   -0.23    0.15
  18   0  -6    1.93    0.30
  18   0  -6    1.46    0.24
  16   0  -6   -0.11    0.13
  16   0  -6    0.19    0.13
  14   0  -6    7.90    0.44
  14   0  -6    8.23    0.47
 -14   0   6    7.34    0.24
  12   0  -6    0.02    0.09
  12   0  -6    0.05    0.08
 -12   0   6   -0.03    0.04
  10   0  -6   31.70    0.88
 -10   0   6   32.37    0.60
   8   0  -6   -0.03    0.07
   6   0  -6    6.10    0.28
  -6   0   6    5.94    0.15
   4   0  -6    0.11    0.07
  -4   0   6    0.13    0.03
   2   0  -6   17.73    0.46
  -2   0   6   17.66    0.41
   0   0   6    0.15    0.05
   2   0   6   17.40    0.48
   4   0   6   -0.04    0.05
   4   0   6    0.00    0.05
   6   0   6    6.00    0.29
   6   0   6    6.33    0.30
   8   0   6    0.04    0.07
   8   0   6   -0.06    0.06
  10   0   6   32.12    0.90
  10   0   6   31.16    0.87
  12   0   6    0.03    0.08
  12   0   6   -0.06    0.08
  14   0   6    7.68    0.45
  14   0   6    7.10    0.41
  16   0   6   -0.06    0.10
  16   0   6   -0.03    0.10
 -18   0  -6    1.62    0.22
  18   0   6    2.00    0.26
  18   0   6    2.03    0.30
 -20   0  -6   -0.13    0.14
  20   0   6   -0.11    0.13
 -22   0  -6    1.84    0.28
  22   0   6    2.16    0.35
 -24   0  -6   -0.10    0.15
  24   0   6    0.04    0.19
  26   0   6   -0.09    0.18
  28   0   6    0.28    0.27
  30   0   6   -0.02    0.24
  32   0   6    0.19    0.34
  34   0   6   -0.27    0.28
  34  -2  -6    2.52    0.58
  32  -2  -6    0.22    0.35
  30  -2  -6    4.76    0.64
  28  -2  -6    0.05    0.30
  26  -2  -6    4.96    0.58
  24  -2  -6    1.11    0.33
  22  -2  -6   16.05    0.86
  22  -2  -6   16.22    0.76
  20  -2  -6    0.57    0.20
  20  -2  -6    0.66    0.25
  18  -2  -6   13.95    0.72
  18  -2  -6   16.13    0.68
  16  -2  -6    0.25    0.15
  14  -2  -6   16.53    0.69
  12  -2  -6    2.11    0.24
  10  -2  -6   37.45    1.00
   8  -2  -6    0.48    0.12
   6  -2  -6   42.78    1.00
   4  -2  -6    1.95    0.10
   4  -2  -6    2.00    0.16
   2  -2  -6   28.70    0.59
   0   2   6   17.98    0.46
   2   2   6   29.36    0.69
   4   2   6    1.64    0.15
   6   2   6   42.07    0.98
   6   2   6   40.97    0.97
   8   2   6    0.49    0.12
   8   2   6    0.60    0.12
  10   2   6   36.62    0.96
  10   2   6   35.95    0.98
 -12  -2  -6    2.28    0.22
  12   2   6    2.01    0.22
  12   2   6    1.65    0.22
 -14  -2  -6   16.57    0.64
  14   2   6   16.07    0.67
 -16  -2  -6    0.04    0.10
  16   2   6    0.19    0.13
 -18  -2  -6   14.20    0.64
  18   2   6   12.90    0.67
 -20  -2  -6    0.64    0.20
  20   2   6    0.52    0.23
 -22  -2  -6   16.22    0.74
  22   2   6   15.82    0.85
 -24  -2  -6    0.22    0.20
  24   2   6    0.81    0.31
  26   2   6    4.63    0.54
  28   2   6    0.17    0.27
  30   2   6    3.91    0.56
  32   2   6   -0.28    0.29
  34   2   6    3.07    0.62
  34  -4  -6   -0.04    0.34
  32  -4  -6    0.05    0.32
  30  -4  -6    0.41    0.33
  28  -4  -6    0.49    0.34
  26  -4  -6    1.21    0.38
  24  -4  -6    0.29    0.28
  22  -4  -6    0.75    0.28
  20  -4  -6    1.01    0.29
  18  -4  -6    0.31    0.21
  16  -4  -6    0.12    0.16
  14  -4  -6    1.13    0.22
  12  -4  -6    1.74    0.23
  10  -4  -6    3.89    0.30
   8  -4  -6    0.07    0.03
   8  -4  -6    0.04    0.07
   6  -4  -6    8.52    0.37
   6  -4  -6    8.23    0.22
   4  -4  -6    0.70    0.08
   4  -4  -6    0.53    0.11
  -4   4   6    0.42    0.06
   2  -4  -6    1.70    0.13
   2  -4  -6    1.68    0.16
  -2   4   6    1.51    0.11
   0  -4  -6    0.27    0.08
   0   4   6   -0.02    0.05
  -2  -4  -6    1.92    0.16
  -4  -4  -6    0.61    0.11
  -6  -4  -6    8.41    0.37
  -8  -4  -6    0.27    0.10
   8   4   6    0.10    0.08
 -10  -4  -6    4.13    0.30
  10   4   6    3.39    0.28
 -12  -4  -6    1.40    0.19
  12   4   6    1.21    0.19
 -14  -4  -6    1.14    0.19
  14   4   6    0.76    0.18
 -16  -4  -6   -0.08    0.11
  16   4   6    0.13    0.13
 -18  -4  -6    0.63    0.20
  18   4   6    0.58    0.22
 -20  -4  -6    0.46    0.19
  20   4   6    0.78    0.26
 -22  -4  -6    0.89    0.24
  22   4   6    0.62    0.27
 -24  -4  -6   -0.05    0.18
  24   4   6    0.31    0.25
  26   4   6    1.36    0.36
  28   4   6    0.16    0.25
  30   4   6    0.17    0.29
  32   4   6    0.43    0.38
  34   4   6    0.37    0.40
  34  -6  -6    2.15    0.57
  32  -6  -6    0.05    0.34
  30  -6  -6    3.15    0.57
  28  -6  -6    0.12    0.28
  26  -6  -6    3.44    0.52
  24  -6  -6    0.01    0.22
  22  -6  -6   19.74    0.99
  20  -6  -6    0.16    0.21
  18  -6  -6   18.64    0.87
  16  -6  -6    1.48    0.27
  14  -6  -6   25.66    0.91
  12  -6  -6    1.06    0.09
  12  -6  -6    0.88    0.19
  10  -6  -6   76.31    1.74
  10  -6  -6   77.03    1.36
   8  -6  -6    1.83    0.12
   8  -6  -6    1.27    0.19
   6  -6  -6  118.25    2.05
   6  -6  -6  118.32    2.34
   4  -6  -6    7.91    0.28
   2  -6  -6   41.97    0.99
   2  -6  -6   40.88    0.87
   0  -6  -6    6.08    0.28
  -2  -6  -6   42.34    0.95
   2   6   6   40.34    0.93
  -4  -6  -6    8.11    0.36
   6   6   6  114.63    2.20
  -8  -6  -6    1.49    0.18
 -10  -6  -6   73.38    1.65
  10   6   6   76.33    1.70
 -12  -6  -6    1.15    0.19
  12   6   6    1.02    0.19
 -14  -6  -6   24.65    0.84
  14   6   6   23.78    0.86
 -16  -6  -6    0.86    0.20
  16   6   6    1.47    0.26
 -18  -6  -6   17.55    0.75
  18   6   6   17.09    0.79
 -20  -6  -6   -0.03    0.15
  20   6   6    0.37    0.21
 -22  -6  -6   19.23    0.86
  22   6   6   19.55    0.94
 -24  -6  -6    0.10    0.19
  24   6   6   -0.13    0.18
 -26  -6  -6    3.67    0.43
  26   6   6    3.31    0.47
  28   6   6    0.08    0.26
  30   6   6    2.26    0.49
  32   6   6    0.05    0.29
  34   6   6    1.64    0.51
  32  -8  -6    0.12    0.39
  30  -8  -6    0.04    0.31
  28  -8  -6    0.26    0.32
  26  -8  -6    0.13    0.27
  24  -8  -6    1.04    0.35
  22  -8  -6    1.54    0.37
  20  -8  -6    0.27    0.23
  18  -8  -6    0.17    0.20
  16  -8  -6    0.09    0.15
  14  -8  -6    8.85    0.54
  12  -8  -6    0.18    0.14
  12  -8  -6    0.12    0.07
  10  -8  -6    0.15    0.07
  10  -8  -6    0.38    0.14
   8  -8  -6    0.70    0.10
   8  -8  -6    0.72    0.16
   6  -8  -6    1.60    0.19
   6  -8  -6    1.47    0.14
   4  -8  -6    0.09    0.07
   4  -8  -6    0.31    0.11
   2  -8  -6    0.76    0.12
   2  -8  -6    0.69    0.13
   0  -8  -6    0.01    0.07
  -2  -8  -6    0.55    0.12
  -4  -8  -6    0.15    0.09
   4   8   6    0.05    0.07
  -6  -8  -6    1.57    0.19
   6   8   6    1.36    0.18
  -8  -8  -6    0.49    0.14
   8   8   6    0.43    0.13
 -10  -8  -6    0.22    0.11
  10   8   6    0.05    0.11
 -12  -8  -6   -0.03    0.10
 -14  -8  -6    8.13    0.47
  14   8   6    8.42    0.50
 -16  -8  -6    0.30    0.16
  16   8   6    0.05    0.12
 -18  -8  -6    0.41    0.18
  18   8   6    0.37    0.19
 -20  -8  -6    0.39    0.19
  20   8   6    0.57    0.23
 -22  -8  -6    1.49    0.30
  22   8   6    2.46    0.39
 -24  -8  -6    0.20    0.20
  24   8   6    1.07    0.31
 -26  -8  -6    0.01    0.19
  26   8   6   -0.05    0.21
  28   8   6    0.50    0.31
  30   8   6    0.14    0.30
  32   8   6   -0.01    0.33
  34   8   6   -0.25    0.29
  32 -10  -6    0.00    0.39
  30 -10  -6    5.50    0.72
  28 -10  -6    0.02    0.24
  26 -10  -6    4.88    0.60
  24 -10  -6    1.13    0.37
  22 -10  -6   16.18    0.93
  20 -10  -6    0.26    0.20
  18 -10  -6   14.76    0.79
  16 -10  -6    0.84    0.24
  14 -10  -6   16.77    0.76
  12 -10  -6   -0.07    0.12
  12 -10  -6    0.09    0.07
  10 -10  -6   33.12    0.79
  10 -10  -6   33.93    1.04
   8 -10  -6   -0.04    0.09
   8 -10  -6    0.30    0.09
   6 -10  -6   76.49    1.52
   6 -10  -6   74.17    1.70
   4 -10  -6    3.51    0.28
   4 -10  -6    3.31    0.23
   2 -10  -6   37.27    0.98
   2 -10  -6   34.63    0.88
   0 -10  -6   30.58    0.83
  -2 -10  -6   37.47    0.97
  -4 -10  -6    4.20    0.30
  -6 -10  -6   76.88    1.70
   6  10   6   76.78    1.69
  -8 -10  -6    0.26    0.12
   8  10   6    0.29    0.13
 -10 -10  -6   32.77    1.01
  10  10   6   33.23    1.00
 -12 -10  -6   -0.11    0.09
  12  10   6    0.18    0.13
 -14 -10  -6   16.31    0.72
 -16 -10  -6    0.91    0.24
  16  10   6    0.52    0.20
 -18 -10  -6   14.16    0.72
  18  10   6   13.79    0.72
 -20 -10  -6    0.33    0.20
  20  10   6    0.58    0.24
 -22 -10  -6   15.12    0.80
  22  10   6   16.51    0.90
 -24 -10  -6    1.16    0.30
  24  10   6    0.81    0.31
 -26 -10  -6    3.78    0.46
  26  10   6    3.27    0.50
  28  10   6    0.36    0.29
  30  10   6    5.35    0.67
  32  10   6    0.26    0.34
  32 -12  -6    0.24    0.36
  30 -12  -6    0.61    0.36
  28 -12  -6    0.07    0.26
  26 -12  -6    0.76    0.31
  24 -12  -6    0.31    0.29
  22 -12  -6   -0.37    0.17
  20 -12  -6    0.07    0.18
  18 -12  -6   -0.02    0.17
  16 -12  -6    0.24    0.20
  14 -12  -6    0.93    0.24
  12 -12  -6    0.27    0.17
  12 -12  -6    0.09    0.10
  10 -12  -6    0.02    0.11
  10 -12  -6   -0.04    0.09
   8 -12  -6    0.01    0.09
   8 -12  -6   -0.04    0.09
   6 -12  -6    1.09    0.16
   6 -12  -6    1.22    0.20
   4 -12  -6    1.73    0.20
   4 -12  -6    1.63    0.21
   2 -12  -6    2.06    0.23
   2 -12  -6    2.13    0.22
   0 -12  -6    0.06    0.10
   0 -12  -6    0.05    0.10
  -2 -12  -6    2.40    0.25
  -4 -12  -6    2.06    0.24
  -6 -12  -6    0.86    0.18
  -8 -12  -6    0.09    0.11
   8  12   6    0.02    0.12
 -10 -12  -6   -0.03    0.11
  10  12   6   -0.01    0.11
 -12 -12  -6    0.17    0.13
  12  12   6    0.04    0.12
 -14 -12  -6    0.90    0.23
  14  12   6    1.27    0.24
 -16 -12  -6    0.33    0.19
 -18 -12  -6    0.06    0.15
 -20 -12  -6    0.29    0.20
 -22 -12  -6    0.14    0.19
  22  12   6   -0.10    0.20
 -24 -12  -6    0.37    0.24
  24  12   6    0.10    0.21
 -26 -12  -6    0.75    0.29
  26  12   6    1.03    0.35
  28  12   6    0.18    0.28
  30  12   6   -0.09    0.28
  32  12   6   -0.04    0.35
  30 -14  -6    5.07    0.71
  28 -14  -6    0.02    0.28
  26 -14  -6    5.66    0.67
  24 -14  -6    0.25    0.26
  22 -14  -6   10.28    0.76
  20 -14  -6    0.25    0.24
  18 -14  -6   14.59    0.82
  16 -14  -6    4.01    0.44
  14 -14  -6   18.94    0.85
  12 -14  -6    0.82    0.17
  12 -14  -6    1.08    0.25
  10 -14  -6   17.70    0.62
  10 -14  -6   18.49    0.77
   8 -14  -6    7.60    0.47
   8 -14  -6    7.47    0.39
   6 -14  -6   24.47    0.77
   6 -14  -6   23.82    0.85
   4 -14  -6    0.73    0.17
   4 -14  -6    1.37    0.20
   2 -14  -6   16.11    0.65
   2 -14  -6   15.99    0.62
   0 -14  -6    7.21    0.42
   0 -14  -6    7.32    0.42
  -2 -14  -6   15.62    0.64
  -4 -14  -6    0.81    0.19
  -6 -14  -6   24.24    0.86
  -8 -14  -6    8.52    0.51
 -10 -14  -6   16.60    0.74
  10  14   6   17.07    0.74
 -12 -14  -6    1.06    0.25
  12  14   6    0.93    0.23
 -14 -14  -6   19.80    0.85
  14  14   6   19.81    0.85
 -16 -14  -6    3.26    0.40
  16  14   6    4.27    0.42
 -18 -14  -6   13.22    0.74
 -20 -14  -6    0.16    0.21
 -22 -14  -6    8.97    0.66
 -24 -14  -6    0.13    0.23
 -26 -14  -6    5.22    0.55
  30 -16  -6   -0.13    0.29
  28 -16  -6    0.02    0.29
  26 -16  -6    0.14    0.30
  24 -16  -6    0.33    0.28
  22 -16  -6    0.84    0.31
  20 -16  -6    0.08    0.19
  18 -16  -6    0.27    0.22
  16 -16  -6    0.10    0.21
  14 -16  -6    3.05    0.40
  12 -16  -6   -0.06    0.10
  12 -16  -6    0.46    0.21
  10 -16  -6    0.57    0.20
  10 -16  -6    0.29    0.16
   8 -16  -6    0.36    0.16
   8 -16  -6    0.07    0.13
   6 -16  -6    1.32    0.24
   6 -16  -6    1.47    0.22
   4 -16  -6    0.07    0.13
   4 -16  -6    0.21    0.14
   2 -16  -6   -0.06    0.11
   2 -16  -6    0.20    0.14
   0 -16  -6   -0.03    0.10
   0 -16  -6    0.00    0.13
  -2 -16  -6    0.15    0.14
  -4 -16  -6    0.13    0.14
  -6 -16  -6    0.94    0.24
  -8 -16  -6    0.24    0.19
 -10 -16  -6    0.55    0.20
 -12 -16  -6   -0.08    0.13
  12  16   6    0.28    0.16
 -14 -16  -6    3.09    0.38
  14  16   6    3.68    0.40
 -16 -16  -6    0.48    0.22
  16  16   6    0.16    0.18
 -18 -16  -6   -0.15    0.14
  18  16   6    0.11    0.19
 -20 -16  -6    0.44    0.24
 -22 -16  -6    1.09    0.32
 -24 -16  -6    0.41    0.27
 -26 -16  -6   -0.04    0.26
  28 -18  -6    0.01    0.30
  26 -18  -6    4.18    0.62
  24 -18  -6    0.46    0.32
  22 -18  -6    7.25    0.68
  20 -18  -6    0.15    0.26
  18 -18  -6    9.16    0.68
  16 -18  -6    0.04    0.20
  14 -18  -6   12.41    0.73
  12 -18  -6   -0.01    0.17
  10 -18  -6   13.22    0.69
  10 -18  -6   13.21    0.61
   8 -18  -6    0.70    0.21
   8 -18  -6    0.30    0.16
   6 -18  -6   18.28    0.73
   6 -18  -6   17.66    0.76
   4 -18  -6    0.49    0.19
   4 -18  -6    0.50    0.19
   2 -18  -6   13.95    0.65
   2 -18  -6   13.21    0.64
   0 -18  -6    1.75    0.26
   0 -18  -6    1.39    0.25
  -2 -18  -6   13.74    0.68
  -2 -18  -6   13.59    0.63
  -4 -18  -6    0.34    0.21
  -6 -18  -6   18.71    0.83
  -8 -18  -6    0.47    0.21
 -10 -18  -6   13.41    0.73
 -12 -18  -6    0.07    0.19
  12  18   6   -0.21    0.15
 -14 -18  -6   12.75    0.75
  14  18   6   12.88    0.73
 -16 -18  -6   -0.03    0.20
  16  18   6    0.16    0.20
 -18 -18  -6   10.06    0.70
  18  18   6    9.10    0.66
 -20 -18  -6    0.12    0.23
 -22 -18  -6    5.53    0.59
 -24 -18  -6    0.34    0.27
 -26 -18  -6    2.39    0.47
  28 -20  -6    1.41    0.49
  26 -20  -6   -0.07    0.32
  24 -20  -6    0.24    0.32
  22 -20  -6    0.07    0.26
  20 -20  -6    0.31    0.26
  18 -20  -6    0.37    0.26
  16 -20  -6    0.40    0.25
  14 -20  -6   -0.07    0.19
  12 -20  -6    0.02    0.18
  10 -20  -6    0.27    0.20
  10 -20  -6    0.45    0.23
   8 -20  -6    0.19    0.19
   8 -20  -6    0.20    0.19
   6 -20  -6    0.09    0.17
   6 -20  -6    0.13    0.18
   4 -20  -6    0.30    0.18
   4 -20  -6    0.39    0.22
   2 -20  -6    0.93    0.23
   2 -20  -6    0.57    0.23
   0 -20  -6    0.00    0.17
   0 -20  -6    0.06    0.14
  -2 -20  -6    0.34    0.19
  -2 -20  -6    0.57    0.23
  -4 -20  -6    0.42    0.17
  -4 -20  -6    0.29    0.21
  -6 -20  -6    0.09    0.19
  -8 -20  -6    0.02    0.19
 -10 -20  -6    1.16    0.30
 -12 -20  -6    0.19    0.20
 -14 -20  -6    0.06    0.18
  14  20   6    0.25    0.19
 -16 -20  -6    0.54    0.27
  16  20   6    0.36    0.25
 -18 -20  -6   -0.01    0.21
  18  20   6    0.16    0.21
 -20 -20  -6    0.10    0.23
  20  20   6    0.32    0.25
 -22 -20  -6    0.16    0.24
 -24 -20  -6    0.93    0.37
 -26 -20  -6    0.25    0.32
  26 -22  -6    4.49    0.68
  24 -22  -6    0.73    0.38
  22 -22  -6    9.34    0.81
  20 -22  -6    0.54    0.32
  18 -22  -6    5.94    0.61
  16 -22  -6    1.07    0.33
  14 -22  -6    8.58    0.66
  12 -22  -6    0.05    0.20
  10 -22  -6   16.04    0.76
  10 -22  -6   15.33    0.81
   8 -22  -6    2.38    0.36
   8 -22  -6    2.13    0.32
   6 -22  -6   19.47    0.84
   6 -22  -6   20.31    0.89
   4 -22  -6    0.74    0.24
   4 -22  -6    0.79    0.24
   2 -22  -6   15.14    0.78
   2 -22  -6   15.65    0.75
   0 -22  -6    2.21    0.35
   0 -22  -6    2.34    0.32
  -2 -22  -6   16.13    0.75
  -2 -22  -6   14.46    0.79
  -4 -22  -6    0.86    0.28
  -4 -22  -6    0.33    0.20
  -6 -22  -6   20.42    0.97
  -8 -22  -6    2.37    0.39
 -10 -22  -6   14.50    0.84
 -12 -22  -6    0.05    0.20
 -14 -22  -6    9.30    0.70
  14  22   6    9.94    0.71
 -16 -22  -6    0.72    0.32
  16  22   6    1.11    0.34
 -18 -22  -6    4.66    0.55
  18  22   6    5.91    0.60
 -20 -22  -6   -0.23    0.22
  20  22   6   -0.22    0.20
 -22 -22  -6    6.93    0.69
  26 -24  -6    0.27    0.38
  24 -24  -6    0.23    0.34
  22 -24  -6    0.13    0.30
  20 -24  -6    0.26    0.30
  18 -24  -6    0.72    0.33
  16 -24  -6    0.30    0.26
  14 -24  -6    0.23    0.24
  12 -24  -6    0.19    0.22
  10 -24  -6    1.09    0.30
   8 -24  -6    0.35    0.26
   8 -24  -6    0.72    0.27
   6 -24  -6   -0.11    0.18
   6 -24  -6    0.05    0.21
   4 -24  -6    0.31    0.23
   4 -24  -6    0.50    0.25
   2 -24  -6    0.88    0.29
   2 -24  -6    1.36    0.28
   0 -24  -6   -0.03    0.19
   0 -24  -6   -0.25    0.14
  -2 -24  -6    1.14    0.31
  -2 -24  -6    0.60    0.25
  -4 -24  -6    0.30    0.21
  -4 -24  -6    0.11    0.24
  -6 -24  -6    0.47    0.21
  -6 -24  -6    0.23    0.25
  -8 -24  -6    0.29    0.28
 -10 -24  -6    0.82    0.32
 -12 -24  -6    0.24    0.24
 -14 -24  -6    0.51    0.26
  14  24   6    0.84    0.30
 -16 -24  -6    0.19    0.25
  16  24   6    0.17    0.25
 -18 -24  -6    0.44    0.29
  18  24   6    0.74    0.33
 -20 -24  -6    0.19    0.32
  20  24   6    0.86    0.34
  24 -26  -6    0.68    0.42
  22 -26  -6    3.68    0.61
  20 -26  -6    0.33    0.34
  18 -26  -6    2.97    0.50
  16 -26  -6    0.23    0.27
  14 -26  -6    5.30    0.57
  12 -26  -6    0.65    0.31
  10 -26  -6    3.93    0.47
   8 -26  -6    0.14    0.21
   8 -26  -6    0.18    0.19
   6 -26  -6    3.44    0.44
   6 -26  -6    2.96    0.40
   4 -26  -6    1.10    0.31
   4 -26  -6    1.15    0.29
   2 -26  -6    3.78    0.46
   0 -26  -6   -0.19    0.20
  -2 -26  -6    3.66    0.49
  -4 -26  -6    0.91    0.31
  -6 -26  -6    2.58    0.45
  -8 -26  -6    0.32    0.29
 -10 -26  -6    4.98    0.61
 -12 -26  -6    0.49    0.30
 -14 -26  -6    5.86    0.66
  14  26   6    5.14    0.61
 -16 -26  -6    0.37    0.31
  16  26   6   -0.09    0.25
 -18 -26  -6    3.43    0.56
  18  26   6    2.87    0.50
   8 -28  -6    0.24    0.28
   6 -28  -6   -0.08    0.22
   4 -28  -6    0.05    0.25
   2 -28  -6   -0.06    0.24
   0 -28  -6    0.08    0.27
  -2 -28  -6    0.00    0.26
  -4 -28  -6   -0.01    0.23
  -6 -28  -6    0.16    0.31
  -8 -28  -6    0.11    0.29
 -10 -28  -6   -0.11    0.27
 -12 -28  -6    0.18    0.28
 -14 -28  -6    0.12    0.31
  14  28   6    0.12    0.28
   6 -30  -6    2.59    0.46
   4 -30  -6    0.22    0.29
   2 -30  -6    4.66    0.55
   0 -30  -6    0.13    0.27
  -2 -30  -6    3.62    0.54
  -4 -30  -6    0.33    0.30
  -6 -30  -6    3.41    0.55
  -8 -30  -6   -0.12    0.31
   6 -32  -6    0.18    0.31
   4 -32  -6   -0.27    0.27
   2 -32  -6   -0.01    0.30
   0 -32  -6    0.58    0.35
  -1 -31   7   -0.01    0.28
   1 -31   7    0.10    0.28
   3 -31   7    0.06    0.29
   5 -31   7    0.35    0.31
 -13 -29   7   -0.13    0.26
 -11 -29   7   -0.01    0.24
  -9 -29   7    0.12    0.24
  -7 -29   7   -0.10    0.20
  -5 -29   7    0.06    0.23
  -3 -29   7   -0.03    0.19
  -1 -29   7   -0.12    0.21
   1 -29   7    0.30    0.29
   3 -29   7   -0.16    0.23
   5 -29   7    0.14    0.27
   7 -29   7    0.07    0.29
   9 -29   7   -0.11    0.22
  11 -29   7    0.15    0.31
  13 -29   7    0.94    0.38
  15 -29   7   -0.08    0.32
 -19 -27   7   -0.05    0.25
 -17 -27   7    0.19    0.26
 -15 -27   7    0.38    0.27
 -13 -27   7    0.00    0.21
 -11 -27   7   -0.03    0.23
  -9 -27   7    0.14    0.24
  -7 -27   7    0.08    0.19
  -5 -27   7    0.07    0.19
  -3 -27   7    0.28    0.22
  -1 -27   7    0.19    0.23
   1 -27   7    0.16    0.23
   3 -27   7   -0.12    0.22
   5 -27   7   -0.29    0.21
   7 -27   7    0.04    0.23
   9 -27   7   -0.12    0.23
  11 -27   7   -0.24    0.22
  13 -27   7    0.08    0.27
  15 -27   7    0.20    0.28
  17 -27   7   -0.20    0.28
 -19 -25   7   -0.02    0.25
 -17 -25   7    0.22    0.25
 -15 -25   7    0.04    0.21
 -13 -25   7   -0.05    0.20
 -11 -25   7   -0.03    0.19
  -9 -25   7    0.07    0.23
  -7 -25   7    0.02    0.18
  -5 -25   7    0.00    0.18
  -3 -25   7    0.03    0.19
  -1 -25   7   -0.21    0.16
   1 -25   7    0.04    0.19
   3 -25   7   -0.14    0.18
   5 -25   7    0.12    0.21
   7 -25   7   -0.05    0.21
   9 -25   7   -0.04    0.21
  11 -25   7    0.17    0.23
  13 -25   7   -0.05    0.23
  15 -25   7   -0.10    0.26
  17 -25   7    0.24    0.28
  23  23  -7   -0.05    0.32
  21  23  -7    0.01    0.26
  19  23  -7   -0.05    0.24
 -19 -23   7   -0.08    0.22
  17  23  -7    0.12    0.25
 -17 -23   7    0.36    0.21
  15  23  -7   -0.07    0.21
 -15 -23   7   -0.10    0.19
  13  23  -7    0.00    0.22
 -13 -23   7   -0.12    0.18
  11  23  -7   -0.01    0.22
 -11 -23   7    0.01    0.18
  -9 -23   7    0.32    0.21
  -7 -23   7   -0.03    0.16
  -5 -23   7    0.53    0.23
  -3 -23   7   -0.08    0.16
  -1 -23   7    0.15    0.18
   1 -23   7    0.31    0.20
   3 -23   7   -0.24    0.15
   5 -23   7    0.14    0.24
   7 -23   7   -0.14    0.16
   9 -23   7    0.54    0.25
  11 -23   7    0.18    0.21
  13 -23   7    0.18    0.23
  15 -23   7    0.06    0.22
  17 -23   7    0.05    0.24
  19 -23   7   -0.03    0.24
  23  21  -7   -0.21    0.26
  21  21  -7    0.17    0.28
  19  21  -7    0.50    0.30
  17  21  -7    0.23    0.26
 -17 -21   7    0.15    0.21
  15  21  -7    0.48    0.28
 -15 -21   7    0.47    0.24
  13  21  -7    1.11    0.31
 -13 -21   7    0.48    0.22
  11  21  -7    1.97    0.38
 -11 -21   7    1.45    0.31
   9  21  -7    0.38    0.23
  -9 -21   7    0.20    0.17
   7  21  -7   -0.37    0.18
  -7 -21   7    0.05    0.16
  -5 -21   7   -0.08    0.16
  -3 -21   7   -0.01    0.13
  -1 -21   7    0.02    0.12
   1 -21   7    0.51    0.22
   3 -21   7   -0.05    0.17
   5 -21   7    0.01    0.17
   7 -21   7   -0.10    0.17
   9 -21   7   -0.13    0.17
  11 -21   7    1.28    0.32
  13 -21   7    0.83    0.28
  15 -21   7    0.04    0.23
  17 -21   7    0.26    0.25
  19 -21   7    0.09    0.26
  23  19  -7    0.05    0.27
  21  19  -7    0.15    0.28
  19  19  -7   -0.14    0.23
  17  19  -7    0.60    0.29
 -17 -19   7    0.88    0.28
  15  19  -7    0.17    0.22
 -15 -19   7    0.13    0.16
  13  19  -7    0.12    0.22
 -13 -19   7    0.32    0.18
  11  19  -7    0.22    0.21
 -11 -19   7    0.08    0.18
   9  19  -7    0.13    0.19
  -9 -19   7    0.61    0.22
   7  19  -7    0.04    0.17
  -7 -19   7    0.04    0.15
   5  19  -7   -0.09    0.17
  -5 -19   7   -0.09    0.13
   3  19  -7    0.68    0.24
  -3 -19   7    0.65    0.22
  -1 -19   7    0.90    0.24
   1 -19   7    1.12    0.25
   3 -19   7    0.33    0.19
   5 -19   7    0.17    0.17
   7 -19   7    0.04    0.15
   9 -19   7    0.66    0.24
  11 -19   7    0.13    0.18
  13 -19   7    0.17    0.18
  15 -19   7    0.16    0.19
  17 -19   7    0.59    0.25
  19 -19   7    0.05    0.22
  21 -19   7   -0.13    0.22
  23  17  -7    0.25    0.28
  21  17  -7    0.40    0.27
  19  17  -7    0.25    0.22
  17  17  -7    0.00    0.18
 -17 -17   7   -0.15    0.15
  15  17  -7    0.09    0.22
 -15 -17   7    0.20    0.18
  13  17  -7    1.58    0.33
 -13 -17   7    1.24    0.27
  11  17  -7    0.04    0.18
 -11 -17   7   -0.02    0.14
   9  17  -7    0.02    0.18
  -9 -17   7    0.22    0.16
   7  17  -7   -0.32    0.13
  -7 -17   7   -0.05    0.13
   5  17  -7   -0.10    0.14
  -5 -17   7   -0.10    0.11
   3  17  -7    1.15    0.26
  -3 -17   7    1.11    0.23
   1  17  -7    0.14    0.17
  -1 -17   7   -0.11    0.10
   1 -17   7    0.18    0.13
   3 -17   7    1.33    0.26
   5 -17   7   -0.16    0.11
   7 -17   7   -0.09    0.12
   9 -17   7   -0.03    0.13
  11 -17   7    0.06    0.17
  13 -17   7    1.50    0.28
  15 -17   7    0.33    0.22
  15 -17   7    0.14    0.18
  17 -17   7   -0.01    0.18
  17 -17   7   -0.01    0.18
  19 -17   7    0.68    0.28
  19 -17   7    0.58    0.27
  21 -17   7   -0.13    0.19
  21 -17   7    0.09    0.23
  23 -17   7    0.07    0.23
  25 -17   7    0.49    0.31
  27 -17   7   -0.24    0.25
  29 -17   7    0.04    0.31
  31 -17   7    0.34    0.38
  23  15  -7    0.21    0.23
  21  15  -7    0.04    0.23
  19  15  -7   -0.20    0.18
  17  15  -7    0.09    0.20
 -17 -15   7    0.05    0.16
  15  15  -7   -0.03    0.17
 -15 -15   7   -0.02    0.13
  13  15  -7    0.07    0.18
 -13 -15   7   -0.24    0.12
  11  15  -7    0.43    0.19
 -11 -15   7    0.05    0.12
   9  15  -7    0.31    0.20
  -9 -15   7    0.48    0.17
   7  15  -7   -0.05    0.13
  -7 -15   7   -0.13    0.08
   5  15  -7    2.02    0.29
  -5 -15   7    2.24    0.28
   3  15  -7    0.23    0.16
  -3 -15   7    0.53    0.17
   1  15  -7    0.32    0.16
  -1 -15   7    0.18    0.12
  -1  15  -7    0.42    0.17
   1 -15   7    0.14    0.12
   3 -15   7    0.11    0.13
   5 -15   7    2.08    0.28
   7 -15   7    0.11    0.14
   9 -15   7    0.49    0.18
   9 -15   7    0.71    0.16
  11 -15   7    0.02    0.14
  11 -15   7    0.05    0.12
  13 -15   7    0.03    0.15
  13 -15   7    0.05    0.14
  15 -15   7    0.14    0.17
  15 -15   7   -0.16    0.13
  17 -15   7    0.26    0.18
  17 -15   7    0.05    0.19
  19 -15   7    0.01    0.18
  19 -15   7   -0.01    0.19
  21 -15   7    0.32    0.23
  21 -15   7    0.43    0.26
  23 -15   7    0.22    0.23
  25 -15   7   -0.14    0.23
  27 -15   7   -0.15    0.24
  29 -15   7   -0.11    0.31
  31 -15   7    0.06    0.32
  23  13  -7    0.04    0.22
  21  13  -7    1.01    0.30
  19  13  -7    0.64    0.27
  17  13  -7    1.25    0.28
 -17 -13   7    0.93    0.23
  15  13  -7   -0.10    0.13
 -15 -13   7   -0.03    0.14
  13  13  -7   -0.13    0.13
 -13 -13   7   -0.05    0.10
  11  13  -7    0.49    0.20
 -11 -13   7    0.16    0.14
   9  13  -7    0.14    0.16
  -9 -13   7    0.37    0.15
   7  13  -7    0.04    0.13
  -7 -13   7    0.17    0.11
   5  13  -7    0.11    0.13
  -5 -13   7    0.44    0.16
   3  13  -7    0.32    0.16
  -3 -13   7    0.90    0.18
   1  13  -7    1.33    0.22
  -1 -13   7    1.13    0.19
  -1  13  -7    1.12    0.21
   1 -13   7    1.05    0.19
  -3  13  -7    0.91    0.19
   3 -13   7    1.12    0.20
   3 -13   7    0.99    0.11
   5 -13   7    0.42    0.10
   5 -13   7    0.50    0.17
   7 -13   7   -0.02    0.07
   7 -13   7   -0.06    0.10
   9 -13   7    0.39    0.14
   9 -13   7    0.06    0.11
  11 -13   7    0.50    0.18
  11 -13   7    0.53    0.17
  13 -13   7   -0.04    0.13
  13 -13   7   -0.09    0.11
  15 -13   7    0.01    0.14
  15 -13   7   -0.04    0.15
  17 -13   7    1.79    0.31
  17 -13   7    1.42    0.27
  19 -13   7    0.10    0.20
  19 -13   7    0.16    0.20
  21 -13   7    0.63    0.26
  21 -13   7    0.86    0.27
  23 -13   7    0.43    0.25
  25 -13   7   -0.17    0.23
  27 -13   7   -0.24    0.21
  29 -13   7    0.44    0.36
  31 -13   7    0.27    0.31
  23  11  -7   -0.05    0.19
  21  11  -7    1.30    0.28
  21  11  -7    1.59    0.33
  19  11  -7    0.21    0.17
  19  11  -7   -0.17    0.14
  17  11  -7    0.15    0.16
  17  11  -7    0.12    0.14
 -17 -11   7    0.07    0.13
  15  11  -7   -0.01    0.15
  15  11  -7   -0.09    0.11
 -15 -11   7    0.08    0.12
  13  11  -7    0.15    0.14
  13  11  -7    0.27    0.12
 -13 -11   7    0.28    0.14
  11  11  -7    0.14    0.13
  11  11  -7    0.01    0.08
 -11 -11   7   -0.05    0.08
   9  11  -7    1.01    0.21
   9  11  -7    1.15    0.14
  -9 -11   7    0.96    0.17
   7  11  -7    0.09    0.06
   7  11  -7    0.16    0.12
  -7 -11   7   -0.07    0.07
   5  11  -7    1.03    0.19
  -5 -11   7    1.53    0.20
   3  11  -7   -0.06    0.10
  -3 -11   7    0.08    0.09
   1  11  -7    2.84    0.26
  -1 -11   7    4.34    0.31
  -1  11  -7    4.07    0.32
   1 -11   7    3.76    0.29
  -3  11  -7    0.03    0.09
   3 -11   7    0.00    0.05
   3 -11   7    0.03    0.08
   5 -11   7    0.91    0.17
   5 -11   7    1.26    0.14
   7 -11   7   -0.03    0.06
   7 -11   7   -0.03    0.09
   9 -11   7    1.34    0.19
   9 -11   7    1.09    0.20
  11 -11   7   -0.10    0.10
  11 -11   7    0.02    0.10
  13 -11   7    0.21    0.15
  13 -11   7    0.48    0.17
  15 -11   7    0.00    0.12
  15 -11   7   -0.14    0.12
  17 -11   7   -0.02    0.13
  17 -11   7    0.07    0.16
  19 -11   7   -0.08    0.16
  19 -11   7    0.11    0.18
  21 -11   7    1.69    0.31
  21 -11   7    2.01    0.36
  23 -11   7   -0.02    0.20
  23 -11   7   -0.29    0.17
  25 -11   7   -0.17    0.21
  27 -11   7    0.20    0.27
  29 -11   7    0.54    0.30
  31 -11   7    0.20    0.34
  33 -11   7    0.42    0.36
  29   9  -7    0.00    0.30
  27   9  -7   -0.07    0.25
  25   9  -7   -0.11    0.21
  23   9  -7    0.36    0.25
  23   9  -7    0.32    0.23
  21   9  -7    0.22    0.20
  21   9  -7   -0.03    0.17
  19   9  -7    0.72    0.24
  19   9  -7    0.56    0.21
  17   9  -7    0.27    0.17
  17   9  -7   -0.20    0.13
  15   9  -7    0.53    0.19
  15   9  -7    0.72    0.18
 -15  -9   7    0.33    0.14
  13   9  -7    0.39    0.14
  13   9  -7    0.34    0.16
 -13  -9   7    0.27    0.12
  11   9  -7    1.30    0.17
  11   9  -7    1.35    0.23
 -11  -9   7    1.07    0.17
   9   9  -7   -0.02    0.07
   9   9  -7   -0.13    0.08
  -9  -9   7    0.11    0.09
   7   9  -7   -0.01    0.06
   7   9  -7    0.05    0.11
  -7  -9   7    0.04    0.07
   5   9  -7    1.69    0.21
  -5  -9   7    1.98    0.20
   3   9  -7    0.11    0.10
  -3  -9   7    0.13    0.09
   1   9  -7   11.00    0.47
  -1  -9   7   10.61    0.44
  -1   9  -7    9.96    0.44
   1  -9   7   10.68    0.45
  -3   9  -7    0.00    0.08
   3  -9   7    0.08    0.08
  -5   9  -7    1.39    0.17
   5  -9   7    1.96    0.16
   5  -9   7    1.67    0.20
   7  -9   7   -0.02    0.06
   7  -9   7   -0.06    0.07
   9  -9   7    0.03    0.08
   9  -9   7    0.05    0.09
  11  -9   7    1.07    0.20
  11  -9   7    1.05    0.18
  13  -9   7    0.12    0.11
  13  -9   7    0.27    0.13
  15  -9   7    0.64    0.19
  15  -9   7    0.59    0.18
  17  -9   7   -0.08    0.13
  17  -9   7   -0.21    0.11
  19  -9   7    0.59    0.24
  19  -9   7    0.68    0.22
  21  -9   7    0.16    0.19
  21  -9   7    0.01    0.18
  23  -9   7    0.07    0.19
  23  -9   7    0.03    0.20
  25  -9   7    0.02    0.19
  27  -9   7    0.15    0.23
  29  -9   7   -0.20    0.21
  31  -9   7    0.32    0.31
  33  -9   7    0.47    0.37
  35   7  -7   -0.16    0.36
  33   7  -7   -0.20    0.33
  31   7  -7    0.26    0.31
  29   7  -7   -0.05    0.28
  27   7  -7    0.02    0.23
  25   7  -7   -0.22    0.21
  23   7  -7    0.02    0.23
  23   7  -7   -0.11    0.18
  21   7  -7   -0.10    0.16
  21   7  -7   -0.02    0.16
  19   7  -7    0.00    0.14
  19   7  -7   -0.07    0.16
  17   7  -7    0.09    0.15
  17   7  -7    0.04    0.13
  15   7  -7   -0.07    0.12
  15   7  -7   -0.12    0.11
 -15  -7   7   -0.08    0.08
  13   7  -7   -0.08    0.10
  13   7  -7    0.02    0.10
 -13  -7   7    0.04    0.08
  11   7  -7   -0.07    0.08
  11   7  -7   -0.06    0.08
 -11  -7   7   -0.06    0.07
   9   7  -7   -0.03    0.07
   9   7  -7    0.03    0.08
  -9  -7   7   -0.04    0.06
   7   7  -7    0.03    0.07
   7   7  -7   -0.01    0.08
  -7  -7   7   -0.02    0.06
   5   7  -7   -0.02    0.07
  -5  -7   7    0.00    0.06
   3   7  -7    0.05    0.08
  -3  -7   7    0.03    0.06
   1   7  -7   -0.08    0.06
  -1  -7   7   -0.01    0.05
  -1   7  -7    0.05    0.07
   1  -7   7    0.02    0.06
  -3   7  -7    0.02    0.07
   3  -7   7   -0.01    0.06
  -5   7  -7   -0.03    0.06
   5  -7   7    0.03    0.07
   5  -7   7    0.10    0.06
   7  -7   7    0.10    0.09
   7  -7   7    0.13    0.08
   9  -7   7    0.00    0.07
   9  -7   7    0.09    0.08
  11  -7   7   -0.07    0.08
  11  -7   7    0.11    0.10
  13  -7   7   -0.06    0.08
  13  -7   7    0.02    0.09
  15  -7   7   -0.02    0.11
  15  -7   7    0.04    0.12
  17  -7   7    0.15    0.14
  17  -7   7   -0.10    0.12
  19  -7   7    0.03    0.16
  19  -7   7    0.04    0.14
  21  -7   7   -0.11    0.16
  21  -7   7   -0.11    0.16
  23  -7   7   -0.03    0.16
  23  -7   7   -0.15    0.18
  25  -7   7   -0.14    0.19
  27  -7   7   -0.10    0.21
  29  -7   7    0.18    0.28
  31  -7   7   -0.03    0.27
  33  -7   7    0.27    0.34
  35   5  -7    0.25    0.39
  33   5  -7    0.29    0.39
  31   5  -7   -0.18    0.25
  29   5  -7   -0.07    0.27
  27   5  -7    0.34    0.29
  25   5  -7    0.02    0.23
  23   5  -7    0.39    0.20
  23   5  -7    1.15    0.32
  21   5  -7   -0.04    0.17
  21   5  -7    0.38    0.19
  19   5  -7   -0.02    0.13
  19   5  -7    0.15    0.17
  17   5  -7   -0.05    0.10
  17   5  -7   -0.08    0.12
  15   5  -7    2.14    0.27
  15   5  -7    2.44    0.29
  15   5  -7    1.56    0.17
 -15  -5   7    1.87    0.18
  13   5  -7    0.31    0.14
  13   5  -7    0.42    0.15
 -13  -5   7    0.46    0.10
  11   5  -7    1.05    0.19
  11   5  -7    1.38    0.18
 -11  -5   7    1.13    0.13
   9   5  -7    1.57    0.20
   9   5  -7    2.20    0.19
  -9  -5   7    1.88    0.15
   7   5  -7    0.01    0.07
   7   5  -7    0.01    0.06
  -7  -5   7    0.05    0.05
   5   5  -7   -0.04    0.06
  -5  -5   7   -0.06    0.04
   3   5  -7    0.55    0.11
  -3  -5   7    0.55    0.10
   1   5  -7    5.64    0.29
  -1  -5   7    5.13    0.26
  -1   5  -7    5.30    0.27
   1  -5   7    5.34    0.27
  -3   5  -7    0.67    0.10
   3  -5   7    0.45    0.07
   3  -5   7    0.35    0.09
  -5   5  -7   -0.04    0.05
   5  -5   7    0.01    0.05
   5  -5   7    0.00    0.06
   7  -5   7   -0.09    0.06
   7  -5   7    0.07    0.07
   9  -5   7    1.57    0.18
   9  -5   7    1.86    0.20
  11  -5   7    1.10    0.19
  11  -5   7    1.12    0.18
  13  -5   7    0.64    0.16
  13  -5   7    0.32    0.13
  15  -5   7    2.28    0.28
  15  -5   7    1.82    0.24
  17  -5   7   -0.11    0.09
  17  -5   7   -0.06    0.12
  19  -5   7    0.06    0.15
  19  -5   7   -0.02    0.14
  21  -5   7    0.47    0.21
  21  -5   7   -0.10    0.15
  23  -5   7    1.26    0.31
  23  -5   7    0.83    0.26
  25  -5   7    0.00    0.19
  27  -5   7    0.49    0.28
  29  -5   7   -0.05    0.23
  31  -5   7   -0.04    0.25
  33  -5   7    0.01    0.28
  35   3  -7   -0.13    0.32
  33   3  -7   -0.14    0.34
  31   3  -7   -0.11    0.31
  29   3  -7    0.55    0.34
  27   3  -7    0.03    0.23
  25   3  -7   -0.45    0.20
  23   3  -7    0.05    0.21
  23   3  -7    0.04    0.16
  21   3  -7    0.07    0.16
  21   3  -7    0.05    0.18
  19   3  -7    0.54    0.18
  19   3  -7    0.43    0.20
  17   3  -7    1.28    0.23
  17   3  -7    1.41    0.26
  15   3  -7    0.36    0.16
  15   3  -7    0.48    0.17
  13   3  -7    0.97    0.19
  13   3  -7    1.07    0.11
  13   3  -7    1.58    0.21
 -13  -3   7    0.82    0.10
  11   3  -7    0.08    0.09
  11   3  -7    0.05    0.10
 -11  -3   7    0.02    0.05
   9   3  -7    0.10    0.09
   9   3  -7    0.14    0.09
  -9  -3   7    0.15    0.06
   7   3  -7    0.01    0.07
   7   3  -7    0.01    0.07
  -7  -3   7   -0.01    0.04
   5   3  -7    0.50    0.09
   5   3  -7    0.57    0.12
  -5  -3   7    0.46    0.07
   3   3  -7    0.11    0.07
  -3  -3   7    0.05    0.04
  -1  -3   7   25.69    0.62
  -1   3  -7   26.49    0.65
   1  -3   7   25.62    0.65
  -3   3  -7   -0.01    0.05
   3  -3   7    0.02    0.05
   3  -3   7    0.00    0.04
   5  -3   7    0.59    0.10
   5  -3   7    0.59    0.12
   7  -3   7   -0.09    0.05
   7  -3   7    0.06    0.07
   9  -3   7    0.31    0.10
   9  -3   7    0.11    0.08
  11  -3   7   -0.01    0.09
  11  -3   7    0.07    0.10
  13  -3   7    0.78    0.17
  13  -3   7    1.15    0.20
  15  -3   7    0.35    0.15
  15  -3   7    0.10    0.13
  17  -3   7    1.48    0.27
  17  -3   7    1.32    0.24
  19  -3   7    0.58    0.22
  19  -3   7    0.33    0.18
  21  -3   7   -0.03    0.16
  21  -3   7   -0.05    0.14
  23  -3   7    0.03    0.18
  23  -3   7   -0.04    0.17
 -25   3  -7    0.15    0.16
  25  -3   7   -0.12    0.17
  27  -3   7    0.05    0.20
  29  -3   7    0.09    0.25
  31  -3   7   -0.08    0.23
  33  -3   7    0.09    0.32
  35   1  -7   -0.16    0.37
  33   1  -7    0.13    0.39
  31   1  -7    0.04    0.34
  29   1  -7   -0.10    0.25
  27   1  -7    0.17    0.26
  25   1  -7    0.02    0.26
  23   1  -7    0.15    0.22
  23   1  -7    0.66    0.23
  21   1  -7   -0.01    0.19
  21   1  -7    0.38    0.18
  19   1  -7    0.60    0.20
  19   1  -7    0.85    0.24
  17   1  -7    0.02    0.17
  17   1  -7    0.03    0.13
  15   1  -7    0.25    0.14
  15   1  -7    0.12    0.14
  13   1  -7    1.08    0.19
  13   1  -7    0.74    0.19
 -13  -1   7    1.17    0.09
  11   1  -7    3.31    0.29
  11   1  -7    4.17    0.30
 -11  -1   7    4.18    0.15
   9   1  -7   10.07    0.43
  -9  -1   7   10.73    0.25
   7   1  -7    0.02    0.07
  -7  -1   7    0.01    0.03
   5   1  -7    6.01    0.27
  -5  -1   7    5.64    0.19
   3   1  -7   25.69    0.61
  -3  -1   7   26.76    0.57
  -1  -1   7    0.01    0.04
   1  -1   7   -0.06    0.04
   3  -1   7   24.51    0.65
   5  -1   7    5.57    0.29
   5  -1   7    5.58    0.27
   7  -1   7   -0.01    0.06
   7  -1   7    0.02    0.06
   9  -1   7   10.90    0.46
   9  -1   7   10.43    0.44
  11  -1   7    3.74    0.29
  11  -1   7    4.30    0.31
  13  -1   7    1.10    0.19
  13  -1   7    1.36    0.21
  15  -1   7    0.39    0.14
  15  -1   7    0.12    0.14
  17  -1   7    0.30    0.15
  17  -1   7    0.22    0.13
  19  -1   7    0.64    0.22
  19  -1   7    1.00    0.23
 -21   1  -7    0.34    0.16
  21  -1   7    0.15    0.18
  21  -1   7    0.06    0.16
 -23   1  -7    0.55    0.20
  23  -1   7    0.34    0.23
 -25   1  -7    0.37    0.19
  25  -1   7   -0.05    0.18
  27  -1   7    0.28    0.23
  29  -1   7    0.39    0.30
  31  -1   7    0.05    0.22
  33  -1   7    0.09    0.30
  35  -1  -7   -0.06    0.35
  33  -1  -7    0.11    0.33
  31  -1  -7   -0.01    0.31
  29  -1  -7   -0.23    0.27
  27  -1  -7    0.21    0.28
  25  -1  -7    0.15    0.24
  23  -1  -7   -0.02    0.21
  21  -1  -7   -0.20    0.17
  21  -1  -7    0.18    0.16
  19  -1  -7    0.84    0.22
  19  -1  -7    0.94    0.25
  17  -1  -7    0.03    0.16
  17  -1  -7    0.13    0.12
  15  -1  -7    0.18    0.15
  15  -1  -7    0.15    0.11
  13  -1  -7    1.28    0.22
  11  -1  -7    4.37    0.32
   9  -1  -7   10.67    0.45
   7  -1  -7    0.02    0.06
   5  -1  -7    5.19    0.26
  -5   1   7    5.53    0.16
   3  -1  -7   25.86    0.65
  -3   1   7   25.80    0.55
  -1   1   7    0.02    0.04
   1   1   7    0.54    0.09
   3   1   7   25.11    0.66
   5   1   7    5.64    0.29
   7   1   7   -0.03    0.05
   7   1   7    0.18    0.09
   9   1   7   11.91    0.49
   9   1   7   10.88    0.47
  11   1   7    4.06    0.30
  11   1   7    3.69    0.30
  13   1   7    1.09    0.19
  13   1   7    1.20    0.19
  15   1   7    0.38    0.14
  15   1   7    0.52    0.16
 -17  -1  -7    0.12    0.13
  17   1   7    0.20    0.15
 -19  -1  -7    0.84    0.21
  19   1   7    0.81    0.24
 -21  -1  -7    0.15    0.16
  21   1   7    0.10    0.16
 -23  -1  -7    0.47    0.20
  23   1   7    0.39    0.25
 -25  -1  -7   -0.17    0.15
  25   1   7    0.11    0.20
  27   1   7    0.28    0.22
  29   1   7   -0.11    0.22
  31   1   7   -0.18    0.26
  33   1   7    0.01    0.32
  33  -3  -7   -0.26    0.34
  31  -3  -7   -0.01    0.35
  29  -3  -7    0.22    0.31
  27  -3  -7    0.18    0.27
  25  -3  -7   -0.20    0.24
  23  -3  -7    0.17    0.23
  21  -3  -7   -0.07    0.21
  21  -3  -7    0.19    0.15
  19  -3  -7    0.49    0.24
  17  -3  -7    1.31    0.27
  15  -3  -7    0.42    0.19
  13  -3  -7    0.92    0.20
  11  -3  -7    0.30    0.13
   9  -3  -7    0.02    0.09
   7  -3  -7    0.03    0.07
   5  -3  -7    0.54    0.12
   5  -3  -7    0.53    0.06
   3  -3  -7    0.13    0.07
   3  -3  -7   -0.02    0.04
   1  -3  -7   26.23    0.61
  -1  -3  -7   25.43    0.63
  -3  -3  -7   -0.03    0.05
  -5  -3  -7    0.81    0.12
  -7  -3  -7   -0.10    0.05
  -9  -3  -7    0.01    0.08
   9   3   7    0.10    0.09
 -11  -3  -7   -0.01    0.08
  11   3   7    0.01    0.08
 -13  -3  -7    0.63    0.16
  13   3   7    0.69    0.17
 -15  -3  -7    0.24    0.14
  15   3   7    0.42    0.17
 -17  -3  -7    1.46    0.24
  17   3   7    1.41    0.26
 -19  -3  -7    0.66    0.21
  19   3   7    0.02    0.18
 -21  -3  -7   -0.06    0.14
  21   3   7   -0.01    0.18
 -23  -3  -7    0.11    0.16
  23   3   7   -0.07    0.20
 -25  -3  -7    0.08    0.18
  25   3   7   -0.02    0.24
  27   3   7    0.15    0.28
  29   3   7    0.10    0.28
  31   3   7    0.34    0.32
  33   3   7    0.11    0.36
  33  -5  -7    0.03    0.38
  31  -5  -7    0.11    0.32
  29  -5  -7   -0.25    0.27
  27  -5  -7    0.22    0.28
  25  -5  -7   -0.03    0.24
  23  -5  -7    0.80    0.32
  21  -5  -7   -0.14    0.17
  19  -5  -7   -0.10    0.18
  17  -5  -7   -0.11    0.14
  15  -5  -7    2.24    0.30
  13  -5  -7    0.58    0.19
  11  -5  -7    1.36    0.22
   9  -5  -7    1.77    0.09
   9  -5  -7    1.73    0.21
   7  -5  -7    0.05    0.08
   7  -5  -7   -0.01    0.04
   5  -5  -7    0.09    0.07
   5  -5  -7    0.00    0.05
  -5   5   7   -0.04    0.04
   3  -5  -7    0.52    0.08
   3  -5  -7    0.53    0.12
  -3   5   7    0.55    0.08
   1  -5  -7    5.48    0.30
   1  -5  -7    5.71    0.25
  -1   5   7    5.65    0.24
  -1  -5  -7    5.45    0.27
   1   5   7    5.17    0.25
  -3  -5  -7    0.51    0.11
  -5  -5  -7   -0.04    0.06
  -7  -5  -7   -0.06    0.06
  -9  -5  -7    1.30    0.18
 -11  -5  -7    1.23    0.19
  11   5   7    1.23    0.20
 -13  -5  -7    0.45    0.15
  13   5   7    0.23    0.13
 -15  -5  -7    2.63    0.29
  15   5   7    1.86    0.27
 -17  -5  -7   -0.01    0.12
  17   5   7   -0.11    0.11
 -19  -5  -7    0.12    0.15
  19   5   7    0.08    0.15
 -21  -5  -7    0.50    0.20
  21   5   7   -0.11    0.17
 -23  -5  -7    0.45    0.21
  23   5   7    1.00    0.30
 -25  -5  -7    0.13    0.17
  25   5   7    0.07    0.21
  27   5   7   -0.06    0.24
  29   5   7   -0.15    0.26
  31   5   7   -0.33    0.27
  33   5   7   -0.04    0.33
  33  -7  -7   -0.55    0.33
  31  -7  -7   -0.03    0.33
  29  -7  -7   -0.30    0.27
  27  -7  -7   -0.07    0.27
  25  -7  -7   -0.14    0.25
  23  -7  -7   -0.03    0.23
  21  -7  -7   -0.30    0.19
  19  -7  -7   -0.01    0.20
  17  -7  -7   -0.22    0.14
  15  -7  -7   -0.07    0.13
  13  -7  -7    0.05    0.14
  11  -7  -7    0.09    0.11
  11  -7  -7   -0.03    0.04
   9  -7  -7   -0.01    0.05
   9  -7  -7   -0.05    0.08
   7  -7  -7    0.00    0.06
   7  -7  -7   -0.07    0.07
   5  -7  -7    0.02    0.07
   5  -7  -7    0.09    0.06
   3  -7  -7    0.02    0.06
   3  -7  -7   -0.04    0.06
   1  -7  -7   -0.04    0.07
   1  -7  -7   -0.02    0.06
  -1  -7  -7    0.00    0.07
   1   7   7    0.08    0.07
  -3  -7  -7    0.09    0.08
   3   7   7   -0.01    0.05
  -5  -7  -7    0.08    0.08
   5   7   7   -0.02    0.07
  -7  -7  -7    0.12    0.09
  -9  -7  -7    0.03    0.08
 -11  -7  -7   -0.09    0.09
 -13  -7  -7    0.12    0.12
  13   7   7   -0.03    0.11
 -15  -7  -7    0.00    0.12
  15   7   7    0.03    0.12
 -17  -7  -7    0.08    0.12
  17   7   7   -0.02    0.13
 -19  -7  -7    0.00    0.15
  19   7   7   -0.07    0.14
 -21  -7  -7   -0.05    0.13
  21   7   7   -0.20    0.16
 -23  -7  -7    0.02    0.15
  23   7   7    0.11    0.22
 -25  -7  -7    0.06    0.19
  25   7   7    0.06    0.24
  27   7   7   -0.15    0.22
  29   7   7   -0.14    0.27
  31   7   7   -0.06    0.31
  33   7   7   -0.27    0.30
  33  -9  -7   -0.52    0.34
  31  -9  -7   -0.10    0.37
  29  -9  -7   -0.32    0.26
  27  -9  -7    0.06    0.26
  25  -9  -7   -0.01    0.26
  23  -9  -7    0.53    0.29
  21  -9  -7   -0.10    0.18
  19  -9  -7    0.34    0.22
  17  -9  -7   -0.14    0.15
  15  -9  -7    0.55    0.22
  13  -9  -7    0.16    0.14
  11  -9  -7    1.70    0.25
  11  -9  -7    1.41    0.13
   9  -9  -7   -0.10    0.06
   9  -9  -7    0.00    0.09
   7  -9  -7    0.08    0.07
   7  -9  -7    0.04    0.09
   5  -9  -7    2.06    0.23
   5  -9  -7    1.53    0.16
   3  -9  -7    0.02    0.07
   3  -9  -7    0.12    0.09
   1  -9  -7   10.30    0.42
   1  -9  -7   11.44    0.48
  -1  -9  -7   10.63    0.44
  -3  -9  -7    0.12    0.10
   3   9   7   -0.04    0.08
  -5  -9  -7    1.69    0.21
   5   9   7    1.69    0.20
  -7  -9  -7   -0.04    0.10
   7   9   7   -0.05    0.08
  -9  -9  -7   -0.03    0.09
   9   9   7   -0.01    0.09
 -11  -9  -7    1.38    0.23
 -13  -9  -7    0.40    0.17
 -15  -9  -7    0.92    0.22
 -17  -9  -7    0.07    0.14
  17   9   7    0.21    0.16
 -19  -9  -7    0.71    0.24
  19   9   7    0.72    0.24
 -21  -9  -7    0.10    0.17
  21   9   7    0.16    0.22
 -23  -9  -7    0.09    0.20
  23   9   7    0.17    0.21
 -25  -9  -7   -0.11    0.15
  25   9   7   -0.03    0.21
 -27  -9  -7   -0.25    0.17
  27   9   7    0.07    0.25
  29   9   7    0.07    0.27
  31   9   7    0.18    0.33
  33   9   7    0.32    0.40
  31 -11  -7   -0.23    0.31
  29 -11  -7    0.08    0.27
  27 -11  -7   -0.16    0.25
  25 -11  -7    0.29    0.30
  23 -11  -7   -0.12    0.21
  21 -11  -7    1.12    0.35
  19 -11  -7    0.22    0.21
  17 -11  -7    0.08    0.18
  15 -11  -7   -0.01    0.15
  13 -11  -7    0.32    0.20
  11 -11  -7   -0.01    0.12
  11 -11  -7    0.00    0.07
   9 -11  -7    0.76    0.13
   9 -11  -7    1.07    0.21
   7 -11  -7   -0.03    0.09
   7 -11  -7   -0.05    0.07
   5 -11  -7    1.18    0.19
   5 -11  -7    1.22    0.16
   3 -11  -7    0.02    0.08
   3 -11  -7    0.03    0.08
   1 -11  -7    4.28    0.29
   1 -11  -7    3.89    0.31
  -1 -11  -7    3.94    0.28
  -3 -11  -7    0.05    0.09
  -5 -11  -7    1.18    0.20
  -7 -11  -7   -0.05    0.09
   7  11   7   -0.03    0.09
  -9 -11  -7    1.08    0.21
   9  11   7    0.89    0.20
 -11 -11  -7    0.11    0.13
  11  11   7   -0.03    0.11
 -13 -11  -7    0.63    0.20
 -15 -11  -7   -0.16    0.12
 -17 -11  -7    0.04    0.15
 -19 -11  -7    0.07    0.19
 -21 -11  -7    1.87    0.34
  21  11   7    1.17    0.31
 -23 -11  -7   -0.07    0.18
  23  11   7   -0.09    0.21
 -25 -11  -7   -0.03    0.20
  25  11   7   -0.06    0.25
 -27 -11  -7   -0.17    0.19
  27  11   7   -0.08    0.24
  29  11   7    0.14    0.26
  31  11   7    0.18    0.34
  33  11   7    0.27    0.37
  31 -13  -7    0.56    0.42
  29 -13  -7    0.17    0.33
  27 -13  -7    0.22    0.29
  25 -13  -7   -0.06    0.20
  23 -13  -7   -0.02    0.22
  21 -13  -7    0.95    0.31
  19 -13  -7    0.50    0.24
  17 -13  -7    1.43    0.33
  15 -13  -7    0.08    0.17
  13 -13  -7   -0.03    0.15
  11 -13  -7    0.12    0.16
  11 -13  -7    0.41    0.13
   9 -13  -7    0.22    0.12
   9 -13  -7    0.30    0.17
   7 -13  -7   -0.10    0.08
   7 -13  -7    0.04    0.10
   5 -13  -7    0.09    0.11
   5 -13  -7    0.34    0.14
   3 -13  -7    0.86    0.17
   3 -13  -7    0.91    0.19
   1 -13  -7    1.22    0.19
   1 -13  -7    1.10    0.19
  -1 -13  -7    1.31    0.21
  -3 -13  -7    0.97    0.20
  -5 -13  -7    0.24    0.14
  -7 -13  -7   -0.19    0.09
  -9 -13  -7    0.17    0.14
   9  13   7    0.23    0.14
 -11 -13  -7    0.12    0.15
  11  13   7    0.22    0.16
 -13 -13  -7   -0.11    0.12
  13  13   7   -0.11    0.11
 -15 -13  -7   -0.01    0.14
 -17 -13  -7    1.69    0.30
 -19 -13  -7    0.21    0.19
 -21 -13  -7    0.65    0.26
 -23 -13  -7    0.04    0.19
 -25 -13  -7   -0.24    0.18
 -27 -13  -7    0.09    0.26
  31 -15  -7    0.08    0.37
  29 -15  -7    0.04    0.34
  27 -15  -7   -0.15    0.24
  25 -15  -7   -0.52    0.23
  23 -15  -7   -0.13    0.21
  21 -15  -7   -0.05    0.23
  19 -15  -7   -0.06    0.17
  17 -15  -7   -0.23    0.19
  15 -15  -7   -0.05    0.18
  13 -15  -7    0.02    0.17
  11 -15  -7    0.03    0.17
  11 -15  -7    0.01    0.12
   9 -15  -7    0.44    0.15
   9 -15  -7    0.46    0.19
   7 -15  -7    0.05    0.12
   7 -15  -7    0.10    0.12
   5 -15  -7    2.01    0.26
   5 -15  -7    1.96    0.24
   3 -15  -7    0.22    0.13
   3 -15  -7    0.40    0.15
   1 -15  -7    0.15    0.13
   1 -15  -7    0.38    0.14
  -1 -15  -7    0.15    0.13
  -1 -15  -7    0.04    0.12
  -3 -15  -7    0.41    0.17
  -5 -15  -7    2.27    0.31
  -7 -15  -7   -0.07    0.12
  -9 -15  -7    0.41    0.18
   9  15   7    0.32    0.16
 -11 -15  -7   -0.09    0.13
  11  15   7   -0.05    0.12
 -13 -15  -7   -0.05    0.13
  13  15   7    0.09    0.16
 -15 -15  -7    0.27    0.20
  15  15   7   -0.08    0.13
 -17 -15  -7   -0.18    0.16
 -19 -15  -7   -0.07    0.19
 -21 -15  -7    0.10    0.21
 -23 -15  -7   -0.18    0.19
 -25 -15  -7   -0.15    0.22
 -27 -15  -7   -0.22    0.23
  29 -17  -7    0.28    0.31
  27 -17  -7    0.15    0.32
  25 -17  -7    0.25    0.30
  23 -17  -7   -0.22    0.25
  21 -17  -7   -0.06    0.21
  19 -17  -7    0.65    0.29
  17 -17  -7    0.45    0.24
  15 -17  -7    0.04    0.20
  13 -17  -7    1.20    0.28
  11 -17  -7    0.20    0.14
  11 -17  -7    0.00    0.13
   9 -17  -7   -0.10    0.13
   9 -17  -7    0.12    0.13
   7 -17  -7    0.00    0.13
   7 -17  -7   -0.03    0.11
   5 -17  -7   -0.07    0.12
   5 -17  -7    0.02    0.11
   3 -17  -7    1.54    0.24
   3 -17  -7    1.63    0.25
   1 -17  -7    0.14    0.15
   1 -17  -7    0.24    0.15
  -1 -17  -7    0.13    0.13
  -1 -17  -7    0.16    0.16
  -3 -17  -7    1.57    0.27
  -5 -17  -7   -0.09    0.16
  -7 -17  -7   -0.15    0.17
  -9 -17  -7    0.11    0.17
 -11 -17  -7   -0.11    0.14
  11  17   7    0.02    0.16
 -13 -17  -7    1.36    0.29
  13  17   7    1.68    0.31
 -15 -17  -7   -0.14    0.16
  15  17   7   -0.18    0.19
 -17 -17  -7   -0.04    0.16
  17  17   7    0.19    0.18
 -19 -17  -7    0.51    0.27
 -21 -17  -7   -0.21    0.18
 -23 -17  -7   -0.02    0.24
 -25 -17  -7    0.06    0.25
 -27 -17  -7    0.09    0.28
  29 -19  -7   -0.28    0.33
  27 -19  -7    0.22    0.36
  25 -19  -7   -0.42    0.24
  23 -19  -7   -0.13    0.25
  21 -19  -7    0.16    0.26
  19 -19  -7   -0.21    0.21
  17 -19  -7    0.80    0.31
  15 -19  -7    0.01    0.20
  13 -19  -7    0.51    0.24
  11 -19  -7   -0.12    0.18
   9 -19  -7    0.60    0.20
   9 -19  -7    0.35    0.23
   7 -19  -7    0.03    0.15
   7 -19  -7   -0.12    0.13
   5 -19  -7   -0.10    0.13
   5 -19  -7    0.15    0.17
   3 -19  -7    0.77    0.22
   3 -19  -7    0.07    0.17
   1 -19  -7    1.01    0.23
   1 -19  -7    1.14    0.26
  -1 -19  -7    1.04    0.26
  -1 -19  -7    1.31    0.25
  -3 -19  -7    0.13    0.19
  -3 -19  -7    0.01    0.15
  -5 -19  -7    0.13    0.18
  -7 -19  -7    0.21    0.20
  -9 -19  -7    0.86    0.27
 -11 -19  -7   -0.09    0.18
  11  19   7    0.04    0.16
 -13 -19  -7    0.44    0.23
  13  19   7    0.16    0.18
 -15 -19  -7   -0.35    0.13
  15  19   7    0.13    0.18
 -17 -19  -7    0.39    0.26
  17  19   7    1.02    0.30
 -19 -19  -7   -0.11    0.21
  19  19   7    0.18    0.20
 -21 -19  -7    0.23    0.26
 -23 -19  -7   -0.18    0.22
 -25 -19  -7    0.10    0.25
  27 -21  -7    0.28    0.37
  25 -21  -7    0.37    0.37
  23 -21  -7    0.07    0.29
  21 -21  -7   -0.22    0.24
  19 -21  -7    0.70    0.33
  17 -21  -7   -0.01    0.22
  15 -21  -7    0.03    0.20
  13 -21  -7    0.63    0.27
  11 -21  -7    0.92    0.28
   9 -21  -7   -0.17    0.16
   9 -21  -7    0.01    0.15
   7 -21  -7   -0.21    0.15
   7 -21  -7    0.07    0.16
   5 -21  -7    0.20    0.18
   5 -21  -7   -0.06    0.18
   3 -21  -7   -0.06    0.13
   3 -21  -7    0.27    0.20
   1 -21  -7    0.19    0.16
   1 -21  -7   -0.09    0.18
  -1 -21  -7    0.11    0.19
  -1 -21  -7    0.15    0.14
  -3 -21  -7    0.01    0.15
  -3 -21  -7   -0.09    0.19
  -5 -21  -7    0.11    0.21
  -7 -21  -7   -0.01    0.20
  -9 -21  -7   -0.19    0.17
 -11 -21  -7    1.01    0.31
 -13 -21  -7    0.82    0.29
  13  21   7    0.84    0.29
 -15 -21  -7    0.14    0.22
  15  21   7    0.34    0.26
 -17 -21  -7    0.04    0.22
  17  21   7    0.04    0.20
 -19 -21  -7    0.04    0.25
  19  21   7   -0.15    0.19
 -21 -21  -7    0.33    0.28
 -23 -21  -7   -0.11    0.25
  25 -23  -7   -0.41    0.31
  23 -23  -7    0.26    0.31
  21 -23  -7    0.14    0.30
  19 -23  -7    0.01    0.26
  17 -23  -7    0.03    0.23
  15 -23  -7   -0.14    0.17
  13 -23  -7    0.29    0.24
  11 -23  -7   -0.10    0.17
   9 -23  -7   -0.22    0.18
   9 -23  -7    0.02    0.19
   7 -23  -7   -0.16    0.16
   7 -23  -7   -0.10    0.17
   5 -23  -7    0.76    0.25
   5 -23  -7    0.55    0.25
   3 -23  -7    0.07    0.16
   3 -23  -7    0.19    0.20
   1 -23  -7    0.29    0.20
   1 -23  -7    0.24    0.21
  -1 -23  -7    0.38    0.23
  -1 -23  -7    0.24    0.18
  -3 -23  -7    0.08    0.16
  -3 -23  -7   -0.02    0.19
  -5 -23  -7    0.82    0.29
  -5 -23  -7    0.71    0.25
  -7 -23  -7   -0.12    0.18
  -9 -23  -7    0.14    0.24
 -11 -23  -7    0.16    0.22
 -13 -23  -7    0.22    0.20
  13  23   7    0.01    0.19
 -15 -23  -7    0.39    0.26
  15  23   7    0.59    0.27
 -17 -23  -7    0.05    0.24
  17  23   7   -0.22    0.22
 -19 -23  -7   -0.05    0.21
  19  23   7   -0.27    0.22
 -21 -23  -7   -0.16    0.27
  25 -25  -7    1.04    0.49
  23 -25  -7    0.04    0.34
  21 -25  -7    0.20    0.32
  19 -25  -7   -0.05    0.25
  17 -25  -7    0.25    0.26
  15 -25  -7    0.16    0.25
  13 -25  -7   -0.23    0.20
  11 -25  -7   -0.02    0.21
   9 -25  -7   -0.02    0.18
   7 -25  -7    0.08    0.17
   7 -25  -7   -0.12    0.19
   5 -25  -7    0.03    0.21
   5 -25  -7   -0.22    0.16
   3 -25  -7   -0.04    0.21
   3 -25  -7    0.04    0.17
   1 -25  -7   -0.14    0.21
   1 -25  -7    0.02    0.19
  -1 -25  -7    0.06    0.19
  -1 -25  -7    0.09    0.21
  -3 -25  -7   -0.31    0.14
  -3 -25  -7   -0.13    0.21
  -5 -25  -7    0.17    0.18
  -5 -25  -7   -0.17    0.21
  -7 -25  -7    0.05    0.28
  -7 -25  -7   -0.11    0.17
  -9 -25  -7   -0.27    0.20
 -11 -25  -7    0.04    0.26
 -13 -25  -7    0.20    0.25
  13  25   7   -0.25    0.19
 -15 -25  -7    0.02    0.27
  15  25   7   -0.23    0.25
 -17 -25  -7   -0.09    0.24
  17  25   7    0.21    0.28
 -19 -25  -7    0.16    0.30
  19  25   7   -0.22    0.24
  23 -27  -7    0.36    0.36
  21 -27  -7   -0.05    0.33
  19 -27  -7    0.09    0.30
  17 -27  -7   -0.14    0.27
  15 -27  -7   -0.01    0.24
  13 -27  -7    0.22    0.28
  11 -27  -7   -0.02    0.21
   9 -27  -7   -0.09    0.22
   7 -27  -7    0.09    0.22
   7 -27  -7    0.00    0.19
   5 -27  -7    0.38    0.23
   5 -27  -7    0.36    0.26
   3 -27  -7    0.21    0.23
   1 -27  -7    0.39    0.28
  -1 -27  -7    0.14    0.24
  -3 -27  -7    0.16    0.24
  -5 -27  -7    0.26    0.27
  -7 -27  -7   -0.22    0.21
  -9 -27  -7   -0.08    0.25
 -11 -27  -7   -0.03    0.27
 -13 -27  -7    0.26    0.28
  13  27   7   -0.07    0.29
 -15 -27  -7   -0.36    0.23
  15  27   7   -0.03    0.26
  17  27   7   -0.13    0.28
   7 -29  -7    0.22    0.27
   5 -29  -7    0.28    0.29
   3 -29  -7   -0.01    0.25
   1 -29  -7   -0.13    0.21
  -1 -29  -7   -0.19    0.24
  -3 -29  -7    0.21    0.30
  -5 -29  -7    0.05    0.25
  -7 -29  -7   -0.12    0.25
  -9 -29  -7   -0.21    0.27
 -11 -29  -7   -0.11    0.33
  13  29   7    0.19    0.31
   5 -31  -7   -0.12    0.27
   3 -31  -7    0.05    0.25
   1 -31  -7    0.43    0.30
  -1 -31  -7    0.19    0.32
  -3 -31  -7    0.11    0.32
  -5 -31  -7    0.09    0.33
  -8 -30   8    0.15    0.24
  -6 -30   8    0.32    0.27
  -4 -30   8    0.14    0.24
  -2 -30   8    0.24    0.26
   0 -30   8   -0.27    0.21
   2 -30   8    0.03    0.25
   4 -30   8    0.28    0.28
   6 -30   8   -0.08    0.23
   8 -30   8   -0.23    0.23
  10 -30   8    0.22    0.31
 -16 -28   8   14.19    0.97
 -14 -28   8   -0.10    0.27
 -12 -28   8   22.18    1.15
 -10 -28   8    0.23    0.26
  -8 -28   8   19.12    1.07
  -6 -28   8    0.08    0.23
  -4 -28   8   21.45    1.10
  -2 -28   8    0.33    0.25
   0 -28   8   17.62    0.99
   2 -28   8    0.64    0.30
   4 -28   8   24.64    1.19
   6 -28   8   -0.06    0.23
   8 -28   8   19.05    1.05
  10 -28   8    0.14    0.26
  12 -28   8   20.50    1.12
  14 -28   8   -0.15    0.27
  16 -28   8   13.63    0.97
 -18 -26   8    0.74    0.32
 -16 -26   8    0.15    0.26
 -14 -26   8    0.08    0.24
 -12 -26   8    0.20    0.23
 -10 -26   8    0.70    0.29
  -8 -26   8    0.08    0.20
  -6 -26   8    0.18    0.21
  -4 -26   8    0.24    0.20
  -2 -26   8    0.35    0.22
   0 -26   8   -0.01    0.16
   2 -26   8    0.10    0.23
   4 -26   8   -0.02    0.22
   6 -26   8   -0.11    0.20
   8 -26   8   -0.06    0.21
  10 -26   8    1.04    0.36
  12 -26   8   -0.04    0.21
  14 -26   8    0.23    0.28
  16 -26   8    0.55    0.33
  18 -26   8    0.65    0.36
  24  24  -8   14.61    1.06
  22  24  -8    0.29    0.31
  20  24  -8   19.48    1.18
  18  24  -8    0.11    0.31
 -18 -24   8    0.36    0.28
  16  24  -8   28.52    1.36
 -16 -24   8   29.70    1.26
  14  24  -8    1.30    0.39
 -14 -24   8    0.56    0.25
  12  24  -8   23.19    1.18
 -12 -24   8   24.90    1.13
 -10 -24   8    0.72    0.29
  -8 -24   8   59.72    1.83
  -6 -24   8    0.88    0.30
  -4 -24   8   52.36    1.70
  -2 -24   8    1.03    0.30
   0 -24   8   71.46    2.03
   2 -24   8    1.16    0.32
   4 -24   8   47.48    1.59
   6 -24   8    0.88    0.30
   8 -24   8   63.69    1.92
  10 -24   8    0.22    0.24
  12 -24   8   25.75    1.15
  14 -24   8    0.60    0.30
  16 -24   8   31.82    1.37
  18 -24   8    0.25    0.28
  24  22  -8   -0.36    0.29
  22  22  -8    1.68    0.45
  20  22  -8    0.15    0.26
  18  22  -8    0.87    0.36
 -18 -22   8    0.22    0.23
  16  22  -8    0.01    0.23
 -16 -22   8    0.33    0.22
  14  22  -8    0.91    0.32
 -14 -22   8    1.30    0.30
  12  22  -8    0.12    0.23
 -12 -22   8    0.06    0.17
  10  22  -8    0.06    0.22
 -10 -22   8    0.32    0.19
   8  22  -8    0.50    0.26
  -8 -22   8    0.17    0.17
   6  22  -8    1.86    0.39
  -6 -22   8    1.75    0.33
  -4 -22   8    0.07    0.18
  -2 -22   8    0.83    0.24
   0 -22   8   -0.19    0.13
   2 -22   8    0.93    0.27
   4 -22   8    0.20    0.20
   6 -22   8    1.38    0.33
   8 -22   8   -0.02    0.17
  10 -22   8    0.10    0.20
  12 -22   8    0.05    0.20
  14 -22   8    1.61    0.36
  16 -22   8   -0.24    0.20
  18 -22   8    0.71    0.29
  20 -22   8    0.17    0.26
  24  20  -8   19.86    1.15
  22  20  -8   -0.35    0.25
  20  20  -8   32.79    1.41
  18  20  -8   -0.14    0.23
 -18 -20   8    0.06    0.20
  16  20  -8   36.97    1.47
 -16 -20   8   40.52    1.39
  14  20  -8    0.15    0.23
 -14 -20   8    0.17    0.18
  12  20  -8   49.76    1.67
 -12 -20   8   52.09    1.57
  10  20  -8    0.03    0.21
 -10 -20   8    0.25    0.18
   8  20  -8   82.51    2.23
  -8 -20   8   80.82    2.11
   6  20  -8    0.44    0.24
  -6 -20   8    0.24    0.18
   4  20  -8   83.80    2.23
  -4 -20   8   81.25    2.11
  -2 -20   8    0.94    0.25
   0 -20   8   48.98    1.48
   2 -20   8    0.60    0.22
   4 -20   8   79.06    2.06
   6 -20   8    0.32    0.20
   8 -20   8   79.20    2.06
  10 -20   8    0.17    0.19
  12 -20   8   52.13    1.62
  14 -20   8    0.20    0.23
  16 -20   8   40.27    1.42
  18 -20   8    0.39    0.26
  20 -20   8   36.84    1.41
  24  18  -8    0.28    0.30
  22  18  -8    0.61    0.30
  20  18  -8    0.06    0.20
  18  18  -8    0.53    0.29
  16  18  -8    0.11    0.20
 -16 -18   8    0.17    0.18
  14  18  -8    1.21    0.33
 -14 -18   8    1.06    0.26
  12  18  -8    0.16    0.19
 -12 -18   8   -0.03    0.13
  10  18  -8    3.60    0.42
 -10 -18   8    3.30    0.37
   8  18  -8   -0.22    0.12
  -8 -18   8    0.02    0.15
   6  18  -8    0.48    0.24
  -6 -18   8    0.27    0.18
   4  18  -8    0.25    0.19
  -4 -18   8    0.13    0.15
   2  18  -8    0.03    0.16
  -2 -18   8    0.02    0.12
   0 -18   8    0.02    0.11
   2 -18   8   -0.07    0.11
   4 -18   8    0.19    0.15
   6 -18   8    0.50    0.21
   8 -18   8    0.13    0.17
  10 -18   8    3.30    0.38
  12 -18   8   -0.12    0.16
  14 -18   8    1.39    0.30
  16 -18   8    0.30    0.21
  18 -18   8    0.74    0.28
  20 -18   8    0.28    0.24
  22 -18   8    0.53    0.29
  24  16  -8   31.37    1.36
  22  16  -8    0.17    0.26
  20  16  -8   37.42    1.41
  18  16  -8    0.10    0.22
  16  16  -8   84.25    2.25
 -16 -16   8   82.86    2.06
  14  16  -8    0.04    0.18
 -14 -16   8    0.33    0.19
  12  16  -8   60.29    1.75
 -12 -16   8   59.24    1.61
  10  16  -8    0.01    0.15
 -10 -16   8    0.15    0.14
   8  16  -8  122.54    2.79
  -8 -16   8  122.76    2.64
   6  16  -8    0.38    0.21
  -6 -16   8    0.27    0.16
   4  16  -8  108.10    2.48
  -4 -16   8  105.12    2.38
   2  16  -8    1.15    0.24
  -2 -16   8    1.97    0.28
   0  16  -8  166.85    3.42
   0 -16   8  163.68    3.31
   2 -16   8    1.22    0.24
   4 -16   8  112.23    2.48
   6 -16   8    0.16    0.15
   8 -16   8  124.06    2.69
  10 -16   8    0.24    0.16
  12 -16   8   60.38    1.67
  14 -16   8    0.48    0.19
  14 -16   8    0.60    0.22
  16 -16   8   90.79    2.24
  16 -16   8   89.62    2.25
  18 -16   8    0.15    0.19
  18 -16   8    0.00    0.17
  20 -16   8   39.96    1.41
  20 -16   8   39.53    1.38
  22 -16   8   -0.15    0.21
  22 -16   8    0.10    0.24
  24 -16   8   32.76    1.38
  26 -16   8    0.21    0.27
  28 -16   8   12.41    0.93
  30 -16   8   -0.20    0.32
  24  14  -8    0.26    0.28
  22  14  -8    1.34    0.34
  20  14  -8    0.03    0.21
  18  14  -8    1.26    0.32
  16  14  -8    0.48    0.24
 -16 -14   8    0.46    0.19
  14  14  -8    5.73    0.50
 -14 -14   8    5.46    0.42
  12  14  -8    0.20    0.19
 -12 -14   8    0.47    0.17
  10  14  -8    0.15    0.18
 -10 -14   8    0.23    0.14
   8  14  -8   -0.06    0.11
  -8 -14   8   -0.07    0.10
   6  14  -8    8.53    0.52
  -6 -14   8    8.06    0.46
   4  14  -8    0.08    0.14
  -4 -14   8    0.06    0.11
   2  14  -8   -0.04    0.13
  -2 -14   8    0.24    0.12
   0  14  -8   -0.06    0.11
   0 -14   8    0.01    0.08
  -2  14  -8    0.01    0.13
   2 -14   8    0.07    0.11
   4 -14   8    0.18    0.13
   6 -14   8    8.32    0.50
   8 -14   8    0.03    0.08
   8 -14   8   -0.05    0.11
  10 -14   8    0.32    0.14
  10 -14   8    0.06    0.14
  12 -14   8    0.50    0.21
  12 -14   8    0.10    0.14
  14 -14   8    6.69    0.48
  14 -14   8    6.12    0.45
  16 -14   8    0.78    0.23
  16 -14   8    0.59    0.23
  18 -14   8    1.09    0.27
  18 -14   8    1.20    0.27
  20 -14   8    0.23    0.22
  20 -14   8    0.20    0.23
  22 -14   8    1.89    0.37
  22 -14   8    1.59    0.34
  24 -14   8    0.67    0.28
  26 -14   8    0.07    0.26
  28 -14   8    0.13    0.30
  30 -14   8    0.21    0.31
  32 -14   8   -0.05    0.32
  24  12  -8   24.66    1.12
  22  12  -8    0.39    0.24
  20  12  -8   48.55    1.58
  18  12  -8   -0.08    0.16
  16  12  -8   56.77    1.67
 -16 -12   8   57.64    1.48
  14  12  -8    0.33    0.19
 -14 -12   8    0.39    0.15
  12  12  -8  113.87    2.59
 -12 -12   8  112.97    2.37
  10  12  -8   -0.01    0.12
 -10 -12   8    0.09    0.11
   8  12  -8  136.57    2.93
  -8 -12   8  140.02    2.74
   6  12  -8    0.16    0.12
  -6 -12   8    0.01    0.10
   4  12  -8  227.32    4.33
  -4 -12   8  223.64    4.13
   2  12  -8    0.50    0.16
  -2 -12   8    0.50    0.15
   0  12  -8  138.94    2.82
   0 -12   8  137.79    2.73
  -2  12  -8    0.30    0.13
   2 -12   8    0.66    0.17
  -4  12  -8  224.99    4.23
   4 -12   8  225.48    3.91
   4 -12   8  227.86    4.17
   6 -12   8    0.09    0.10
   6 -12   8    0.17    0.08
   8 -12   8  140.53    2.70
   8 -12   8  140.08    2.85
  10 -12   8    0.31    0.13
  10 -12   8    0.25    0.15
  12 -12   8  118.62    2.54
  12 -12   8  117.12    2.48
  14 -12   8    0.13    0.15
  14 -12   8    0.21    0.15
  16 -12   8   58.22    1.61
  16 -12   8   60.24    1.63
  18 -12   8   -0.14    0.14
  18 -12   8    0.10    0.17
  20 -12   8   50.13    1.53
  20 -12   8   49.27    1.57
  22 -12   8    0.05    0.20
  22 -12   8    0.20    0.21
  24 -12   8   25.00    1.18
  26 -12   8   -0.14    0.23
  28 -12   8   22.29    1.19
  30 -12   8   -0.06    0.28
  32 -12   8   10.14    0.91
  24  10  -8    0.50    0.27
  22  10  -8    0.09    0.21
  22  10  -8    0.28    0.21
  20  10  -8   -0.07    0.18
  20  10  -8    0.07    0.19
  18  10  -8    3.83    0.37
  18  10  -8    3.31    0.39
  16  10  -8    0.20    0.16
  16  10  -8    0.32    0.17
 -16 -10   8    0.05    0.11
  14  10  -8    0.23    0.17
  14  10  -8   -0.02    0.12
 -14 -10   8    0.23    0.13
  12  10  -8    0.05    0.10
  12  10  -8   -0.04    0.12
 -12 -10   8    0.11    0.10
  10  10  -8    2.29    0.19
  10  10  -8    2.31    0.28
 -10 -10   8    2.30    0.24
   8  10  -8    0.78    0.11
   8  10  -8    0.62    0.17
  -8 -10   8    0.75    0.15
   6  10  -8    0.23    0.13
  -6 -10   8    0.19    0.10
   4  10  -8   -0.07    0.08
  -4 -10   8    0.14    0.10
   2  10  -8   11.35    0.51
  -2 -10   8   11.10    0.47
   0  10  -8    0.06    0.10
   0 -10   8    0.00    0.08
  -2  10  -8   11.57    0.49
   2 -10   8   11.47    0.50
  -4  10  -8    0.09    0.10
   4 -10   8    0.30    0.11
   4 -10   8    0.15    0.06
   6 -10   8    0.12    0.10
   6 -10   8    0.09    0.08
   8 -10   8    0.73    0.14
   8 -10   8    0.94    0.19
  10 -10   8    2.47    0.27
  10 -10   8    2.31    0.24
  12 -10   8    0.12    0.12
  12 -10   8    0.11    0.12
  14 -10   8    0.28    0.16
  14 -10   8    0.34    0.16
  16 -10   8    0.05    0.16
  16 -10   8    0.18    0.17
  18 -10   8    3.37    0.39
  18 -10   8    3.92    0.40
  20 -10   8   -0.19    0.14
  20 -10   8    0.36    0.20
  22 -10   8    0.14    0.20
  22 -10   8   -0.01    0.18
  24 -10   8    0.66    0.28
  24 -10   8    0.79    0.28
  26 -10   8    0.87    0.34
  28 -10   8    0.20    0.28
  30 -10   8    0.35    0.31
  32 -10   8   -0.01    0.31
  30   8  -8   -0.12    0.27
  28   8  -8   21.38    1.11
  26   8  -8   -0.17    0.22
  24   8  -8   66.28    1.94
  24   8  -8   67.83    1.96
  22   8  -8    0.12    0.19
  22   8  -8    0.28    0.23
  20   8  -8   86.00    2.19
  20   8  -8   81.91    2.08
  18   8  -8    0.18    0.17
  18   8  -8    0.15    0.16
  16   8  -8  131.34    2.72
  16   8  -8  126.78    2.87
  14   8  -8    0.02    0.12
  14   8  -8    0.40    0.17
 -14  -8   8    0.19    0.10
  12   8  -8  144.38    2.73
  12   8  -8  137.67    2.96
 -12  -8   8  139.62    2.64
  10   8  -8    0.90    0.14
  10   8  -8    0.73    0.18
 -10  -8   8    0.68    0.13
   8   8  -8  200.94    3.58
   8   8  -8  202.33    3.94
  -8  -8   8  208.66    3.64
   6   8  -8    0.80    0.17
  -6  -8   8    0.63    0.13
   4   8  -8  222.59    4.16
  -4  -8   8  223.37    3.91
   2   8  -8   -0.01    0.09
  -2  -8   8    0.27    0.10
   0   8  -8  269.06    4.91
   0  -8   8  279.03    4.76
  -2   8  -8    0.10    0.09
   2  -8   8    0.09    0.08
  -4   8  -8  224.86    4.04
   4  -8   8  228.59    3.88
   4  -8   8  220.11    4.01
  -6   8  -8    0.91    0.14
   6  -8   8    0.78    0.17
   6  -8   8    0.64    0.11
   8  -8   8  208.42    3.71
   8  -8   8  198.28    3.73
  10  -8   8    0.81    0.16
  10  -8   8    0.90    0.18
  12  -8   8  141.24    2.86
  12  -8   8  142.51    2.86
  14  -8   8    0.06    0.11
  14  -8   8    0.05    0.12
  16  -8   8  130.83    2.76
  16  -8   8  126.31    2.80
  18  -8   8    0.24    0.19
  18  -8   8    0.24    0.18
  20  -8   8   84.15    2.18
  20  -8   8   80.56    2.05
  22  -8   8    0.26    0.23
  22  -8   8    0.30    0.20
  24  -8   8   62.71    1.95
  24  -8   8   61.86    1.81
  26  -8   8   -0.02    0.22
  28  -8   8   20.84    1.13
  30  -8   8    0.15    0.28
  32  -8   8   15.87    1.08
  34   6  -8    0.31    0.39
  32   6  -8    0.42    0.38
  30   6  -8    0.17    0.33
  28   6  -8    0.26    0.31
  26   6  -8    0.13    0.25
  24   6  -8    0.77    0.29
  24   6  -8    0.67    0.28
  22   6  -8    2.64    0.39
  22   6  -8    1.93    0.33
  20   6  -8   -0.04    0.18
  20   6  -8    0.27    0.20
  18   6  -8    0.34    0.18
  18   6  -8    0.29    0.19
  16   6  -8    0.06    0.16
  16   6  -8    0.22    0.16
  14   6  -8    8.45    0.51
  14   6  -8    8.95    0.47
 -14  -6   8    8.54    0.37
  12   6  -8    0.18    0.14
  12   6  -8    0.14    0.12
 -12  -6   8    0.09    0.08
  10   6  -8    0.12    0.10
  10   6  -8    0.21    0.12
 -10  -6   8    0.21    0.08
   8   6  -8    0.47    0.11
   8   6  -8    0.89    0.18
  -8  -6   8    0.70    0.11
   6   6  -8    1.31    0.18
   6   6  -8    1.51    0.13
  -6  -6   8    1.44    0.15
   4   6  -8    0.01    0.08
  -4  -6   8    0.25    0.08
   2   6  -8    0.57    0.13
  -2  -6   8    0.47    0.10
   0   6  -8    0.08    0.08
   0  -6   8    0.04    0.06
  -2   6  -8    0.67    0.11
   2  -6   8    0.49    0.11
  -4   6  -8    0.04    0.06
   4  -6   8    0.11    0.06
   4  -6   8    0.14    0.08
  -6   6  -8    1.76    0.15
   6  -6   8    1.55    0.16
   6  -6   8    1.44    0.18
   8  -6   8    0.75    0.14
   8  -6   8    0.61    0.14
  10  -6   8    0.11    0.10
  10  -6   8    0.04    0.08
  12  -6   8   -0.05    0.10
  12  -6   8    0.10    0.10
  14  -6   8    8.58    0.49
  14  -6   8    9.25    0.50
  16  -6   8    0.14    0.14
  16  -6   8    0.24    0.16
  18  -6   8    0.17    0.15
  18  -6   8    0.58    0.21
  20  -6   8    0.32    0.21
  20  -6   8    0.17    0.18
  22  -6   8    1.77    0.35
  22  -6   8    1.68    0.32
  24  -6   8    1.34    0.32
  24  -6   8    1.31    0.33
  26  -6   8    0.08    0.20
  28  -6   8    0.07    0.24
  30  -6   8    0.11    0.25
  32  -6   8   -0.06    0.26
  34  -6   8    0.09    0.36
  34   4  -8   -0.07    0.35
  32   4  -8   15.15    1.07
  30   4  -8    0.14    0.32
  28   4  -8   27.43    1.28
  26   4  -8    0.13    0.26
  24   4  -8   56.74    1.77
  24   4  -8   54.61    1.68
  22   4  -8   -0.13    0.15
  22   4  -8    0.09    0.21
  20   4  -8   82.16    2.11
  20   4  -8   84.25    2.13
  18   4  -8    0.14    0.17
  18   4  -8    0.04    0.14
  16   4  -8  106.94    2.45
  16   4  -8  110.97    2.41
  14   4  -8    0.00    0.11
  14   4  -8    0.20    0.13
  14   4  -8    0.10    0.08
 -14  -4   8    0.04    0.07
  12   4  -8  223.87    4.33
  12   4  -8  228.29    4.18
 -12  -4   8  225.68    3.82
  10   4  -8    0.15    0.10
  10   4  -8    0.15    0.11
 -10  -4   8    0.06    0.06
   8   4  -8  224.14    3.98
   8   4  -8  223.21    4.22
  -8  -4   8  227.45    3.79
   6   4  -8    0.12    0.07
   6   4  -8    0.30    0.11
  -6  -4   8    0.07    0.06
   4   4  -8  188.16    3.46
   4   4  -8  183.50    3.19
  -4  -4   8  182.03    3.16
   2   4  -8    0.43    0.11
  -2  -4   8    0.59    0.09
   0   4  -8  211.51    3.77
   0  -4   8  206.73    3.61
  -2   4  -8    0.47    0.09
   2  -4   8    0.29    0.09
  -4   4  -8  189.67    3.28
   4  -4   8  177.81    3.28
   4  -4   8  186.10    3.26
  -6   4  -8    0.14    0.06
   6  -4   8    0.14    0.08
   6  -4   8   -0.02    0.05
   8  -4   8  225.78    4.10
   8  -4   8  231.41    4.12
  10  -4   8    0.10    0.09
  10  -4   8    0.12    0.09
  12  -4   8  224.52    4.22
  12  -4   8  226.52    4.16
  14  -4   8    0.21    0.14
  14  -4   8    0.15    0.11
  16  -4   8  107.07    2.39
  16  -4   8  103.00    2.30
  18  -4   8    0.20    0.16
  18  -4   8   -0.11    0.11
  20  -4   8   81.25    2.15
  20  -4   8   86.87    2.10
  22  -4   8    0.17    0.20
  22  -4   8    0.06    0.16
  24  -4   8   54.25    1.63
  24  -4   8   55.95    1.79
  26  -4   8    0.28    0.22
  28  -4   8   26.71    1.28
  30  -4   8    0.08    0.24
  32  -4   8   14.13    1.03
  34  -4   8    0.13    0.30
  34   2  -8   -0.39    0.35
  32   2  -8    0.03    0.36
  30   2  -8    0.11    0.29
  28   2  -8    0.16    0.30
  26   2  -8    0.12    0.28
  24   2  -8    1.96    0.39
  22   2  -8    0.81    0.28
  22   2  -8    0.84    0.24
  20   2  -8    0.80    0.25
  20   2  -8    0.44    0.24
  18   2  -8    0.03    0.16
  18   2  -8   -0.03    0.11
  16   2  -8    1.94    0.27
  16   2  -8    0.92    0.23
  14   2  -8    0.16    0.12
  14   2  -8   -0.07    0.12
  12   2  -8    0.24    0.14
  12   2  -8    0.40    0.07
  12   2  -8    0.38    0.14
 -12  -2   8    0.37    0.07
  10   2  -8   10.83    0.52
  10   2  -8   10.60    0.45
 -10  -2   8   11.16    0.30
   8   2  -8    0.14    0.09
   8   2  -8    0.11    0.10
  -8  -2   8    0.21    0.05
   6   2  -8    0.60    0.10
   6   2  -8    0.37    0.11
  -6  -2   8    0.40    0.06
   4   2  -8    0.48    0.09
   4   2  -8    0.45    0.11
  -4  -2   8    0.48    0.08
   2   2  -8    0.65    0.12
   2   2  -8    0.47    0.08
  -2  -2   8    0.72    0.09
   0   2  -8    0.16    0.07
   0  -2   8    0.14    0.06
  -2   2  -8    0.70    0.10
   2  -2   8    0.54    0.10
  -4   2  -8    0.41    0.08
   4  -2   8    0.47    0.11
   6  -2   8    0.61    0.11
   6  -2   8    0.66    0.13
   8  -2   8    0.00    0.08
   8  -2   8    0.09    0.08
  10  -2   8   10.28    0.46
  10  -2   8   11.13    0.50
  12  -2   8    0.47    0.15
  12  -2   8    0.62    0.16
  14  -2   8    0.06    0.12
  14  -2   8   -0.02    0.09
  16  -2   8    1.54    0.26
  16  -2   8    1.15    0.24
  18  -2   8   -0.08    0.13
  18  -2   8    0.03    0.13
  20  -2   8    1.04    0.27
  20  -2   8    0.33    0.21
  22  -2   8    0.68    0.26
  22  -2   8    0.48    0.22
 -24   2  -8    0.87    0.26
  24  -2   8    0.91    0.33
  26  -2   8   -0.02    0.19
  28  -2   8    0.18    0.24
  30  -2   8    0.15    0.23
  32  -2   8    0.27    0.33
  34  -2   8   -0.03    0.32
  34   0  -8   -0.40    0.33
  32   0  -8   16.93    1.13
  30   0  -8   -0.49    0.28
  28   0  -8   19.11    1.10
  26   0  -8    0.04    0.24
  24   0  -8   73.90    2.15
  22   0  -8    0.14    0.18
  22   0  -8    0.19    0.22
  20   0  -8   52.63    1.55
  20   0  -8   55.56    1.64
  18   0  -8    0.24    0.14
  18   0  -8    0.12    0.16
  16   0  -8  166.05    3.43
  16   0  -8  169.81    3.45
  14   0  -8    0.10    0.12
  14   0  -8   -0.03    0.11
  12   0  -8  139.21    2.78
  10   0  -8    0.01    0.09
   8   0  -8  273.75    4.84
   6   0  -8    0.11    0.07
  -6   0   8    0.10    0.04
   4   0  -8  200.37    3.59
  -4   0   8  207.99    3.40
   2   0  -8   -0.02    0.06
  -2   0   8    0.04    0.04
   0   0   8  986.71   15.98
   2   0   8    0.03    0.06
   4   0   8  206.65    3.64
   6   0   8    0.12    0.07
   6   0   8   -0.01    0.05
   8   0   8  275.94    4.90
   8   0   8  273.25    4.81
  10   0   8   -0.03    0.08
  10   0   8   -0.02    0.08
  12   0   8  144.94    2.86
  12   0   8  142.98    2.91
  14   0   8   -0.10    0.08
  14   0   8   -0.04    0.10
  16   0   8  164.35    3.35
  16   0   8  159.53    3.22
  18   0   8    0.02    0.12
  18   0   8    0.01    0.13
 -20   0  -8   48.96    1.38
  20   0   8   48.31    1.52
 -22   0  -8    0.17    0.16
  22   0   8   -0.11    0.13
 -24   0  -8   70.79    1.88
  24   0   8   68.36    2.04
 -26   0  -8   -0.06    0.16
  26   0   8    0.07    0.20
  28   0   8   19.11    1.06
  30   0   8   -0.03    0.24
  32   0   8   17.18    1.12
  34   0   8   -0.18    0.24
  34  -2  -8    0.33    0.41
  32  -2  -8    0.21    0.36
  30  -2  -8    0.34    0.31
  28  -2  -8    0.49    0.35
  26  -2  -8    0.22    0.27
  24  -2  -8    1.03    0.33
  22  -2  -8    0.51    0.22
  22  -2  -8    0.68    0.28
  20  -2  -8    0.42    0.21
  20  -2  -8    0.94    0.29
  18  -2  -8   -0.04    0.11
  18  -2  -8    0.07    0.17
  16  -2  -8    1.96    0.29
  14  -2  -8    0.20    0.14
  12  -2  -8    0.42    0.15
  10  -2  -8   10.89    0.49
   8  -2  -8    0.06    0.08
   6  -2  -8    0.69    0.13
   6  -2  -8    0.49    0.05
   4  -2  -8    0.38    0.06
   4  -2  -8    0.36    0.10
   2  -2  -8    0.59    0.10
  -2   2   8    0.39    0.07
   0   2   8   -0.05    0.05
   2   2   8    0.50    0.10
   4   2   8    0.42    0.10
   6   2   8    0.41    0.11
   8   2   8    0.01    0.09
   8   2   8    0.10    0.08
  10   2   8   10.43    0.48
  10   2   8   10.19    0.48
  12   2   8    0.30    0.12
  12   2   8    0.44    0.16
 -14  -2  -8    0.17    0.11
  14   2   8    0.10    0.11
  14   2   8    0.07    0.11
 -16  -2  -8    1.42    0.24
  16   2   8    1.74    0.27
 -18  -2  -8    0.14    0.14
  18   2   8    0.17    0.15
 -20  -2  -8    0.43    0.21
  20   2   8    0.55    0.21
 -22  -2  -8    0.56    0.21
  22   2   8    0.61    0.26
 -24  -2  -8    0.98    0.28
  24   2   8    1.40    0.34
 -26  -2  -8    0.17    0.21
  26   2   8    0.36    0.24
  28   2   8    0.58    0.30
  30   2   8   -0.26    0.24
  32   2   8   -0.04    0.30
  34   2   8    0.07    0.31
  34  -4  -8    0.22    0.38
  32  -4  -8   15.02    1.11
  30  -4  -8    0.16    0.34
  28  -4  -8   27.00    1.33
  26  -4  -8    0.00    0.23
  24  -4  -8   52.17    1.76
  22  -4  -8   -0.01    0.14
  22  -4  -8    0.24    0.24
  20  -4  -8   83.55    2.20
  18  -4  -8    0.07    0.17
  16  -4  -8  111.03    2.52
  14  -4  -8    0.24    0.15
  12  -4  -8  217.91    4.14
  10  -4  -8    0.06    0.10
   8  -4  -8  225.82    4.15
   6  -4  -8    0.10    0.08
   6  -4  -8    0.14    0.05
   4  -4  -8  188.62    3.10
   4  -4  -8  180.50    3.38
   2  -4  -8    0.35    0.10
   2  -4  -8    0.46    0.08
   0  -4  -8  203.32    3.48
  -2  -4  -8    0.44    0.10
  -4  -4  -8  177.67    3.18
  -6  -4  -8    0.05    0.08
  -8  -4  -8  208.23    3.76
 -10  -4  -8    0.01    0.08
  10   4   8    0.06    0.09
 -12  -4  -8  217.49    4.02
  12   4   8  218.14    4.15
 -14  -4  -8    0.18    0.12
  14   4   8   -0.18    0.09
 -16  -4  -8  110.25    2.36
  16   4   8  102.43    2.41
 -18  -4  -8    0.31    0.17
  18   4   8    0.16    0.15
 -20  -4  -8   77.46    1.98
  20   4   8   81.78    2.13
 -22  -4  -8    0.36    0.18
  22   4   8   -0.16    0.15
 -24  -4  -8   55.20    1.63
  24   4   8   50.28    1.71
 -26  -4  -8    0.28    0.21
  26   4   8   -0.14    0.23
  28   4   8   25.25    1.25
  30   4   8   -0.03    0.28
  32   4   8   12.11    0.94
  34   4   8    0.45    0.39
  34  -6  -8   -0.33    0.37
  32  -6  -8    0.12    0.38
  30  -6  -8    0.46    0.37
  28  -6  -8    0.49    0.33
  26  -6  -8    0.19    0.27
  24  -6  -8    0.09    0.25
  22  -6  -8    1.75    0.37
  20  -6  -8   -0.09    0.22
  18  -6  -8    0.32    0.22
  16  -6  -8    0.34    0.18
  14  -6  -8    8.93    0.53
  12  -6  -8    0.22    0.15
  10  -6  -8    0.24    0.12
  10  -6  -8    0.15    0.04
   8  -6  -8    0.57    0.08
   8  -6  -8    0.71    0.15
   6  -6  -8    1.25    0.18
   6  -6  -8    1.56    0.12
  -6   6   8    1.43    0.11
   4  -6  -8    0.04    0.06
   4  -6  -8    0.10    0.08
  -4   6   8    0.11    0.06
   2  -6  -8    0.55    0.13
   2  -6  -8    0.52    0.10
   0  -6  -8    0.01    0.06
   0   6   8    0.02    0.06
  -2  -6  -8    0.51    0.11
   2   6   8    0.67    0.12
  -4  -6  -8    0.04    0.07
  -6  -6  -8    1.61    0.20
  -8  -6  -8    0.67    0.15
 -10  -6  -8    0.23    0.11
 -12  -6  -8    0.15    0.13
  12   6   8    0.09    0.12
 -14  -6  -8    8.56    0.49
  14   6   8    8.43    0.52
 -16  -6  -8    0.19    0.16
  16   6   8    0.09    0.14
 -18  -6  -8    0.36    0.18
  18   6   8    0.21    0.17
 -20  -6  -8    0.25    0.20
  20   6   8    0.54    0.23
 -22  -6  -8    2.89    0.36
  22   6   8    2.52    0.40
 -24  -6  -8    0.45    0.26
  24   6   8    0.78    0.31
 -26  -6  -8   -0.05    0.19
  26   6   8   -0.06    0.22
  28   6   8   -0.01    0.23
  30   6   8    0.38    0.30
  32   6   8    0.08    0.32
  32  -8  -8   15.72    1.13
  30  -8  -8    0.10    0.35
  28  -8  -8   20.21    1.18
  26  -8  -8   -0.10    0.24
  24  -8  -8   67.49    2.12
  22  -8  -8    0.08    0.25
  20  -8  -8   80.28    2.18
  18  -8  -8    0.23    0.20
  16  -8  -8  125.86    2.85
  14  -8  -8   -0.09    0.11
  12  -8  -8  139.49    2.92
  10  -8  -8    0.72    0.09
  10  -8  -8    0.51    0.16
   8  -8  -8  196.93    3.81
   8  -8  -8  203.10    3.40
   6  -8  -8    0.51    0.10
   6  -8  -8    0.70    0.15
   4  -8  -8  211.12    3.99
   4  -8  -8  219.35    3.70
   2  -8  -8    0.36    0.10
   2  -8  -8   -0.11    0.07
   0  -8  -8  276.56    4.69
   0   8   8  271.33    4.67
  -2  -8  -8    0.18    0.09
   2   8   8    0.13    0.09
  -4  -8  -8  227.57    4.04
   4   8   8  224.28    4.01
  -6  -8  -8    0.56    0.14
   6   8   8    0.76    0.15
  -8  -8  -8  202.99    3.77
 -10  -8  -8    0.33    0.14
 -12  -8  -8  131.59    2.72
 -14  -8  -8   -0.10    0.12
 -16  -8  -8  120.62    2.64
  16   8   8  120.69    2.71
 -18  -8  -8    0.04    0.16
  18   8   8    0.17    0.17
 -20  -8  -8   81.46    2.08
  20   8   8   82.95    2.21
 -22  -8  -8    0.06    0.15
  22   8   8    0.34    0.23
 -24  -8  -8   59.96    1.79
  24   8   8   60.35    1.91
 -26  -8  -8    0.06    0.21
  26   8   8    0.17    0.23
  28   8   8   19.64    1.10
  30   8   8    0.01    0.29
  32   8   8   14.25    1.05
  32 -10  -8   -0.20    0.35
  30 -10  -8    0.27    0.34
  28 -10  -8    0.16    0.30
  26 -10  -8    0.78    0.37
  24 -10  -8    0.69    0.33
  22 -10  -8    0.06    0.22
  20 -10  -8    0.30    0.24
  18 -10  -8    2.86    0.39
  16 -10  -8    0.11    0.17
  14 -10  -8    0.01    0.15
  12 -10  -8    0.21    0.15
  10 -10  -8    2.38    0.18
  10 -10  -8    2.15    0.27
   8 -10  -8    0.81    0.13
   8 -10  -8    1.13    0.20
   6 -10  -8    0.21    0.10
   6 -10  -8    0.24    0.12
   4 -10  -8    0.19    0.09
   4 -10  -8    0.06    0.09
   2 -10  -8   10.84    0.44
   2 -10  -8   11.11    0.51
   0 -10  -8   -0.08    0.06
  -2 -10  -8   11.49    0.49
  -4 -10  -8    0.00    0.09
   4  10   8    0.11    0.10
  -6 -10  -8    0.32    0.14
   6  10   8    0.17    0.11
  -8 -10  -8    0.92    0.19
   8  10   8    0.54    0.16
 -10 -10  -8    1.89    0.25
  10  10   8    2.07    0.27
 -12 -10  -8    0.18    0.14
 -14 -10  -8    0.03    0.13
 -16 -10  -8    0.19    0.17
 -18 -10  -8    3.93    0.40
 -20 -10  -8    0.14    0.19
  20  10   8    0.06    0.20
 -22 -10  -8    0.36    0.22
  22  10   8    0.42    0.25
 -24 -10  -8    0.46    0.27
  24  10   8    0.30    0.23
 -26 -10  -8    0.51    0.25
  26  10   8    1.09    0.36
 -28 -10  -8    0.03    0.24
  28  10   8    0.48    0.33
  30  10   8    0.67    0.37
  32  10   8    0.09    0.35
  32 -12  -8   10.82    1.00
  30 -12  -8    0.24    0.33
  28 -12  -8   19.72    1.17
  26 -12  -8    0.31    0.26
  24 -12  -8   26.78    1.27
  22 -12  -8   -0.29    0.16
  20 -12  -8   50.36    1.67
  18 -12  -8    0.22    0.19
  16 -12  -8   58.29    1.70
  14 -12  -8    0.13    0.18
  12 -12  -8  113.80    2.58
  10 -12  -8    0.03    0.12
  10 -12  -8    0.07    0.10
   8 -12  -8  139.26    2.92
   8 -12  -8  139.87    2.59
   6 -12  -8   -0.12    0.10
   6 -12  -8    0.08    0.09
   4 -12  -8  221.64    3.92
   4 -12  -8  219.02    4.18
   2 -12  -8    0.44    0.13
   2 -12  -8    0.28    0.15
   0 -12  -8  136.49    2.84
   0 -12  -8  144.33    2.73
  -2 -12  -8    0.20    0.13
  -4 -12  -8  219.80    4.05
  -6 -12  -8    0.26    0.13
   6  12   8    0.04    0.09
  -8 -12  -8  141.44    2.87
   8  12   8  139.55    2.84
 -10 -12  -8    0.02    0.11
  10  12   8    0.08    0.14
 -12 -12  -8  111.74    2.51
  12  12   8  116.18    2.50
 -14 -12  -8    0.23    0.17
 -16 -12  -8   56.71    1.62
 -18 -12  -8   -0.01    0.15
 -20 -12  -8   50.17    1.57
 -22 -12  -8    0.06    0.19
 -24 -12  -8   23.89    1.08
 -26 -12  -8    0.10    0.22
 -28 -12  -8   23.22    1.13
  30 -14  -8    0.59    0.36
  28 -14  -8   -0.01    0.25
  26 -14  -8    0.43    0.32
  24 -14  -8    0.34    0.28
  22 -14  -8    1.63    0.39
  20 -14  -8    0.45    0.24
  18 -14  -8    1.12    0.31
  16 -14  -8    0.54    0.24
  14 -14  -8    5.61    0.49
  12 -14  -8    0.17    0.17
  10 -14  -8    0.32    0.12
  10 -14  -8    0.13    0.13
   8 -14  -8    0.08    0.11
   8 -14  -8    0.10    0.12
   6 -14  -8    8.26    0.49
   6 -14  -8    8.54    0.44
   4 -14  -8    0.01    0.10
   4 -14  -8    0.16    0.12
   2 -14  -8    0.08    0.11
   2 -14  -8    0.19    0.13
   0 -14  -8    0.03    0.10
   0 -14  -8   -0.18    0.09
  -2 -14  -8    0.02    0.11
  -4 -14  -8    0.12    0.14
  -6 -14  -8    7.69    0.48
  -8 -14  -8    0.14    0.15
   8  14   8    0.13    0.13
 -10 -14  -8    0.17    0.15
  10  14   8    0.12    0.14
 -12 -14  -8    0.20    0.16
  12  14   8    0.30    0.18
 -14 -14  -8    5.93    0.49
  14  14   8    5.91    0.48
 -16 -14  -8    0.82    0.26
 -18 -14  -8    1.14    0.30
 -20 -14  -8    0.18    0.21
 -22 -14  -8    1.85    0.37
 -24 -14  -8    0.47    0.26
 -26 -14  -8    0.18    0.25
 -28 -14  -8   -0.38    0.24
  30 -16  -8    0.15    0.37
  28 -16  -8   12.76    1.01
  26 -16  -8   -0.07    0.27
  24 -16  -8   31.11    1.42
  22 -16  -8    0.24    0.25
  20 -16  -8   38.80    1.48
  18 -16  -8    0.04    0.21
  16 -16  -8   84.98    2.27
  14 -16  -8    0.49    0.23
  12 -16  -8   56.43    1.64
  10 -16  -8    0.16    0.17
  10 -16  -8    0.13    0.12
   8 -16  -8  121.13    2.76
   8 -16  -8  128.90    2.53
   6 -16  -8    0.05    0.16
   6 -16  -8    0.37    0.16
   4 -16  -8  105.64    2.26
   4 -16  -8  107.88    2.42
   2 -16  -8    1.54    0.24
   2 -16  -8    1.12    0.25
   0 -16  -8  163.93    3.32
   0 -16  -8  160.57    3.21
  -2 -16  -8    1.45    0.25
  -4 -16  -8  108.29    2.40
  -6 -16  -8   -0.07    0.14
  -8 -16  -8  121.49    2.71
   8  16   8  126.11    2.74
 -10 -16  -8    0.37    0.18
  10  16   8    0.13    0.17
 -12 -16  -8   56.36    1.65
  12  16   8   59.44    1.65
 -14 -16  -8    0.37    0.22
  14  16   8    0.25    0.18
 -16 -16  -8   87.89    2.29
  16  16   8   90.18    2.28
 -18 -16  -8    0.36    0.21
 -20 -16  -8   34.94    1.34
 -22 -16  -8    0.14    0.23
 -24 -16  -8   28.69    1.26
 -26 -16  -8    0.02    0.24
 -28 -16  -8   13.39    0.92
  28 -18  -8    0.33    0.36
  26 -18  -8    0.95    0.41
  24 -18  -8    0.53    0.34
  22 -18  -8    0.41    0.30
  20 -18  -8   -0.24    0.20
  18 -18  -8    1.14    0.34
  16 -18  -8    0.03    0.19
  14 -18  -8    0.86    0.27
  12 -18  -8    0.36    0.20
  10 -18  -8    3.03    0.39
  10 -18  -8    3.21    0.30
   8 -18  -8    0.23    0.17
   8 -18  -8    0.03    0.13
   6 -18  -8    0.11    0.15
   6 -18  -8    0.25    0.16
   4 -18  -8    0.12    0.14
   4 -18  -8   -0.09    0.10
   2 -18  -8    0.18    0.14
   2 -18  -8    0.05    0.16
   0 -18  -8    0.12    0.15
   0 -18  -8   -0.11    0.13
  -2 -18  -8   -0.02    0.16
  -2 -18  -8    0.19    0.13
  -4 -18  -8   -0.12    0.14
  -6 -18  -8    0.43    0.22
  -8 -18  -8    0.35    0.21
 -10 -18  -8    3.29    0.41
  10  18   8    3.71    0.40
 -12 -18  -8    0.04    0.17
  12  18   8   -0.02    0.14
 -14 -18  -8    0.68    0.26
  14  18   8    0.86    0.28
 -16 -18  -8    0.03    0.19
  16  18   8    0.11    0.20
 -18 -18  -8    0.39    0.24
 -20 -18  -8    0.14    0.22
 -22 -18  -8   -0.09    0.23
 -24 -18  -8    0.05    0.26
 -26 -18  -8    0.15    0.30
  28 -20  -8   12.00    1.02
  26 -20  -8    0.08    0.34
  24 -20  -8   17.51    1.09
  22 -20  -8    0.03    0.24
  20 -20  -8   33.57    1.41
  18 -20  -8    0.24    0.26
  16 -20  -8   37.14    1.41
  14 -20  -8    0.00    0.20
  12 -20  -8   47.43    1.53
  10 -20  -8    0.41    0.22
   8 -20  -8   75.34    1.84
   8 -20  -8   77.04    2.02
   6 -20  -8    0.09    0.21
   6 -20  -8    0.22    0.20
   4 -20  -8   78.94    1.95
   4 -20  -8   80.57    2.03
   2 -20  -8    0.55    0.24
   2 -20  -8    0.81    0.23
   0 -20  -8   47.04    1.43
   0 -20  -8   50.23    1.46
  -2 -20  -8    1.31    0.29
  -2 -20  -8    0.48    0.23
  -4 -20  -8   80.22    2.07
  -6 -20  -8    0.22    0.23
  -8 -20  -8   83.06    2.18
 -10 -20  -8    0.18    0.23
  10  20   8    0.37    0.21
 -12 -20  -8   50.18    1.64
  12  20   8   52.52    1.65
 -14 -20  -8   -0.18    0.17
  14  20   8    0.17    0.21
 -16 -20  -8   37.84    1.44
  16  20   8   35.53    1.37
 -18 -20  -8   -0.12    0.19
  18  20   8   -0.30    0.19
 -20 -20  -8   35.53    1.46
 -22 -20  -8    0.04    0.26
 -24 -20  -8   19.83    1.14
  26 -22  -8    0.27    0.39
  24 -22  -8    0.30    0.34
  22 -22  -8    2.41    0.50
  20 -22  -8   -0.02    0.26
  18 -22  -8    0.18    0.28
  16 -22  -8   -0.20    0.20
  14 -22  -8    1.90    0.37
  12 -22  -8   -0.12    0.17
  10 -22  -8    0.26    0.20
   8 -22  -8    0.49    0.23
   8 -22  -8    0.50    0.22
   6 -22  -8    1.99    0.31
   6 -22  -8    1.38    0.30
   4 -22  -8    0.17    0.16
   4 -22  -8    0.00    0.17
   2 -22  -8    0.88    0.26
   2 -22  -8    0.86    0.25
   0 -22  -8   -0.03    0.18
   0 -22  -8   -0.07    0.14
  -2 -22  -8    0.95    0.28
  -2 -22  -8    0.91    0.25
  -4 -22  -8   -0.13    0.15
  -4 -22  -8    0.02    0.16
  -6 -22  -8    1.90    0.36
  -8 -22  -8    0.37    0.24
 -10 -22  -8    0.39    0.26
 -12 -22  -8    0.16    0.22
  12  22   8    0.07    0.20
 -14 -22  -8    1.89    0.39
  14  22   8    1.69    0.37
 -16 -22  -8   -0.04    0.20
  16  22   8    0.19    0.24
 -18 -22  -8    0.21    0.25
  18  22   8    0.11    0.26
 -20 -22  -8    0.12    0.25
 -22 -22  -8    2.50    0.49
  24 -24  -8   14.72    1.05
  22 -24  -8    0.00    0.35
  20 -24  -8   20.08    1.12
  18 -24  -8    0.17    0.27
  16 -24  -8   27.53    1.26
  14 -24  -8    0.11    0.26
  12 -24  -8   25.65    1.14
  10 -24  -8    0.64    0.27
   8 -24  -8   61.96    1.85
   8 -24  -8   62.70    1.76
   6 -24  -8    0.43    0.27
   6 -24  -8    0.66    0.25
   4 -24  -8   54.66    1.63
   4 -24  -8   50.55    1.58
   2 -24  -8    1.35    0.32
   2 -24  -8    0.70    0.30
   0 -24  -8   68.29    1.95
   0 -24  -8   71.51    1.94
  -2 -24  -8    1.58    0.35
  -2 -24  -8    0.89    0.29
  -4 -24  -8   49.80    1.57
  -4 -24  -8   53.58    1.72
  -6 -24  -8    0.62    0.29
  -6 -24  -8    0.87    0.29
  -8 -24  -8   60.06    1.90
 -10 -24  -8    0.90    0.35
 -12 -24  -8   25.67    1.20
  12  24   8   23.23    1.12
 -14 -24  -8    1.03    0.35
  14  24   8    0.42    0.30
 -16 -24  -8   30.48    1.36
  16  24   8   28.54    1.30
 -18 -24  -8    0.14    0.25
  18  24   8    0.35    0.28
 -20 -24  -8   22.19    1.20
  20  24   8   20.34    1.14
  22 -26  -8    0.08    0.31
  20 -26  -8    0.01    0.29
  18 -26  -8    0.55    0.33
  16 -26  -8    0.25    0.29
  14 -26  -8    0.06    0.26
  12 -26  -8    0.14    0.25
  10 -26  -8    1.46    0.35
   8 -26  -8   -0.14    0.18
   6 -26  -8    0.27    0.22
   6 -26  -8    0.35    0.24
   4 -26  -8    0.20    0.22
   4 -26  -8   -0.17    0.17
   2 -26  -8    0.29    0.24
   2 -26  -8   -0.01    0.19
   0 -26  -8    0.02    0.18
   0 -26  -8   -0.11    0.21
  -2 -26  -8   -0.18    0.20
  -2 -26  -8    0.34    0.22
  -4 -26  -8   -0.14    0.17
  -4 -26  -8   -0.18    0.21
  -6 -26  -8   -0.21    0.17
  -6 -26  -8    0.09    0.27
  -8 -26  -8    0.05    0.27
 -10 -26  -8    0.79    0.36
 -12 -26  -8    0.15    0.29
  12  26   8    0.26    0.25
 -14 -26  -8    0.18    0.26
  14  26   8    0.21    0.30
 -16 -26  -8    0.37    0.29
  16  26   8   -0.07    0.23
  18  26   8    0.92    0.41
  22 -28  -8    0.37    0.37
  20 -28  -8   12.62    0.97
  18 -28  -8   -0.29    0.29
  16 -28  -8   11.74    0.87
  14 -28  -8    0.27    0.28
  12 -28  -8   19.42    1.05
  10 -28  -8    0.11    0.23
   8 -28  -8   19.73    1.02
   6 -28  -8    0.16    0.27
   4 -28  -8   25.15    1.13
   2 -28  -8    0.21    0.26
   0 -28  -8   18.88    1.02
  -2 -28  -8    0.25    0.27
  -4 -28  -8   26.04    1.24
  -6 -28  -8    0.18    0.31
  -8 -28  -8   18.69    1.11
 -10 -28  -8   -0.14    0.29
 -12 -28  -8   22.72    1.22
  12  28   8   18.76    1.10
  14  28   8    0.13    0.30
   6 -30  -8    0.02    0.27
   4 -30  -8   -0.06    0.26
   2 -30  -8    0.35    0.31
   0 -30  -8    0.13    0.29
  -2 -30  -8    0.28    0.28
  -4 -30  -8    0.06    0.31
  -6 -30  -8    0.26    0.35
  -8 -30  -8    0.17    0.32
   4 -32  -8   14.10    0.96
   2 -32  -8   -0.06    0.28
   0 -32  -8   17.32    1.08
 -11 -29   9    0.09    0.25
  -9 -29   9    0.18    0.23
  -7 -29   9    0.09    0.22
  -5 -29   9    0.18    0.22
  -3 -29   9    0.31    0.27
  -1 -29   9    0.18    0.21
   1 -29   9    0.09    0.26
   3 -29   9    0.29    0.27
   5 -29   9   -0.27    0.25
   7 -29   9   -0.23    0.20
   9 -29   9    0.09    0.28
  11 -29   9    0.07    0.29
 -17 -27   9    0.18    0.27
 -15 -27   9    0.07    0.25
 -13 -27   9    0.02    0.23
 -11 -27   9   -0.11    0.22
  -9 -27   9    0.13    0.25
  -7 -27   9    0.17    0.22
  -5 -27   9    0.21    0.22
  -3 -27   9   -0.22    0.16
  -1 -27   9    0.23    0.21
   1 -27   9    0.01    0.21
   3 -27   9   -0.17    0.20
   5 -27   9   -0.20    0.21
   7 -27   9   -0.05    0.21
   9 -27   9   -0.09    0.22
  11 -27   9   -0.21    0.20
  13 -27   9   -0.15    0.26
  15 -27   9    0.08    0.31
  17 -27   9    0.06    0.28
  25  25  -9   -0.09    0.36
  23  25  -9   -0.18    0.34
  21  25  -9    0.19    0.36
  19  25  -9    0.13    0.32
  17  25  -9    0.39    0.32
 -17 -25   9    0.42    0.27
  15  25  -9    0.27    0.29
 -15 -25   9    0.10    0.26
  13  25  -9    0.36    0.30
 -13 -25   9   -0.19    0.17
  11  25  -9    0.05    0.23
 -11 -25   9    0.24    0.20
  -9 -25   9    0.04    0.19
  -7 -25   9   -0.01    0.19
  -5 -25   9    0.25    0.20
  -3 -25   9   -0.13    0.14
  -1 -25   9    0.01    0.15
   1 -25   9    0.03    0.20
   3 -25   9   -0.04    0.22
   5 -25   9    0.00    0.22
   7 -25   9   -0.15    0.18
   9 -25   9    0.09    0.24
  11 -25   9   -0.03    0.22
  13 -25   9    0.08    0.26
  15 -25   9    0.17    0.27
  17 -25   9    0.12    0.27
  19 -25   9    0.15    0.30
  25  23  -9   -0.37    0.31
  23  23  -9   -0.04    0.31
  21  23  -9   -0.24    0.29
  19  23  -9   -0.10    0.26
  17  23  -9    0.02    0.27
 -17 -23   9    0.13    0.22
  15  23  -9    0.03    0.25
 -15 -23   9    0.35    0.23
  13  23  -9    0.49    0.29
 -13 -23   9    0.61    0.26
  11  23  -9    0.09    0.20
 -11 -23   9   -0.02    0.19
   9  23  -9    0.42    0.28
  -9 -23   9    0.16    0.19
   7  23  -9   -0.05    0.24
  -7 -23   9    0.26    0.22
  -5 -23   9    0.32    0.20
  -3 -23   9   -0.08    0.16
  -1 -23   9    0.34    0.21
   1 -23   9    0.00    0.18
   3 -23   9   -0.08    0.17
   5 -23   9   -0.19    0.16
   7 -23   9    0.44    0.27
   9 -23   9   -0.04    0.21
  11 -23   9   -0.17    0.18
  13 -23   9    0.41    0.26
  15 -23   9   -0.03    0.22
  17 -23   9   -0.07    0.25
  19 -23   9   -0.13    0.26
  25  21  -9   -0.32    0.29
  23  21  -9   -0.49    0.26
  21  21  -9   -0.25    0.25
  19  21  -9    0.46    0.30
  17  21  -9   -0.12    0.23
 -17 -21   9    0.24    0.20
  15  21  -9    0.45    0.29
 -15 -21   9    0.63    0.25
  13  21  -9    0.37    0.24
 -13 -21   9    0.09    0.17
  11  21  -9    0.71    0.28
 -11 -21   9    0.95    0.27
   9  21  -9    0.13    0.20
  -9 -21   9   -0.20    0.11
   7  21  -9   -0.11    0.19
  -7 -21   9    0.22    0.18
   5  21  -9   -0.01    0.20
  -5 -21   9    0.17    0.17
   3  21  -9    0.12    0.21
  -3 -21   9    0.12    0.15
  -1 -21   9    0.07    0.15
   1 -21   9    0.17    0.15
   3 -21   9    0.33    0.22
   5 -21   9   -0.09    0.18
   7 -21   9   -0.14    0.16
   9 -21   9   -0.13    0.15
  11 -21   9    1.04    0.30
  13 -21   9    0.29    0.22
  15 -21   9    0.44    0.27
  17 -21   9    0.07    0.23
  19 -21   9    0.27    0.28
  21 -21   9    0.06    0.27
  25  19  -9   -0.25    0.29
  23  19  -9   -0.25    0.26
  21  19  -9   -0.02    0.28
  19  19  -9    0.00    0.23
  17  19  -9    0.41    0.27
 -17 -19   9    0.18    0.19
  15  19  -9    0.27    0.25
 -15 -19   9    0.11    0.18
  13  19  -9    0.14    0.22
 -13 -19   9    0.12    0.16
  11  19  -9    0.46    0.24
 -11 -19   9    0.26    0.17
   9  19  -9   -0.06    0.16
  -9 -19   9    0.12    0.15
   7  19  -9    0.82    0.29
  -7 -19   9    0.42    0.18
   5  19  -9    0.24    0.21
  -5 -19   9    0.89    0.24
   3  19  -9    0.07    0.19
  -3 -19   9    0.04    0.15
   1  19  -9    0.16    0.20
  -1 -19   9    0.27    0.17
   1 -19   9    0.43    0.19
   3 -19   9    0.14    0.16
   5 -19   9    0.17    0.19
   7 -19   9    0.67    0.24
   9 -19   9   -0.21    0.15
  11 -19   9    0.29    0.22
  13 -19   9   -0.24    0.19
  15 -19   9   -0.10    0.17
  17 -19   9    0.29    0.23
  19 -19   9    0.01    0.23
  21 -19   9    0.10    0.27
  25  17  -9    0.04    0.28
  23  17  -9    0.24    0.26
  21  17  -9    0.12    0.26
  19  17  -9    0.19    0.23
  17  17  -9    0.11    0.21
  15  17  -9   -0.28    0.16
 -15 -17   9    0.17    0.17
  13  17  -9    0.37    0.22
 -13 -17   9    0.19    0.17
  11  17  -9   -0.02    0.18
 -11 -17   9   -0.03    0.13
   9  17  -9    0.01    0.16
  -9 -17   9   -0.09    0.12
   7  17  -9   -0.17    0.14
  -7 -17   9   -0.10    0.11
   5  17  -9    0.42    0.21
  -5 -17   9    0.77    0.21
   3  17  -9    2.45    0.34
  -3 -17   9    2.49    0.31
   1  17  -9   -0.14    0.12
  -1 -17   9    0.13    0.13
  -1  17  -9   -0.32    0.10
   1 -17   9    0.17    0.15
   3 -17   9    2.76    0.33
   5 -17   9    0.37    0.19
   7 -17   9    0.20    0.18
   9 -17   9    0.03    0.14
  11 -17   9   -0.01    0.14
  13 -17   9    0.42    0.22
  15 -17   9    0.03    0.16
  17 -17   9    0.12    0.21
  19 -17   9    0.62    0.27
  21 -17   9   -0.21    0.21
  25  15  -9    0.13    0.27
  23  15  -9   -0.04    0.25
  21  15  -9    0.34    0.29
  19  15  -9    0.19    0.25
  17  15  -9   -0.17    0.18
  15  15  -9    0.08    0.19
 -15 -15   9    0.15    0.16
  13  15  -9   -0.10    0.16
 -13 -15   9    0.42    0.17
  11  15  -9    0.08    0.17
 -11 -15   9    0.16    0.14
   9  15  -9   -0.34    0.13
  -9 -15   9   -0.11    0.11
   7  15  -9    0.54    0.22
  -7 -15   9    0.29    0.15
   5  15  -9   -0.01    0.13
  -5 -15   9    0.02    0.12
   3  15  -9    0.44    0.19
  -3 -15   9    0.27    0.14
   1  15  -9    3.76    0.37
  -1 -15   9    3.40    0.33
  -1  15  -9    3.61    0.36
   1 -15   9    3.32    0.34
  -3  15  -9    0.59    0.20
   3 -15   9    0.37    0.16
   5 -15   9   -0.01    0.13
   7 -15   9    0.37    0.18
   9 -15   9   -0.19    0.13
  11 -15   9    0.29    0.18
  13 -15   9   -0.05    0.14
  15 -15   9    0.00    0.18
  15 -15   9   -0.09    0.14
  17 -15   9   -0.31    0.16
  17 -15   9    0.06    0.16
  19 -15   9    0.06    0.18
  19 -15   9   -0.04    0.18
  21 -15   9    0.98    0.30
  21 -15   9    0.58    0.27
  23 -15   9    0.01    0.25
  23 -15   9   -0.05    0.20
  25 -15   9   -0.13    0.22
  27 -15   9    0.12    0.28
  29 -15   9   -0.26    0.24
  31 -15   9    0.44    0.37
  25  13  -9    0.22    0.24
  23  13  -9   -0.06    0.20
  21  13  -9    0.31    0.23
  19  13  -9   -0.04    0.18
  17  13  -9    0.35    0.22
  15  13  -9    0.00    0.17
 -15 -13   9    0.12    0.14
  13  13  -9    0.38    0.19
 -13 -13   9    0.04    0.12
  11  13  -9    0.49    0.21
 -11 -13   9    0.13    0.13
   9  13  -9   -0.01    0.14
  -9 -13   9   -0.12    0.08
   7  13  -9    0.41    0.17
  -7 -13   9    0.29    0.14
   5  13  -9   -0.09    0.11
  -5 -13   9    0.23    0.12
   3  13  -9    0.29    0.16
  -3 -13   9    0.50    0.15
   1  13  -9    0.66    0.17
  -1 -13   9    0.30    0.12
  -1  13  -9    0.35    0.15
   1 -13   9    0.30    0.13
  -3  13  -9    0.31    0.15
   3 -13   9    0.29    0.13
  -5  13  -9    0.01    0.11
   5 -13   9    0.24    0.13
   7 -13   9    0.22    0.10
   7 -13   9    0.13    0.13
   9 -13   9    0.14    0.14
   9 -13   9   -0.07    0.08
  11 -13   9    0.62    0.16
  11 -13   9    0.40    0.17
  13 -13   9    0.03    0.13
  13 -13   9    0.01    0.13
  15 -13   9    0.15    0.15
  15 -13   9    0.25    0.17
  17 -13   9    0.03    0.15
  17 -13   9   -0.02    0.18
  19 -13   9   -0.04    0.17
  19 -13   9   -0.04    0.17
  21 -13   9   -0.20    0.18
  21 -13   9    0.19    0.20
  23 -13   9    0.25    0.25
  23 -13   9    0.04    0.21
  25 -13   9   -0.13    0.22
  27 -13   9   -0.25    0.20
  29 -13   9   -0.02    0.26
  31 -13   9    0.05    0.32
  25  11  -9   -0.10    0.24
  23  11  -9    0.02    0.22
  21  11  -9    0.75    0.29
  19  11  -9    0.35    0.21
  17  11  -9    0.12    0.18
  15  11  -9   -0.08    0.14
 -15 -11   9    0.25    0.14
  13  11  -9    0.55    0.20
 -13 -11   9    0.25    0.14
  11  11  -9    0.07    0.13
 -11 -11   9   -0.03    0.08
   9  11  -9   -0.14    0.10
  -9 -11   9   -0.03    0.09
   7  11  -9    1.58    0.24
  -7 -11   9    1.30    0.20
   5  11  -9   -0.07    0.10
  -5 -11   9    0.08    0.09
   3  11  -9    1.27    0.21
  -3 -11   9    1.58    0.21
   1  11  -9    3.32    0.30
  -1 -11   9    3.34    0.28
  -1  11  -9    3.05    0.28
   1 -11   9    2.71    0.27
  -3  11  -9    1.51    0.21
   3 -11   9    1.66    0.22
  -5  11  -9   -0.14    0.10
   5 -11   9   -0.17    0.07
   5 -11   9   -0.04    0.05
   7 -11   9    1.39    0.16
   7 -11   9    1.41    0.22
   9 -11   9   -0.06    0.11
   9 -11   9   -0.05    0.09
  11 -11   9    0.16    0.12
  11 -11   9   -0.07    0.10
  13 -11   9    0.18    0.13
  13 -11   9    0.47    0.21
  15 -11   9    0.28    0.16
  15 -11   9    0.10    0.15
  17 -11   9   -0.03    0.13
  17 -11   9   -0.11    0.15
  19 -11   9    0.23    0.20
  19 -11   9    0.15    0.19
  21 -11   9    0.41    0.26
  21 -11   9    0.70    0.27
  23 -11   9    0.10    0.21
  23 -11   9   -0.07    0.20
  25 -11   9    0.16    0.22
  27 -11   9    0.22    0.26
  29 -11   9    0.05    0.28
  31 -11   9    0.93    0.40
  25   9  -9   -0.21    0.19
  23   9  -9   -0.29    0.20
  23   9  -9    0.17    0.22
  21   9  -9   -0.13    0.16
  21   9  -9    0.08    0.17
  19   9  -9    0.03    0.18
  19   9  -9    0.18    0.17
  17   9  -9    0.05    0.14
  17   9  -9   -0.05    0.13
  15   9  -9   -0.07    0.13
  15   9  -9    0.04    0.12
  13   9  -9    0.12    0.13
  13   9  -9    0.05    0.11
 -13  -9   9    0.03    0.09
  11   9  -9   -0.07    0.12
  11   9  -9   -0.01    0.09
 -11  -9   9   -0.05    0.08
   9   9  -9   -0.04    0.07
   9   9  -9   -0.13    0.10
  -9  -9   9   -0.02    0.07
   7   9  -9    0.06    0.10
   7   9  -9   -0.01    0.06
  -7  -9   9    0.00    0.08
   5   9  -9   -0.02    0.09
  -5  -9   9    0.04    0.08
   3   9  -9   -0.04    0.08
  -3  -9   9    0.03    0.08
   1   9  -9    0.01    0.08
  -1  -9   9    0.02    0.08
  -1   9  -9   -0.12    0.06
   1  -9   9    0.09    0.08
  -3   9  -9    0.00    0.08
   3  -9   9    0.11    0.09
  -5   9  -9   -0.02    0.08
   5  -9   9    0.00    0.07
   5  -9   9   -0.01    0.05
  -7   9  -9   -0.04    0.09
   7  -9   9    0.10    0.07
   7  -9   9   -0.12    0.07
   9  -9   9    0.08    0.09
   9  -9   9   -0.03    0.09
  11  -9   9    0.09    0.10
  11  -9   9    0.03    0.10
  13  -9   9   -0.06    0.11
  13  -9   9    0.06    0.11
  15  -9   9    0.05    0.14
  15  -9   9    0.09    0.13
  17  -9   9    0.08    0.17
  17  -9   9    0.05    0.13
  19  -9   9    0.43    0.21
  19  -9   9   -0.08    0.15
  21  -9   9   -0.12    0.18
  21  -9   9    0.06    0.18
  23  -9   9    0.03    0.18
  23  -9   9    0.04    0.20
  25  -9   9   -0.21    0.20
  25  -9   9   -0.26    0.18
  27  -9   9   -0.03    0.22
  29  -9   9   -0.04    0.26
  31  -9   9    0.01    0.26
  33  -9   9   -0.03    0.31
  29   7  -9    0.20    0.32
  27   7  -9    0.01    0.28
  25   7  -9   -0.06    0.20
  25   7  -9   -0.17    0.22
  23   7  -9    0.59    0.27
  23   7  -9    0.08    0.23
  21   7  -9   -0.03    0.18
  21   7  -9   -0.11    0.17
  19   7  -9    0.72    0.23
  19   7  -9    0.66    0.23
  17   7  -9    0.04    0.15
  17   7  -9   -0.16    0.14
  15   7  -9    0.43    0.17
  15   7  -9    0.50    0.20
  13   7  -9    0.11    0.14
  13   7  -9    0.28    0.14
 -13  -7   9    0.34    0.10
  11   7  -9    1.29    0.18
  11   7  -9    1.08    0.21
 -11  -7   9    0.97    0.15
   9   7  -9   -0.06    0.08
   9   7  -9   -0.07    0.08
  -9  -7   9    0.10    0.08
   7   7  -9    0.00    0.07
   7   7  -9   -0.09    0.07
  -7  -7   9   -0.07    0.06
   5   7  -9    1.44    0.19
  -5  -7   9    1.88    0.18
   3   7  -9    0.02    0.08
  -3  -7   9    0.10    0.08
   1   7  -9   10.91    0.46
  -1  -7   9   10.86    0.43
  -1   7  -9   11.03    0.45
   1  -7   9   10.74    0.45
  -3   7  -9    0.16    0.08
   3  -7   9   -0.01    0.06
   3  -7   9    0.10    0.06
  -5   7  -9    1.81    0.18
   5  -7   9    1.66    0.15
   5  -7   9    1.78    0.20
  -7   7  -9   -0.10    0.07
   7  -7   9   -0.05    0.07
   7  -7   9    0.07    0.09
   9  -7   9   -0.08    0.08
   9  -7   9   -0.12    0.06
  11  -7   9    1.04    0.18
  11  -7   9    0.96    0.19
  13  -7   9    0.15    0.14
  13  -7   9    0.41    0.15
  15  -7   9    0.37    0.18
  15  -7   9    0.60    0.20
  17  -7   9   -0.01    0.14
  17  -7   9    0.16    0.16
  19  -7   9    0.68    0.24
  19  -7   9    0.48    0.23
  21  -7   9   -0.09    0.17
  21  -7   9   -0.05    0.17
  23  -7   9    0.14    0.19
  23  -7   9    0.07    0.20
  25  -7   9    0.06    0.22
  25  -7   9   -0.03    0.17
  27  -7   9   -0.03    0.20
  29  -7   9    0.04    0.23
  31  -7   9    0.30    0.28
  33  -7   9    0.25    0.33
  35   5  -9    0.07    0.39
  33   5  -9    0.00    0.35
  31   5  -9    0.08    0.30
  29   5  -9   -0.07    0.28
  27   5  -9    0.22    0.29
  25   5  -9    0.18    0.27
  23   5  -9    0.24    0.22
  23   5  -9    0.26    0.25
  21   5  -9   -0.16    0.15
  21   5  -9   -0.02    0.16
  19   5  -9    0.72    0.24
  19   5  -9    0.29    0.19
  17   5  -9    0.17    0.16
  17   5  -9    0.20    0.15
  15   5  -9    0.10    0.15
  15   5  -9   -0.06    0.13
  13   5  -9    0.06    0.12
  13   5  -9    0.25    0.12
 -13  -5   9    0.05    0.07
  11   5  -9   -0.03    0.10
  11   5  -9   -0.04    0.08
 -11  -5   9    0.03    0.07
   9   5  -9    0.08    0.08
   9   5  -9    0.09    0.09
  -9  -5   9   -0.01    0.05
   7   5  -9    1.68    0.16
   7   5  -9    1.80    0.22
  -7  -5   9    1.68    0.15
   5   5  -9    0.01    0.05
   5   5  -9    0.07    0.08
  -5  -5   9    0.01    0.05
   3   5  -9    0.17    0.10
  -3  -5   9    0.25    0.08
   1   5  -9    1.04    0.15
  -1  -5   9    1.15    0.14
  -1   5  -9    1.07    0.14
   1  -5   9    0.88    0.13
  -3   5  -9    0.09    0.08
   3  -5   9    0.13    0.07
  -5   5  -9    0.03    0.06
   5  -5   9    0.01    0.05
   5  -5   9   -0.04    0.06
  -7   5  -9    1.87    0.15
   7  -5   9    2.05    0.19
   7  -5   9    1.61    0.20
   9  -5   9   -0.07    0.08
   9  -5   9    0.06    0.08
  11  -5   9    0.08    0.09
  11  -5   9    0.00    0.08
  13  -5   9   -0.06    0.09
  13  -5   9   -0.08    0.10
  15  -5   9    0.07    0.12
  15  -5   9    0.17    0.12
  17  -5   9    0.30    0.17
  17  -5   9    0.01    0.15
  19  -5   9    0.64    0.23
  19  -5   9    0.66    0.24
  21  -5   9    0.30    0.20
  21  -5   9   -0.17    0.16
  23  -5   9    0.11    0.21
  23  -5   9    0.06    0.20
  25  -5   9    0.13    0.20
  25  -5   9    0.17    0.24
  27  -5   9   -0.02    0.20
  29  -5   9    0.12    0.26
  31  -5   9    0.30    0.30
  33  -5   9   -0.16    0.26
  35   3  -9    0.28    0.44
  33   3  -9    0.19    0.36
  31   3  -9   -0.17    0.31
  29   3  -9   -0.02    0.30
  27   3  -9   -0.20    0.23
  25   3  -9    0.09    0.26
  23   3  -9    0.17    0.22
  23   3  -9    0.10    0.18
  21   3  -9    0.43    0.24
  21   3  -9    0.27    0.20
  19   3  -9    0.02    0.16
  19   3  -9    0.11    0.15
  17   3  -9    2.24    0.31
  17   3  -9    2.15    0.30
  15   3  -9    0.98    0.22
  15   3  -9    0.61    0.19
  13   3  -9    0.11    0.12
  13   3  -9    0.25    0.15
  11   3  -9    1.32    0.19
  11   3  -9    1.42    0.22
 -11  -3   9    1.67    0.13
   9   3  -9   -0.02    0.08
   9   3  -9   -0.04    0.08
  -9  -3   9    0.05    0.05
   7   3  -9    0.09    0.10
   7   3  -9    0.03    0.07
  -7  -3   9   -0.03    0.05
   5   3  -9    0.16    0.07
   5   3  -9    0.09    0.08
  -5  -3   9    0.06    0.06
   3   3  -9    0.13    0.08
   3   3  -9    0.13    0.06
  -3  -3   9    0.02    0.05
   1   3  -9    0.22    0.07
   1   3  -9    0.16    0.09
  -1  -3   9    0.22    0.08
  -1   3  -9    0.43    0.10
   1  -3   9    0.16    0.07
  -3   3  -9   -0.05    0.05
   3  -3   9    0.10    0.07
  -5   3  -9    0.15    0.06
   5  -3   9    0.14    0.08
   5  -3   9    0.08    0.06
   7  -3   9    0.16    0.09
   7  -3   9    0.19    0.09
   9  -3   9   -0.10    0.06
   9  -3   9   -0.06    0.07
  11  -3   9    1.52    0.21
  11  -3   9    1.37    0.20
  13  -3   9    0.09    0.10
  13  -3   9    0.15    0.11
  15  -3   9    0.51    0.17
  15  -3   9    0.27    0.16
  17  -3   9    1.67    0.27
  17  -3   9    2.34    0.31
  19  -3   9    0.00    0.15
  19  -3   9    0.28    0.19
  21  -3   9    0.02    0.17
  21  -3   9    0.14    0.18
  23  -3   9   -0.09    0.18
  23  -3   9    0.10    0.18
 -25   3  -9    0.17    0.16
  25  -3   9    0.39    0.24
  25  -3   9    0.17    0.22
  27  -3   9    0.11    0.23
  29  -3   9   -0.01    0.20
  31  -3   9    0.12    0.27
  33  -3   9    0.25    0.34
  35   1  -9    0.20    0.42
  33   1  -9    0.37    0.39
  31   1  -9   -0.15    0.32
  29   1  -9    0.11    0.34
  27   1  -9    0.15    0.30
  25   1  -9   -0.16    0.22
  23   1  -9    0.09    0.23
  23   1  -9    0.29    0.19
  21   1  -9    0.04    0.20
  21   1  -9   -0.04    0.16
  19   1  -9    0.59    0.22
  19   1  -9    0.72    0.21
  17   1  -9   -0.03    0.11
  17   1  -9   -0.05    0.14
  15   1  -9    3.70    0.36
  15   1  -9    3.66    0.35
  13   1  -9    0.35    0.14
  13   1  -9    0.46    0.16
  11   1  -9    2.88    0.29
  11   1  -9    3.30    0.28
 -11  -1   9    3.30    0.12
   9   1  -9    0.07    0.08
   9   1  -9    0.09    0.09
  -9  -1   9    0.01    0.03
   7   1  -9   11.19    0.42
  -7  -1   9   11.13    0.30
   5   1  -9    1.03    0.13
  -5  -1   9    1.12    0.10
   3   1  -9    0.31    0.08
  -3  -1   9    0.24    0.07
  -1  -1   9   -0.02    0.04
   1  -1   9   -0.07    0.03
   3  -1   9    0.14    0.08
  -5   1  -9    0.93    0.11
   5  -1   9    0.82    0.14
   7  -1   9   10.65    0.44
   7  -1   9   11.21    0.48
   9  -1   9   -0.05    0.06
   9  -1   9    0.01    0.08
  11  -1   9    2.56    0.26
  11  -1   9    3.49    0.31
  13  -1   9    0.51    0.17
  13  -1   9    0.22    0.13
  15  -1   9    3.43    0.34
  15  -1   9    3.53    0.35
  17  -1   9   -0.19    0.11
  17  -1   9    0.08    0.13
  19  -1   9    0.48    0.20
  19  -1   9    0.29    0.19
  21  -1   9    0.01    0.17
  21  -1   9    0.24    0.18
 -23   1  -9    0.43    0.20
  23  -1   9    0.04    0.18
 -25   1  -9    0.16    0.18
  25  -1   9   -0.07    0.16
  27  -1   9   -0.04    0.20
  29  -1   9    0.22    0.27
  31  -1   9    0.45    0.32
  33  -1   9    0.28    0.31
  33  -1  -9    0.30    0.37
  31  -1  -9    0.15    0.32
  29  -1  -9    0.00    0.28
  27  -1  -9   -0.13    0.27
  25  -1  -9    0.23    0.27
  23  -1  -9    0.23    0.21
  23  -1  -9    0.31    0.27
  21  -1  -9    0.07    0.16
  21  -1  -9   -0.03    0.17
  19  -1  -9    0.14    0.19
  19  -1  -9    0.49    0.20
  17  -1  -9    0.21    0.17
  17  -1  -9   -0.12    0.10
  15  -1  -9    3.36    0.34
  13  -1  -9    0.50    0.16
  11  -1  -9    2.90    0.27
   9  -1  -9    0.03    0.10
   7  -1  -9   10.90    0.45
  -7   1   9   10.80    0.26
   5  -1  -9    0.58    0.11
  -5   1   9    1.15    0.09
   3  -1  -9    0.24    0.09
  -3   1   9    0.28    0.07
  -1   1   9    0.08    0.06
   1   1   9   -0.02    0.05
   3   1   9    0.34    0.10
   5   1   9    1.00    0.15
   7   1   9   10.96    0.48
   9   1   9    0.00    0.08
   9   1   9    0.03    0.08
  11   1   9    3.49    0.30
  11   1   9    3.16    0.29
  13   1   9    0.42    0.15
  13   1   9    0.48    0.16
  15   1   9    3.10    0.33
  15   1   9    5.03    0.39
  17   1   9   -0.07    0.11
  17   1   9    0.16    0.16
 -19  -1  -9    0.44    0.20
  19   1   9    0.51    0.21
 -21  -1  -9   -0.09    0.13
  21   1   9   -0.03    0.16
 -23  -1  -9    0.15    0.16
  23   1   9   -0.20    0.19
 -25  -1  -9   -0.02    0.16
  25   1   9   -0.14    0.16
 -27  -1  -9   -0.04    0.19
  27   1   9   -0.02    0.21
  29   1   9   -0.11    0.22
  31   1   9    0.35    0.30
  33   1   9   -0.28    0.26
  33  -3  -9    0.39    0.43
  31  -3  -9   -0.02    0.32
  29  -3  -9    0.22    0.33
  27  -3  -9    0.20    0.28
  25  -3  -9    0.49    0.30
  23  -3  -9    0.37    0.26
  23  -3  -9   -0.17    0.17
  21  -3  -9    0.03    0.23
  21  -3  -9    0.06    0.16
  19  -3  -9    0.32    0.21
  17  -3  -9    2.31    0.31
  15  -3  -9    0.85    0.21
  13  -3  -9    0.28    0.15
  11  -3  -9    1.69    0.23
   9  -3  -9   -0.05    0.08
   7  -3  -9    0.17    0.04
   7  -3  -9    0.03    0.08
   5  -3  -9    0.05    0.05
   5  -3  -9    0.11    0.08
   3  -3  -9    0.04    0.05
   3  -3  -9    0.09    0.08
   1  -3  -9    0.16    0.07
  -1  -3  -9    0.29    0.08
   1   3   9    0.14    0.07
   3   3   9   -0.03    0.05
   5   3   9    0.09    0.07
   7   3   9    0.18    0.09
  -9  -3  -9    0.11    0.08
   9   3   9    0.07    0.08
 -11  -3  -9    1.61    0.21
  11   3   9    1.47    0.21
 -13  -3  -9    0.24    0.13
  13   3   9    0.24    0.13
 -15  -3  -9    0.61    0.18
  15   3   9    0.34    0.16
 -17  -3  -9    1.96    0.28
  17   3   9    2.23    0.31
 -19  -3  -9    0.04    0.16
  19   3   9    0.21    0.17
 -21  -3  -9    0.11    0.16
  21   3   9    0.11    0.16
 -23  -3  -9    0.11    0.17
  23   3   9   -0.03    0.18
 -25  -3  -9    0.48    0.24
  25   3   9    0.21    0.21
 -27  -3  -9    0.06    0.21
  27   3   9   -0.12    0.22
  29   3   9    0.21    0.30
  31   3   9   -0.02    0.30
  33   3   9    0.23    0.35
  33  -5  -9    0.22    0.42
  31  -5  -9    0.58    0.36
  29  -5  -9    0.20    0.31
  27  -5  -9    0.13    0.30
  25  -5  -9    0.27    0.28
  23  -5  -9    0.02    0.24
  23  -5  -9    0.02    0.18
  21  -5  -9   -0.16    0.18
  19  -5  -9    0.85    0.27
  17  -5  -9    0.57    0.21
  15  -5  -9   -0.21    0.11
  13  -5  -9    0.10    0.14
  11  -5  -9   -0.02    0.11
   9  -5  -9    0.03    0.10
   7  -5  -9    1.39    0.19
   7  -5  -9    1.84    0.12
   5  -5  -9   -0.01    0.08
   5  -5  -9    0.05    0.06
   3  -5  -9    0.04    0.05
   3  -5  -9    0.10    0.09
   1  -5  -9    0.65    0.14
   1  -5  -9    1.00    0.12
  -1  -5  -9    1.11    0.14
  -3  -5  -9    0.21    0.09
  -5  -5  -9   -0.03    0.07
  -7  -5  -9    1.76    0.21
  -9  -5  -9   -0.03    0.08
 -11  -5  -9    0.10    0.11
 -13  -5  -9    0.21    0.13
  13   5   9    0.13    0.12
 -15  -5  -9    0.09    0.12
  15   5   9   -0.07    0.13
 -17  -5  -9    0.26    0.15
  17   5   9    0.22    0.15
 -19  -5  -9    0.54    0.20
  19   5   9    0.07    0.20
 -21  -5  -9   -0.03    0.14
  21   5   9    0.27    0.20
 -23  -5  -9    0.10    0.19
  23   5   9   -0.20    0.15
 -25  -5  -9   -0.23    0.16
  25   5   9   -0.06    0.20
 -27  -5  -9   -0.10    0.19
  27   5   9    0.13    0.26
  29   5   9   -0.07    0.28
  31   5   9   -0.15    0.29
  33   5   9    0.15    0.34
  33  -7  -9    0.33    0.45
  31  -7  -9    0.13    0.34
  29  -7  -9    0.47    0.36
  27  -7  -9   -0.11    0.27
  25  -7  -9    0.14    0.30
  23  -7  -9    0.13    0.27
  21  -7  -9   -0.08    0.18
  19  -7  -9    0.50    0.26
  17  -7  -9   -0.14    0.13
  15  -7  -9    0.51    0.20
  13  -7  -9    0.28    0.17
  11  -7  -9    1.25    0.22
   9  -7  -9   -0.04    0.05
   9  -7  -9   -0.14    0.08
  -9   7   9   -0.02    0.05
   7  -7  -9   -0.01    0.09
   7  -7  -9    0.02    0.07
  -7   7   9    0.09    0.06
   5  -7  -9    2.04    0.16
   5  -7  -9    1.80    0.21
  -5   7   9    1.88    0.15
   3  -7  -9    0.23    0.09
   3  -7  -9    0.00    0.08
  -3   7   9    0.10    0.07
   1  -7  -9   10.07    0.47
   1  -7  -9   10.10    0.40
  -1   7   9   11.26    0.41
  -1  -7  -9   10.38    0.41
   1   7   9   10.30    0.42
  -3  -7  -9    0.26    0.10
  -5  -7  -9    1.95    0.22
  -7  -7  -9   -0.02    0.09
  -9  -7  -9    0.00    0.09
 -11  -7  -9    1.47    0.22
 -13  -7  -9    0.37    0.16
 -15  -7  -9    0.88    0.22
  15   7   9    0.36    0.18
 -17  -7  -9   -0.01    0.13
  17   7   9   -0.09    0.11
 -19  -7  -9    0.65    0.22
  19   7   9    1.17    0.30
 -21  -7  -9   -0.06    0.15
  21   7   9   -0.08    0.17
 -23  -7  -9    0.23    0.19
  23   7   9    0.02    0.21
 -25  -7  -9   -0.11    0.18
  25   7   9    0.11    0.21
 -27  -7  -9   -0.04    0.20
  27   7   9   -0.12    0.22
  29   7   9    0.04    0.28
  31   7   9   -0.09    0.29
  33   7   9   -0.04    0.36
  31  -9  -9   -0.11    0.36
  29  -9  -9    0.09    0.34
  27  -9  -9   -0.05    0.28
  25  -9  -9   -0.04    0.27
  23  -9  -9   -0.10    0.22
  21  -9  -9    0.04    0.21
  19  -9  -9   -0.06    0.18
  17  -9  -9   -0.08    0.18
  15  -9  -9   -0.06    0.15
  13  -9  -9   -0.06    0.13
  11  -9  -9   -0.17    0.09
   9  -9  -9   -0.04    0.10
   9  -9  -9    0.05    0.07
   7  -9  -9    0.03    0.10
   7  -9  -9   -0.06    0.06
   5  -9  -9    0.05    0.08
   5  -9  -9    0.07    0.09
   3  -9  -9    0.07    0.08
   3  -9  -9   -0.09    0.06
   1  -9  -9    0.05    0.09
   1  -9  -9   -0.01    0.08
  -1   9   9   -0.03    0.07
  -1  -9  -9   -0.05    0.07
   1   9   9   -0.15    0.06
  -3  -9  -9    0.06    0.10
   3   9   9    0.03    0.08
  -5  -9  -9    0.04    0.09
   5   9   9    0.05    0.08
  -7  -9  -9   -0.14    0.07
  -9  -9  -9    0.16    0.12
 -11  -9  -9    0.05    0.10
 -13  -9  -9   -0.01    0.12
 -15  -9  -9    0.18    0.14
 -17  -9  -9   -0.03    0.13
 -19  -9  -9   -0.03    0.13
 -21  -9  -9   -0.04    0.15
  21   9   9   -0.10    0.17
 -23  -9  -9   -0.10    0.17
  23   9   9   -0.18    0.21
 -25  -9  -9   -0.01    0.20
  25   9   9   -0.13    0.22
 -27  -9  -9    0.13    0.23
  27   9   9   -0.14    0.23
  29   9   9   -0.13    0.25
  31   9   9   -0.08    0.31
  33   9   9   -0.19    0.32
  31 -11  -9   -0.26    0.33
  29 -11  -9    0.09    0.34
  27 -11  -9    0.17    0.29
  25 -11  -9    0.33    0.32
  23 -11  -9    0.10    0.26
  21 -11  -9    0.68    0.29
  19 -11  -9    0.45    0.24
  17 -11  -9   -0.19    0.16
  15 -11  -9   -0.08    0.14
  13 -11  -9    0.32    0.17
  11 -11  -9   -0.12    0.12
   9 -11  -9   -0.05    0.08
   9 -11  -9   -0.07    0.10
   7 -11  -9    1.32    0.22
   7 -11  -9    0.57    0.13
   5 -11  -9    0.03    0.11
   5 -11  -9    0.00    0.08
   3 -11  -9    1.53    0.19
   3 -11  -9    1.35    0.22
   1 -11  -9    3.22    0.26
   1 -11  -9    3.09    0.29
  -1 -11  -9    3.06    0.27
  -3 -11  -9    1.03    0.18
   3  11   9    1.90    0.22
  -5 -11  -9   -0.19    0.08
   5  11   9   -0.18    0.09
  -7 -11  -9    1.46    0.24
   7  11   9    1.56    0.24
  -9 -11  -9   -0.04    0.13
   9  11   9   -0.09    0.10
 -11 -11  -9    0.03    0.13
 -13 -11  -9    1.00    0.23
 -15 -11  -9   -0.11    0.12
 -17 -11  -9   -0.07    0.13
 -19 -11  -9    0.41    0.22
 -21 -11  -9    0.73    0.27
 -23 -11  -9    0.02    0.20
 -25 -11  -9    0.09    0.23
 -27 -11  -9    0.13    0.26
  31 -13  -9   -0.26    0.31
  29 -13  -9   -0.42    0.24
  27 -13  -9    0.03    0.29
  25 -13  -9    0.01    0.24
  23 -13  -9    0.30    0.27
  21 -13  -9   -0.27    0.18
  19 -13  -9   -0.17    0.20
  17 -13  -9    0.26    0.22
  15 -13  -9    0.38    0.21
  13 -13  -9    0.27    0.17
  11 -13  -9    0.30    0.17
   9 -13  -9    0.01    0.10
   9 -13  -9    0.04    0.11
   7 -13  -9    0.29    0.12
   7 -13  -9    0.15    0.13
   5 -13  -9    0.11    0.10
   5 -13  -9   -0.07    0.10
   3 -13  -9    0.42    0.14
   3 -13  -9    0.33    0.14
   1 -13  -9    0.28    0.14
   1 -13  -9    0.42    0.16
  -1 -13  -9    0.45    0.15
  -3 -13  -9    0.08    0.11
  -5 -13  -9    0.32    0.15
   5  13   9    0.12    0.11
  -7 -13  -9    0.27    0.16
   7  13   9    0.33    0.15
  -9 -13  -9   -0.11    0.13
   9  13   9    0.06    0.13
 -11 -13  -9    0.48    0.20
  11  13   9    0.29    0.17
 -13 -13  -9    0.27    0.17
 -15 -13  -9    0.08    0.17
 -17 -13  -9    0.01    0.16
 -19 -13  -9   -0.30    0.16
 -21 -13  -9    0.08    0.20
 -23 -13  -9    0.50    0.26
 -25 -13  -9    0.11    0.22
 -27 -13  -9   -0.09    0.22
  29 -15  -9    0.03    0.28
  27 -15  -9   -0.08    0.27
  25 -15  -9   -0.15    0.22
  23 -15  -9    0.11    0.23
  21 -15  -9    0.45    0.28
  19 -15  -9   -0.08    0.19
  17 -15  -9    0.00    0.17
  15 -15  -9   -0.10    0.15
  13 -15  -9    0.05    0.17
  11 -15  -9   -0.06    0.14
   9 -15  -9   -0.02    0.13
   9 -15  -9   -0.01    0.11
   7 -15  -9    0.44    0.15
   7 -15  -9    0.35    0.17
   5 -15  -9    0.08    0.13
   5 -15  -9   -0.06    0.11
   3 -15  -9    0.50    0.17
   3 -15  -9    0.66    0.19
   1 -15  -9    3.58    0.33
   1 -15  -9    4.15    0.37
  -1 -15  -9    4.15    0.37
  -1 -15  -9    3.32    0.33
  -3 -15  -9    0.20    0.16
  -5 -15  -9    0.05    0.14
  -7 -15  -9    0.69    0.22
   7  15   9    0.33    0.16
  -9 -15  -9   -0.19    0.13
   9  15   9   -0.19    0.13
 -11 -15  -9    0.29    0.18
  11  15   9    0.06    0.16
 -13 -15  -9    0.09    0.17
  13  15   9   -0.24    0.14
 -15 -15  -9   -0.06    0.16
 -17 -15  -9    0.23    0.21
 -19 -15  -9    0.08    0.17
 -21 -15  -9    0.17    0.20
 -23 -15  -9    0.04    0.21
 -25 -15  -9   -0.24    0.24
 -27 -15  -9   -0.06    0.28
  29 -17  -9   -0.10    0.32
  27 -17  -9   -0.67    0.27
  25 -17  -9    0.40    0.34
  23 -17  -9    0.13    0.27
  21 -17  -9    0.16    0.23
  19 -17  -9    0.84    0.32
  17 -17  -9   -0.07    0.17
  15 -17  -9    0.16    0.22
  13 -17  -9    0.38    0.21
  11 -17  -9   -0.16    0.14
   9 -17  -9    0.15    0.14
   9 -17  -9   -0.08    0.15
   7 -17  -9    0.02    0.14
   7 -17  -9   -0.05    0.13
   5 -17  -9    0.05    0.15
   5 -17  -9    0.16    0.14
   3 -17  -9    2.10    0.29
   3 -17  -9    2.29    0.29
   1 -17  -9   -0.04    0.15
   1 -17  -9   -0.01    0.13
  -1 -17  -9   -0.05    0.11
  -1 -17  -9   -0.03    0.15
  -3 -17  -9    2.14    0.31
  -5 -17  -9    0.50    0.22
  -7 -17  -9    0.11    0.17
   7  17   9   -0.10    0.12
  -9 -17  -9    0.14    0.19
   9  17   9    0.06    0.15
 -11 -17  -9   -0.09    0.15
  11  17   9   -0.05    0.13
 -13 -17  -9    0.16    0.18
  13  17   9    0.15    0.18
 -15 -17  -9    0.20    0.19
  15  17   9    0.06    0.18
 -17 -17  -9    0.02    0.18
 -19 -17  -9    0.32    0.24
 -21 -17  -9    0.08    0.21
 -23 -17  -9    0.03    0.23
 -25 -17  -9    0.15    0.25
 -27 -17  -9    0.50    0.34
  27 -19  -9    0.05    0.32
  25 -19  -9    0.07    0.30
  23 -19  -9   -0.13    0.25
  21 -19  -9    0.09    0.25
  19 -19  -9   -0.13    0.20
  17 -19  -9    0.20    0.24
  15 -19  -9   -0.04    0.17
  13 -19  -9    0.07    0.18
  11 -19  -9    0.54    0.24
   9 -19  -9    0.00    0.17
   7 -19  -9    0.61    0.21
   7 -19  -9    0.72    0.22
   5 -19  -9    0.47    0.21
   5 -19  -9    0.23    0.19
   3 -19  -9    0.14    0.17
   3 -19  -9    0.09    0.16
   1 -19  -9    0.20    0.17
   1 -19  -9    0.49    0.22
  -1 -19  -9    0.51    0.19
  -1 -19  -9    0.69    0.24
  -3 -19  -9   -0.01    0.19
  -3 -19  -9    0.10    0.14
  -5 -19  -9    0.70    0.25
  -7 -19  -9    0.36    0.24
  -9 -19  -9   -0.05    0.19
   9  19   9    0.12    0.15
 -11 -19  -9   -0.17    0.21
  11  19   9    0.25    0.18
 -13 -19  -9    0.01    0.19
  13  19   9   -0.23    0.17
 -15 -19  -9   -0.24    0.14
  15  19   9   -0.07    0.16
 -17 -19  -9    0.43    0.26
  17  19   9    0.42    0.26
 -19 -19  -9    0.03    0.22
 -21 -19  -9    0.51    0.31
 -23 -19  -9   -0.06    0.23
 -25 -19  -9   -0.06    0.24
  27 -21  -9    0.04    0.37
  25 -21  -9   -0.13    0.28
  23 -21  -9   -0.03    0.30
  21 -21  -9   -0.10    0.22
  19 -21  -9   -0.12    0.24
  17 -21  -9   -0.07    0.24
  15 -21  -9    0.25    0.25
  13 -21  -9    0.15    0.20
  11 -21  -9    0.50    0.25
   9 -21  -9   -0.16    0.14
   7 -21  -9   -0.06    0.16
   7 -21  -9   -0.18    0.14
   5 -21  -9    0.01    0.17
   5 -21  -9   -0.01    0.17
   3 -21  -9    0.05    0.16
   3 -21  -9    0.05    0.17
   1 -21  -9   -0.26    0.17
   1 -21  -9   -0.10    0.13
  -1 -21  -9   -0.19    0.17
  -1 -21  -9   -0.03    0.15
  -3 -21  -9   -0.05    0.15
  -3 -21  -9    0.04    0.18
  -5 -21  -9   -0.05    0.18
  -7 -21  -9   -0.19    0.20
  -9 -21  -9   -0.07    0.20
   9  21   9    0.20    0.21
 -11 -21  -9    0.92    0.32
  11  21   9    0.61    0.27
 -13 -21  -9   -0.25    0.15
  13  21   9    0.15    0.18
 -15 -21  -9    0.52    0.28
  15  21   9    0.31    0.26
 -17 -21  -9    0.29    0.27
  17  21   9    0.15    0.21
 -19 -21  -9   -0.11    0.22
 -21 -21  -9   -0.03    0.24
 -23 -21  -9    0.20    0.29
  25 -23  -9    0.11    0.34
  23 -23  -9   -0.10    0.31
  21 -23  -9    0.16    0.30
  19 -23  -9   -0.22    0.24
  17 -23  -9    0.19    0.27
  15 -23  -9   -0.11    0.22
  13 -23  -9    0.11    0.22
  11 -23  -9    0.07    0.22
   9 -23  -9   -0.09    0.17
   7 -23  -9   -0.02    0.20
   7 -23  -9   -0.07    0.17
   5 -23  -9    0.00    0.17
   5 -23  -9    0.17    0.21
   3 -23  -9    0.16    0.18
   3 -23  -9   -0.11    0.17
   1 -23  -9    0.17    0.18
   1 -23  -9    0.20    0.20
  -1 -23  -9    0.02    0.19
  -1 -23  -9   -0.19    0.17
  -3 -23  -9   -0.01    0.19
  -3 -23  -9    0.08    0.21
  -5 -23  -9    0.08    0.22
  -5 -23  -9   -0.02    0.17
  -7 -23  -9   -0.11    0.22
  -9 -23  -9   -0.40    0.19
 -11 -23  -9   -0.08    0.23
  11  23   9   -0.08    0.19
 -13 -23  -9    0.18    0.24
  13  23   9    0.11    0.22
 -15 -23  -9   -0.05    0.20
  15  23   9   -0.11    0.23
 -17 -23  -9    0.04    0.23
  17  23   9    0.07    0.25
 -19 -23  -9   -0.20    0.22
  23 -25  -9    0.04    0.36
  21 -25  -9    0.25    0.28
  19 -25  -9   -0.06    0.30
  17 -25  -9    0.13    0.29
  15 -25  -9   -0.13    0.26
  13 -25  -9    0.04    0.23
  11 -25  -9   -0.15    0.21
   9 -25  -9    0.12    0.22
   7 -25  -9   -0.17    0.18
   7 -25  -9   -0.13    0.19
   5 -25  -9    0.13    0.21
   5 -25  -9    0.13    0.20
   3 -25  -9    0.09    0.20
   3 -25  -9    0.02    0.19
   1 -25  -9    0.17    0.23
   1 -25  -9    0.10    0.20
  -1 -25  -9    0.00    0.18
  -1 -25  -9    0.18    0.23
  -3 -25  -9    0.39    0.23
  -3 -25  -9    0.31    0.29
  -5 -25  -9    0.19    0.25
  -5 -25  -9    0.02    0.20
  -7 -25  -9   -0.02    0.25
  -7 -25  -9    0.20    0.20
  -9 -25  -9    0.16    0.26
 -11 -25  -9   -0.10    0.24
  11  25   9   -0.19    0.20
 -13 -25  -9    0.02    0.22
  13  25   9    0.14    0.24
 -15 -25  -9    0.17    0.24
  15  25   9   -0.15    0.22
 -17 -25  -9    0.29    0.32
  17  25   9    0.22    0.28
  19  25   9   -0.30    0.25
  21 -27  -9    0.14    0.33
  19 -27  -9   -0.15    0.28
  17 -27  -9    0.28    0.31
  15 -27  -9   -0.37    0.25
  13 -27  -9   -0.19    0.24
  11 -27  -9    0.02    0.24
   9 -27  -9   -0.08    0.20
   7 -27  -9    0.01    0.20
   5 -27  -9    0.16    0.22
   5 -27  -9    0.27    0.25
   3 -27  -9   -0.19    0.18
   3 -27  -9   -0.06    0.21
   1 -27  -9   -0.17    0.23
   1 -27  -9    0.11    0.22
  -1 -27  -9   -0.03    0.20
  -1 -27  -9    0.10    0.24
  -3 -27  -9    0.01    0.20
  -3 -27  -9    0.08    0.22
  -5 -27  -9   -0.07    0.26
  -5 -27  -9    0.24    0.22
  -7 -27  -9    0.04    0.26
  -9 -27  -9    0.19    0.32
 -11 -27  -9   -0.03    0.26
  11  27   9    0.07    0.24
 -13 -27  -9   -0.01    0.32
  13  27   9   -0.26    0.21
  15  27   9    0.09    0.26
  19 -29  -9   -0.08    0.34
  17 -29  -9   -0.08    0.32
  15 -29  -9    0.02    0.32
  13 -29  -9    0.24    0.27
  11 -29  -9    0.02    0.27
   9 -29  -9    0.20    0.27
   5 -29  -9   -0.25    0.21
   3 -29  -9   -0.07    0.25
   1 -29  -9   -0.08    0.27
  -1 -29  -9    0.30    0.30
  -3 -29  -9    0.05    0.29
  -5 -29  -9   -0.01    0.26
  -7 -29  -9   -0.25    0.28
  -9 -29  -9   -0.04    0.30
  11  29   9   -0.17    0.22
   3 -31  -9   -0.20    0.25
   1 -31  -9    0.02    0.30
  -1 -31  -9   -0.25    0.26
  -3 -31  -9    0.21    0.33
  -4 -30  10    1.40    0.38
  -2 -30  10    6.06    0.64
   0 -30  10    0.67    0.30
   2 -30  10    6.08    0.67
   4 -30  10    0.85    0.37
 -14 -28  10    0.07    0.25
 -12 -28  10    0.36    0.29
 -10 -28  10    0.05    0.24
  -8 -28  10    0.37    0.27
  -6 -28  10   -0.18    0.22
  -4 -28  10    0.22    0.22
  -2 -28  10    0.35    0.27
   0 -28  10   -0.05    0.19
   2 -28  10    0.09    0.25
   4 -28  10    0.17    0.26
   6 -28  10   -0.05    0.24
   8 -28  10   -0.01    0.23
  10 -28  10    0.26    0.28
  12 -28  10    0.30    0.31
  14 -28  10    0.03    0.27
  22  26 -10    4.15    0.69
  20  26 -10   -0.31    0.32
  18  26 -10    2.35    0.55
  16  26 -10    0.21    0.33
 -16 -26  10    0.27    0.25
  14  26 -10    4.74    0.63
 -14 -26  10    4.32    0.54
  12  26 -10   -0.30    0.20
 -12 -26  10   -0.15    0.21
 -10 -26  10    3.81    0.51
  -8 -26  10    1.71    0.37
  -6 -26  10    5.64    0.58
  -4 -26  10    0.62    0.26
  -2 -26  10    5.71    0.55
   0 -26  10    1.25    0.33
   2 -26  10    4.84    0.55
   4 -26  10   -0.18    0.19
   6 -26  10    3.77    0.50
   8 -26  10    0.96    0.34
  10 -26  10    3.96    0.53
  12 -26  10    0.41    0.29
  14 -26  10    5.08    0.60
  16 -26  10    0.37    0.32
  18 -26  10    4.12    0.58
  24  24 -10    0.50    0.40
  22  24 -10   -0.04    0.31
  20  24 -10    0.38    0.35
  18  24 -10    0.11    0.28
  16  24 -10    0.89    0.35
 -16 -24  10    0.14    0.23
  14  24 -10    0.86    0.34
 -14 -24  10    0.86    0.29
  12  24 -10    0.21    0.26
 -12 -24  10   -0.07    0.21
  10  24 -10    0.50    0.27
 -10 -24  10   -0.25    0.19
   8  24 -10    0.60    0.34
  -8 -24  10    0.65    0.26
  -6 -24  10    1.18    0.33
  -4 -24  10    0.48    0.25
  -2 -24  10    0.78    0.27
   0 -24  10    0.14    0.20
   2 -24  10    0.23    0.21
   4 -24  10    0.43    0.26
   6 -24  10    0.85    0.29
   8 -24  10    0.32    0.26
  10 -24  10   -0.06    0.23
  12 -24  10    0.48    0.29
  14 -24  10    1.08    0.37
  16 -24  10    0.37    0.27
  18 -24  10    0.16    0.28
  20 -24  10    0.53    0.33
  26  22 -10    3.46    0.61
  24  22 -10    0.45    0.37
  22  22 -10    5.81    0.70
  20  22 -10   -0.05    0.30
  18  22 -10    3.98    0.58
  16  22 -10   -0.14    0.23
 -16 -22  10    0.27    0.24
  14  22 -10    6.78    0.66
 -14 -22  10    6.48    0.57
  12  22 -10    0.32    0.25
 -12 -22  10    0.10    0.18
  10  22 -10    9.69    0.72
 -10 -22  10    9.31    0.66
   8  22 -10    0.39    0.29
  -8 -22  10    0.52    0.25
   6  22 -10   17.35    0.95
  -6 -22  10   17.08    0.87
   4  22 -10    3.55    0.48
  -4 -22  10    3.75    0.44
  -2 -22  10   12.81    0.74
   0 -22  10    0.49    0.21
   2 -22  10   11.71    0.72
   4 -22  10    2.71    0.41
   6 -22  10   16.34    0.87
   8 -22  10    0.06    0.19
  10 -22  10    8.00    0.64
  12 -22  10    0.18    0.24
  14 -22  10    6.65    0.63
  16 -22  10    0.31    0.26
  18 -22  10    5.84    0.60
  20 -22  10   -0.23    0.25
  26  20 -10   -0.23    0.30
  24  20 -10    1.79    0.47
  22  20 -10    0.15    0.29
  20  20 -10    0.69    0.35
  18  20 -10   -0.02    0.24
  16  20 -10    0.33    0.29
 -16 -20  10    0.14    0.21
  14  20 -10    0.81    0.31
 -14 -20  10    1.48    0.32
  12  20 -10    0.24    0.25
 -12 -20  10    0.34    0.20
  10  20 -10    0.66    0.27
 -10 -20  10    0.59    0.24
   8  20 -10   -0.03    0.19
  -8 -20  10    0.10    0.17
   6  20 -10    0.29    0.24
  -6 -20  10    0.76    0.25
   4  20 -10    0.40    0.24
  -4 -20  10    0.27    0.17
   2  20 -10    0.31    0.22
  -2 -20  10   -0.04    0.15
   0 -20  10   -0.10    0.14
   2 -20  10    0.01    0.14
   4 -20  10    0.75    0.25
   6 -20  10    1.14    0.29
   8 -20  10    0.47    0.22
  10 -20  10    0.96    0.29
  12 -20  10    0.40    0.24
  14 -20  10    2.07    0.38
  16 -20  10    0.35    0.25
  18 -20  10    0.01    0.23
  20 -20  10    0.74    0.31
  22 -20  10    0.00    0.28
  26  18 -10    3.21    0.54
  24  18 -10    0.53    0.33
  22  18 -10    4.33    0.57
  20  18 -10    0.10    0.24
  18  18 -10    6.98    0.64
  16  18 -10    0.27    0.26
 -16 -18  10    0.40    0.19
  14  18 -10    9.38    0.68
 -14 -18  10    9.43    0.61
  12  18 -10    0.18    0.19
 -12 -18  10    0.42    0.19
  10  18 -10    8.00    0.60
 -10 -18  10    8.39    0.54
   8  18 -10    4.15    0.47
  -8 -18  10    3.43    0.38
   6  18 -10   14.84    0.79
  -6 -18  10   15.38    0.74
   4  18 -10    1.11    0.28
  -4 -18  10    0.98    0.24
   2  18 -10   13.11    0.72
  -2 -18  10   13.85    0.69
   0  18 -10    2.06    0.32
   0 -18  10    2.25    0.32
  -2  18 -10   14.05    0.72
   2 -18  10   14.14    0.73
   4 -18  10    1.22    0.26
   6 -18  10   13.16    0.71
   8 -18  10    3.92    0.42
  10 -18  10   10.17    0.66
  12 -18  10    0.12    0.19
  14 -18  10   10.09    0.68
  16 -18  10    0.42    0.25
  18 -18  10    7.32    0.62
  20 -18  10    0.06    0.25
  22 -18  10    3.84    0.53
  26  16 -10    0.37    0.31
  24  16 -10    0.03    0.29
  22  16 -10    0.61    0.34
  20  16 -10    0.47    0.29
  18  16 -10    0.54    0.27
  16  16 -10    0.24    0.23
  14  16 -10    0.08    0.19
 -14 -16  10   -0.04    0.15
  12  16 -10    0.37    0.22
 -12 -16  10    0.82    0.23
  10  16 -10   -0.05    0.16
 -10 -16  10   -0.01    0.14
   8  16 -10    0.25    0.20
  -8 -16  10    0.13    0.15
   6  16 -10    0.35    0.20
  -6 -16  10    0.47    0.19
   4  16 -10    0.01    0.14
  -4 -16  10   -0.10    0.10
   2  16 -10    3.51    0.37
  -2 -16  10    4.40    0.38
   0  16 -10    0.18    0.17
   0 -16  10    0.30    0.16
  -2  16 -10    4.53    0.39
   2 -16  10    4.31    0.39
   4 -16  10    0.08    0.13
   6 -16  10    0.67    0.22
   8 -16  10    0.40    0.20
  10 -16  10    0.13    0.17
  12 -16  10    0.33    0.19
  14 -16  10    0.32    0.18
  16 -16  10    0.38    0.22
  18 -16  10    0.41    0.24
  20 -16  10    0.53    0.27
  22 -16  10    0.22    0.26
  26  14 -10    6.13    0.65
  24  14 -10    0.92    0.33
  22  14 -10    5.69    0.57
  20  14 -10    1.44    0.34
  18  14 -10    9.40    0.67
  16  14 -10    0.15    0.20
  14  14 -10   12.62    0.73
 -14 -14  10   12.57    0.61
  12  14 -10    1.79    0.33
 -12 -14  10    1.85    0.27
  10  14 -10    8.88    0.58
 -10 -14  10    8.62    0.49
   8  14 -10    0.34    0.17
  -8 -14  10    0.09    0.12
   6  14 -10   17.68    0.80
  -6 -14  10   17.59    0.71
   4  14 -10   13.91    0.68
  -4 -14  10   13.42    0.61
   2  14 -10   14.40    0.68
  -2 -14  10   15.67    0.67
   0  14 -10    8.40    0.51
   0 -14  10    8.74    0.51
  -2  14 -10   15.78    0.68
   2 -14  10   16.06    0.70
  -4  14 -10   13.53    0.62
   4 -14  10   13.07    0.63
   6 -14  10   17.06    0.74
   8 -14  10    0.04    0.14
  10 -14  10   10.57    0.62
  12 -14  10    1.92    0.30
  14 -14  10   13.54    0.73
  14 -14  10   13.81    0.65
  16 -14  10    0.15    0.18
  16 -14  10    0.43    0.20
  18 -14  10   10.19    0.64
  18 -14  10    9.80    0.64
  20 -14  10    2.07    0.37
  20 -14  10    1.79    0.35
  22 -14  10    8.01    0.64
  22 -14  10    5.45    0.55
  24 -14  10    1.67    0.39
  24 -14  10    0.85    0.32
  26 -14  10    6.09    0.64
  28 -14  10    0.11    0.29
  30 -14  10    5.45    0.69
  32 -14  10    0.54    0.37
  26  12 -10    0.14    0.26
  24  12 -10    0.36    0.27
  22  12 -10    0.42    0.25
  20  12 -10    0.21    0.23
  18  12 -10    0.52    0.24
  16  12 -10    0.48    0.23
  14  12 -10    1.89    0.33
 -14 -12  10    2.09    0.25
  12  12 -10    0.62    0.22
 -12 -12  10    0.59    0.17
  10  12 -10   18.37    0.81
 -10 -12  10   17.92    0.68
   8  12 -10    0.12    0.14
  -8 -12  10   -0.09    0.09
   6  12 -10    0.16    0.15
  -6 -12  10   -0.03    0.10
   4  12 -10    1.18    0.23
  -4 -12  10    1.45    0.21
   2  12 -10    3.81    0.33
  -2 -12  10    4.28    0.33
   0  12 -10    0.09    0.11
   0 -12  10    0.17    0.11
  -2  12 -10    3.62    0.31
   2 -12  10    4.33    0.33
  -4  12 -10    0.67    0.18
   4 -12  10    1.31    0.22
  -6  12 -10    0.18    0.13
   6 -12  10   -0.16    0.08
   8 -12  10    0.27    0.15
   8 -12  10    0.16    0.10
  10 -12  10   18.75    0.78
  10 -12  10   17.77    0.65
  12 -12  10    0.62    0.21
  12 -12  10    0.51    0.17
  14 -12  10    1.79    0.30
  14 -12  10    2.25    0.29
  16 -12  10    0.25    0.18
  16 -12  10    0.77    0.25
  18 -12  10    0.41    0.21
  18 -12  10    0.62    0.25
  20 -12  10    0.40    0.23
  20 -12  10    0.32    0.21
  22 -12  10    0.15    0.22
  22 -12  10    0.34    0.24
  24 -12  10    0.09    0.24
  24 -12  10    0.08    0.24
  26 -12  10    0.41    0.27
  28 -12  10    0.29    0.30
  30 -12  10    0.69    0.37
  32 -12  10    0.06    0.33
  24  10 -10    0.03    0.24
  22  10 -10   10.69    0.73
  20  10 -10    0.90    0.29
  18  10 -10    9.39    0.65
  16  10 -10    0.37    0.20
  14  10 -10    8.54    0.58
 -14 -10  10    9.05    0.45
  12  10 -10   18.68    0.83
 -12 -10  10   19.57    0.68
  10  10 -10   10.27    0.58
 -10 -10  10    9.33    0.45
   8  10 -10    1.92    0.26
  -8 -10  10    1.83    0.21
   6  10 -10   32.31    1.03
  -6 -10  10   32.65    0.91
   4  10 -10    5.12    0.39
  -4 -10  10    5.50    0.34
   2  10 -10   19.16    0.71
  -2 -10  10   19.95    0.69
   0  10 -10    0.39    0.14
   0 -10  10    0.32    0.12
  -2  10 -10   19.33    0.68
   2 -10  10   19.07    0.69
  -4  10 -10    5.98    0.35
   4 -10  10    5.75    0.24
   4 -10  10    5.76    0.37
  -6  10 -10   34.07    0.93
   6 -10  10   34.37    0.84
   8 -10  10    1.84    0.24
   8 -10  10    2.13    0.21
  10 -10  10    9.89    0.46
  10 -10  10    9.38    0.53
  12 -10  10   18.19    0.77
  12 -10  10   18.55    0.71
  14 -10  10    8.30    0.50
  14 -10  10    8.28    0.53
  16 -10  10   -0.09    0.14
  16 -10  10   -0.07    0.15
  18 -10  10    8.78    0.59
  18 -10  10    7.06    0.53
  20 -10  10    1.15    0.31
  20 -10  10    0.88    0.28
  22 -10  10    9.76    0.67
  22 -10  10   10.24    0.70
  24 -10  10   -0.09    0.20
  24 -10  10    0.02    0.20
  26 -10  10    4.38    0.55
  28 -10  10   -0.03    0.27
  30 -10  10    4.89    0.63
  32 -10  10    0.35    0.36
  24   8 -10    0.12    0.22
  24   8 -10    0.58    0.31
  22   8 -10    0.11    0.21
  22   8 -10    0.13    0.20
  20   8 -10    0.36    0.21
  20   8 -10   -0.01    0.17
  18   8 -10    3.11    0.35
  18   8 -10    3.05    0.39
  16   8 -10    0.03    0.15
  16   8 -10    0.20    0.16
  14   8 -10    0.15    0.15
  14   8 -10    0.17    0.14
  12   8 -10    0.04    0.11
  12   8 -10    0.14    0.12
 -12  -8  10    0.01    0.08
  10   8 -10    2.72    0.30
  10   8 -10    2.23    0.21
 -10  -8  10    2.12    0.21
   8   8 -10    0.50    0.16
   8   8 -10    0.81    0.12
  -8  -8  10    0.64    0.13
   6   8 -10    0.17    0.13
  -6  -8  10    0.16    0.09
   4   8 -10    0.17    0.12
  -4  -8  10    0.06    0.07
   2   8 -10   11.50    0.51
  -2  -8  10   10.76    0.46
   0   8 -10    0.00    0.09
   0  -8  10    0.18    0.09
  -2   8 -10   11.02    0.46
   2  -8  10   11.52    0.49
  -4   8 -10    0.17    0.10
   4  -8  10    0.02    0.08
   4  -8  10    0.01    0.06
  -6   8 -10    0.26    0.10
   6  -8  10    0.19    0.11
   6  -8  10    0.19    0.09
  -8   8 -10    0.74    0.14
   8  -8  10    0.76    0.15
   8  -8  10    0.69    0.17
  10  -8  10    2.17    0.23
  10  -8  10    2.28    0.27
  12  -8  10    0.06    0.11
  12  -8  10   -0.10    0.08
  14  -8  10   -0.15    0.10
  14  -8  10    0.31    0.17
  16  -8  10    0.25    0.17
  16  -8  10    0.19    0.17
  18  -8  10    3.57    0.38
  18  -8  10    3.24    0.39
  20  -8  10    0.28    0.21
  20  -8  10    0.14    0.19
  22  -8  10    0.18    0.20
  22  -8  10   -0.06    0.19
  24  -8  10    0.57    0.28
  24  -8  10    1.13    0.32
  26  -8  10    1.54    0.38
  28  -8  10    0.49    0.31
  30  -8  10    0.68    0.37
  32  -8  10    0.51    0.38
  30   6 -10    4.27    0.62
  28   6 -10    0.40    0.31
  26   6 -10    4.88    0.55
  24   6 -10    0.84    0.30
  24   6 -10    0.69    0.31
  22   6 -10   16.14    0.85
  22   6 -10   17.88    0.89
  20   6 -10    0.77    0.26
  20   6 -10    0.59    0.24
  18   6 -10   15.50    0.78
  18   6 -10   14.95    0.71
  16   6 -10    0.40    0.19
  16   6 -10    0.65    0.20
  14   6 -10   17.92    0.70
  14   6 -10   19.56    0.83
  12   6 -10   -0.07    0.11
  12   6 -10    0.10    0.11
 -12  -6  10    0.16    0.08
  10   6 -10   32.81    0.88
  10   6 -10   31.99    1.05
 -10  -6  10   33.81    0.81
   8   6 -10    0.04    0.11
   8   6 -10    0.23    0.10
  -8  -6  10    0.29    0.09
   6   6 -10   75.86    1.79
   6   6 -10   76.75    1.49
  -6  -6  10   79.54    1.56
   4   6 -10    3.48    0.29
  -4  -6  10    3.71    0.24
   2   6 -10   37.68    1.01
  -2  -6  10   37.15    0.91
   0   6 -10   30.71    0.84
   0  -6  10   29.56    0.81
  -2   6 -10   37.30    0.95
   2  -6  10   38.99    0.99
  -4   6 -10    4.11    0.25
   4  -6  10    3.65    0.27
  -6   6 -10   79.13    1.57
   6  -6  10   79.15    1.60
   6  -6  10   76.69    1.72
  -8   6 -10    0.13    0.08
   8  -6  10    0.18    0.10
   8  -6  10    0.29    0.11
  10  -6  10   33.19    0.95
  10  -6  10   34.02    1.03
  12  -6  10    0.09    0.11
  12  -6  10    0.06    0.11
  14  -6  10   18.88    0.79
  14  -6  10   18.89    0.75
  16  -6  10    0.76    0.21
  16  -6  10   -0.12    0.13
  18  -6  10   14.84    0.73
  18  -6  10   13.75    0.72
  20  -6  10    0.11    0.20
  20  -6  10    0.58    0.24
  22  -6  10   15.09    0.80
  22  -6  10   15.68    0.84
  24  -6  10    0.76    0.28
  24  -6  10    0.20    0.26
  26  -6  10    3.56    0.50
  26  -6  10    5.34    0.54
  28  -6  10   -0.10    0.23
  30  -6  10    3.77    0.57
  32  -6  10    0.01    0.30
  34   4 -10   -0.18    0.40
  32   4 -10   -0.15    0.31
  30   4 -10    0.98    0.43
  28   4 -10    0.16    0.30
  26   4 -10    0.00    0.22
  24   4 -10    0.49    0.29
  24   4 -10    0.41    0.24
  22   4 -10    3.32    0.42
  22   4 -10    3.24    0.42
  20   4 -10    0.39    0.21
  20   4 -10    0.07    0.20
  18   4 -10    1.49    0.27
  18   4 -10    1.16    0.26
  16   4 -10    0.05    0.15
  16   4 -10   -0.08    0.14
  14   4 -10   13.92    0.69
  14   4 -10   14.45    0.63
  12   4 -10    0.64    0.20
  12   4 -10    1.16    0.19
 -12  -4  10    1.22    0.12
  10   4 -10    5.82    0.33
  10   4 -10    6.14    0.43
 -10  -4  10    5.35    0.25
   8   4 -10    0.15    0.09
   8   4 -10    0.07    0.11
  -8  -4  10    0.12    0.06
   6   4 -10    3.83    0.22
   6   4 -10    3.68    0.31
  -6  -4  10    4.06    0.22
   4   4 -10    0.49    0.13
   4   4 -10    0.40    0.08
  -4  -4  10    0.47    0.10
   2   4 -10    2.38    0.16
   2   4 -10    2.47    0.23
  -2  -4  10    2.14    0.18
   0   4 -10    0.06    0.08
   0  -4  10    0.03    0.06
  -2   4 -10    2.23    0.19
   2  -4  10    2.55    0.21
  -4   4 -10    0.45    0.10
   4  -4  10    0.27    0.10
  -6   4 -10    3.78    0.21
   6  -4  10    3.96    0.25
   6  -4  10    4.26    0.29
   8  -4  10    0.12    0.10
   8  -4  10    0.17    0.09
  10  -4  10    5.62    0.38
  10  -4  10    5.27    0.35
  12  -4  10    0.96    0.20
  12  -4  10    0.99    0.18
  14  -4  10   14.36    0.67
  14  -4  10   14.52    0.66
  16  -4  10   -0.03    0.13
  16  -4  10    0.02    0.14
  18  -4  10    1.35    0.27
  18  -4  10    1.35    0.27
  20  -4  10    0.14    0.19
  20  -4  10    0.47    0.23
  22  -4  10    2.84    0.39
  22  -4  10    2.66    0.39
  24  -4  10    0.41    0.23
  24  -4  10    0.09    0.20
  26  -4  10    0.52    0.27
  26  -4  10    0.10    0.23
  28  -4  10    0.25    0.26
  30  -4  10    1.11    0.38
  32  -4  10   -0.11    0.27
  34   2 -10    3.55    0.65
  32   2 -10   -0.21    0.31
  30   2 -10    6.59    0.70
  28   2 -10    0.11    0.29
  26   2 -10    6.84    0.66
  24   2 -10    0.78    0.28
  24   2 -10    0.71    0.31
  22   2 -10   12.89    0.78
  22   2 -10   13.51    0.76
  20   2 -10    0.09    0.19
  20   2 -10    0.16    0.17
  18   2 -10   13.72    0.70
  18   2 -10   13.61    0.72
  16   2 -10    3.50    0.35
  16   2 -10    3.59    0.37
  14   2 -10   15.79    0.72
  14   2 -10   14.96    0.65
  12   2 -10    4.02    0.36
  12   2 -10    4.45    0.33
  10   2 -10   19.36    0.65
  10   2 -10   20.50    0.77
 -10  -2  10   19.76    0.46
   8   2 -10   10.64    0.44
   8   2 -10   11.37    0.53
  -8  -2  10   11.43    0.33
   6   2 -10   35.39    1.03
   6   2 -10   38.32    0.90
  -6  -2  10   36.81    0.78
   4   2 -10    1.88    0.21
   4   2 -10    2.23    0.17
  -4  -2  10    2.48    0.17
   2   2 -10   38.55    1.00
   2   2 -10   38.10    0.86
  -2  -2  10   38.05    0.87
   0   2 -10   25.21    0.71
   0  -2  10   23.92    0.66
  -2   2 -10   39.11    0.94
   2  -2  10   38.88    0.96
  -4   2 -10    2.13    0.17
   4  -2  10    2.31    0.21
  -6   2 -10   38.06    0.82
   6  -2  10   36.55    1.00
   8  -2  10   10.69    0.46
   8  -2  10   11.11    0.50
  10  -2  10   19.19    0.68
  10  -2  10   19.88    0.73
  12  -2  10    5.40    0.37
  12  -2  10    3.16    0.31
  14  -2  10   14.54    0.67
  14  -2  10   15.16    0.67
  16  -2  10    3.61    0.36
  16  -2  10    3.74    0.37
  18  -2  10   13.64    0.70
  18  -2  10   12.99    0.69
  20  -2  10    0.05    0.16
  20  -2  10    0.20    0.16
  22  -2  10   11.38    0.68
  22  -2  10   12.65    0.74
 -24   2 -10    0.53    0.22
  24  -2  10    0.12    0.23
  24  -2  10    0.65    0.28
 -26   2 -10    5.01    0.50
  26  -2  10    5.64    0.59
  28  -2  10   -0.15    0.22
  30  -2  10    6.81    0.72
  32  -2  10    0.16    0.33
  34   0 -10    0.57    0.43
  32   0 -10    0.47    0.39
  30   0 -10    0.42    0.34
  28   0 -10   -0.13    0.29
  26   0 -10    2.38    0.45
  24   0 -10    0.05    0.25
  24   0 -10    0.20    0.22
  22   0 -10    0.45    0.24
  22   0 -10    0.38    0.22
  20   0 -10    0.02    0.20
  20   0 -10   -0.12    0.13
  18   0 -10    1.98    0.31
  18   0 -10    1.73    0.30
  16   0 -10   -0.08    0.12
  16   0 -10    0.16    0.16
  14   0 -10    8.74    0.53
  14   0 -10    9.35    0.52
  12   0 -10    0.14    0.12
  10   0 -10    0.45    0.14
   8   0 -10   -0.02    0.08
  -8   0  10    0.01    0.04
   6   0 -10   31.81    0.83
  -6   0  10   31.28    0.67
   4   0 -10    0.01    0.07
  -4   0  10    0.03    0.05
   2   0 -10   24.95    0.67
  -2   0  10   24.46    0.63
   0   0  10    0.02    0.06
   2   0  10   25.14    0.71
   4   0  10    0.02    0.07
   6   0  10   30.54    0.87
   8   0  10    0.10    0.09
   8   0  10    0.15    0.09
  10   0  10    0.77    0.17
  10   0  10    0.48    0.14
  12   0  10   -0.07    0.10
  12   0  10    0.05    0.09
  14   0  10    9.12    0.52
  14   0  10    7.96    0.49
  16   0  10    0.22    0.13
  16   0  10    0.11    0.15
  18   0  10    2.28    0.32
  18   0  10    2.60    0.34
 -20   0 -10    0.03    0.14
  20   0  10    0.04    0.13
  20   0  10    0.07    0.17
 -22   0 -10    0.25    0.17
  22   0  10    0.43    0.22
 -24   0 -10    0.07    0.18
  24   0  10    0.02    0.18
 -26   0 -10    1.93    0.37
  26   0  10    1.77    0.39
  28   0  10    0.36    0.26
  30   0  10    0.26    0.28
  32   0  10    0.06    0.29
  34  -2 -10    3.15    0.63
  32  -2 -10    0.08    0.36
  30  -2 -10    6.04    0.70
  28  -2 -10   -0.25    0.25
  26  -2 -10    5.73    0.63
  24  -2 -10    0.87    0.32
  24  -2 -10    0.66    0.26
  22  -2 -10   14.63    0.79
  22  -2 -10   13.71    0.83
  20  -2 -10    0.28    0.20
  20  -2 -10    0.39    0.23
  18  -2 -10   12.27    0.69
  18  -2 -10   13.16    0.68
  16  -2 -10    4.06    0.39
  14  -2 -10   14.75    0.67
  12  -2 -10    3.65    0.33
  10  -2 -10   19.21    0.69
   8  -2 -10   10.57    0.48
   6  -2 -10   38.34    0.98
   6  -2 -10   37.41    0.74
   4  -2 -10    2.35    0.21
  -4   2  10    2.36    0.15
   2  -2 -10   38.20    0.95
  -2   2  10   37.48    0.85
   0   2  10   23.72    0.65
   2   2  10   37.53    0.93
   4   2  10    2.65    0.22
   6   2  10   34.69    0.95
   8   2  10   10.89    0.50
  10   2  10   18.54    0.70
  10   2  10   20.68    0.74
  12   2  10    3.89    0.34
  12   2  10    3.72    0.33
  14   2  10   14.36    0.66
  14   2  10   14.75    0.68
 -16  -2 -10    3.85    0.36
  16   2  10    3.35    0.36
 -18  -2 -10   12.39    0.66
  18   2  10   12.30    0.68
 -20  -2 -10   -0.06    0.13
  20   2  10   -0.14    0.13
 -22  -2 -10   12.73    0.71
  22   2  10   11.61    0.74
 -24  -2 -10    0.62    0.24
  24   2  10    1.11    0.32
 -26  -2 -10    5.36    0.52
  26   2  10    6.21    0.60
  28   2  10    0.08    0.24
  30   2  10    5.82    0.67
  32   2  10    0.27    0.29
  34  -4 -10    0.19    0.42
  32  -4 -10    0.28    0.41
  30  -4 -10    1.76    0.48
  28  -4 -10    0.03    0.28
  26  -4 -10   -0.08    0.24
  24  -4 -10    0.40    0.24
  24  -4 -10    0.63    0.33
  22  -4 -10    2.81    0.37
  22  -4 -10    3.00    0.44
  20  -4 -10    0.47    0.24
  18  -4 -10    1.03    0.27
  16  -4 -10   -0.08    0.13
  14  -4 -10   12.97    0.64
  12  -4 -10    1.03    0.21
  10  -4 -10    5.73    0.38
   8  -4 -10    0.20    0.11
   8  -4 -10    0.11    0.04
   6  -4 -10    4.00    0.18
   6  -4 -10    3.83    0.29
   4  -4 -10    0.46    0.09
   4  -4 -10    0.38    0.12
   2  -4 -10    2.39    0.23
   2  -4 -10    2.19    0.17
   0  -4 -10    0.16    0.08
  -2  -4 -10    2.30    0.20
  -4  -4 -10    0.38    0.12
  -6  -4 -10    3.58    0.28
  -8  -4 -10    0.31    0.12
 -10  -4 -10    5.17    0.36
 -12  -4 -10    0.78    0.19
  12   4  10    1.19    0.21
 -14  -4 -10   13.45    0.63
  14   4  10   13.09    0.64
 -16  -4 -10   -0.08    0.11
  16   4  10    0.09    0.13
 -18  -4 -10    1.29    0.26
  18   4  10    0.48    0.20
 -20  -4 -10    0.25    0.17
  20   4  10    0.50    0.22
 -22  -4 -10    2.85    0.38
  22   4  10    3.47    0.44
 -24  -4 -10    0.24    0.20
  24   4  10    0.50    0.25
 -26  -4 -10    0.11    0.20
  26   4  10    0.10    0.21
 -28  -4 -10   -0.02    0.23
  28   4  10    0.32    0.29
  30   4  10    1.11    0.41
  32   4  10    0.10    0.32
  32  -6 -10   -0.30    0.36
  30  -6 -10    4.70    0.66
  28  -6 -10    0.02    0.28
  26  -6 -10    3.77    0.55
  24  -6 -10    1.10    0.36
  22  -6 -10   16.00    0.92
  20  -6 -10    0.82    0.28
  18  -6 -10   14.48    0.78
  16  -6 -10    0.32    0.20
  14  -6 -10   17.61    0.77
  12  -6 -10    0.05    0.13
  10  -6 -10   33.88    1.04
   8  -6 -10    0.21    0.13
   8  -6 -10    0.19    0.06
   6  -6 -10   73.06    1.67
   6  -6 -10   74.56    1.38
   4  -6 -10    3.65    0.29
   4  -6 -10    3.81    0.21
   2  -6 -10   36.49    0.85
   0  -6 -10   32.16    0.83
  -2  -6 -10   36.75    0.94
  -4  -6 -10    3.76    0.28
  -6  -6 -10   76.51    1.70
  -8  -6 -10    0.17    0.11
 -12  -6 -10   -0.05    0.09
 -14  -6 -10   17.51    0.75
 -16  -6 -10    0.48    0.19
  16   6  10    0.37    0.17
 -18  -6 -10   13.97    0.71
  18   6  10   13.71    0.74
 -20  -6 -10    0.71    0.24
  20   6  10    0.47    0.24
 -22  -6 -10   15.01    0.80
  22   6  10   15.76    0.87
 -24  -6 -10    1.03    0.31
  24   6  10    1.50    0.36
 -26  -6 -10    4.30    0.49
  26   6  10    4.47    0.56
 -28  -6 -10    0.35    0.27
  28   6  10    0.26    0.28
  30   6  10    3.34    0.57
  32   6  10    0.00    0.34
  32  -8 -10   -0.09    0.36
  30  -8 -10   -0.31    0.33
  28  -8 -10    0.04    0.27
  26  -8 -10    1.65    0.44
  24  -8 -10    1.11    0.37
  22  -8 -10    0.16    0.24
  20  -8 -10    0.22    0.24
  18  -8 -10    2.95    0.40
  16  -8 -10    0.15    0.19
  14  -8 -10    0.00    0.15
  12  -8 -10    0.05    0.13
  10  -8 -10    2.24    0.28
   8  -8 -10    0.73    0.11
   8  -8 -10    0.66    0.17
  -8   8  10    0.69    0.10
   6  -8 -10    0.16    0.08
   6  -8 -10    0.12    0.11
  -6   8  10    0.14    0.08
   4  -8 -10    0.10    0.08
   4  -8 -10    0.13    0.11
  -4   8  10    0.07    0.07
   2  -8 -10   11.95    0.53
   2  -8 -10   11.29    0.43
  -2   8  10   11.58    0.43
   0  -8 -10    0.08    0.10
   0   8  10    0.11    0.08
  -2  -8 -10   10.28    0.45
  -4  -8 -10    0.03    0.10
  -6  -8 -10    0.13    0.11
  -8  -8 -10    0.83    0.19
 -10  -8 -10    2.16    0.27
 -12  -8 -10   -0.01    0.11
 -14  -8 -10   -0.03    0.13
 -16  -8 -10    0.36    0.18
 -18  -8 -10    3.31    0.38
 -20  -8 -10    0.35    0.20
  20   8  10    0.15    0.21
 -22  -8 -10    0.28    0.22
  22   8  10    0.08    0.21
 -24  -8 -10    0.80    0.29
  24   8  10    1.06    0.33
 -26  -8 -10    0.65    0.28
  26   8  10    0.92    0.35
 -28  -8 -10   -0.28    0.22
  28   8  10    0.31    0.30
  30   8  10   -0.18    0.30
  32   8  10    0.25    0.34
  32 -10 -10    0.00    0.40
  30 -10 -10    4.96    0.69
  28 -10 -10    0.34    0.35
  26 -10 -10    2.37    0.50
  24 -10 -10    0.01    0.26
  22 -10 -10    8.93    0.70
  20 -10 -10    0.42    0.26
  18 -10 -10   10.53    0.70
  16 -10 -10    0.03    0.18
  14 -10 -10    8.80    0.59
  12 -10 -10   19.70    0.83
  10 -10 -10   10.73    0.58
   8 -10 -10    1.87    0.18
   8 -10 -10    2.34    0.28
   6 -10 -10   32.16    1.01
   6 -10 -10   32.78    0.82
   4 -10 -10    5.70    0.31
   4 -10 -10    5.60    0.39
   2 -10 -10   18.25    0.72
   2 -10 -10   18.48    0.61
  -2  10  10   20.09    0.63
   0 -10 -10    0.34    0.13
   0  10  10    0.73    0.15
  -2 -10 -10   20.54    0.70
   2  10  10   19.92    0.69
  -4 -10 -10    5.89    0.38
   4  10  10    6.65    0.39
  -6 -10 -10   35.51    1.04
   6  10  10   32.60    1.00
  -8 -10 -10    2.35    0.28
 -10 -10 -10    9.14    0.52
 -12 -10 -10   16.31    0.73
 -14 -10 -10    8.28    0.53
 -16 -10 -10    0.00    0.15
 -18 -10 -10    8.11    0.57
 -20 -10 -10    0.93    0.27
 -22 -10 -10   11.04    0.72
 -24 -10 -10   -0.02    0.20
 -26 -10 -10    3.78    0.50
 -28 -10 -10    0.14    0.27
  30 -12 -10    0.06    0.36
  28 -12 -10   -0.21    0.32
  26 -12 -10    0.04    0.32
  24 -12 -10    0.24    0.30
  22 -12 -10    0.00    0.23
  20 -12 -10    0.54    0.26
  18 -12 -10    0.23    0.21
  16 -12 -10    0.38    0.22
  14 -12 -10    1.81    0.31
  12 -12 -10    0.51    0.22
  10 -12 -10   18.76    0.81
   8 -12 -10    0.22    0.14
   8 -12 -10    0.05    0.10
   6 -12 -10    0.12    0.11
   6 -12 -10    0.15    0.13
   4 -12 -10    1.38    0.18
   4 -12 -10    1.09    0.21
   2 -12 -10    3.52    0.29
   2 -12 -10    4.14    0.36
   0 -12 -10   -0.07    0.09
   0 -12 -10   -0.03    0.09
   0  12  10    0.13    0.11
  -2 -12 -10    3.60    0.30
   2  12  10    3.17    0.29
  -4 -12 -10    0.94    0.19
   4  12  10    1.08    0.20
  -6 -12 -10    0.19    0.14
   6  12  10    0.12    0.12
  -8 -12 -10    0.18    0.15
   8  12  10    0.05    0.11
 -10 -12 -10   17.25    0.78
 -12 -12 -10    0.65    0.22
 -14 -12 -10    1.87    0.31
 -16 -12 -10    0.45    0.22
 -18 -12 -10    0.09    0.18
 -20 -12 -10    0.40    0.21
 -22 -12 -10    0.55    0.26
 -24 -12 -10    0.25    0.23
 -26 -12 -10    0.10    0.23
 -28 -12 -10    0.50    0.31
  30 -14 -10    4.23    0.68
  28 -14 -10    0.39    0.34
  26 -14 -10    4.38    0.62
  24 -14 -10    0.95    0.38
  22 -14 -10    6.07    0.62
  20 -14 -10    1.85    0.38
  18 -14 -10    9.56    0.68
  16 -14 -10    0.26    0.22
  14 -14 -10   13.15    0.75
  12 -14 -10    1.77    0.32
  10 -14 -10    8.74    0.58
   8 -14 -10    0.20    0.15
   8 -14 -10    0.10    0.12
   6 -14 -10   17.23    0.64
   6 -14 -10   18.37    0.77
   4 -14 -10   13.07    0.64
   4 -14 -10   12.76    0.55
   2 -14 -10   15.11    0.69
   2 -14 -10   15.00    0.61
   0 -14 -10    8.80    0.49
   0 -14 -10    8.78    0.52
  -2 -14 -10   15.14    0.65
  -4 -14 -10   13.87    0.65
   4  14  10   15.16    0.66
  -6 -14 -10   18.63    0.78
   6  14  10   19.07    0.78
  -8 -14 -10    0.08    0.16
   8  14  10    0.30    0.16
 -10 -14 -10    8.23    0.54
  10  14  10    7.82    0.52
 -12 -14 -10    2.36    0.33
  12  14  10    1.64    0.29
 -14 -14 -10   14.36    0.75
 -16 -14 -10    0.14    0.17
 -18 -14 -10   11.05    0.71
 -20 -14 -10    1.01    0.31
 -22 -14 -10    6.04    0.57
 -24 -14 -10    0.83    0.32
 -26 -14 -10    5.92    0.61
 -28 -14 -10    0.23    0.29
  28 -16 -10    0.83    0.42
  26 -16 -10    0.40    0.33
  24 -16 -10    0.11    0.27
  22 -16 -10    0.02    0.26
  20 -16 -10    0.55    0.30
  18 -16 -10    0.28    0.24
  16 -16 -10    0.57    0.25
  14 -16 -10    0.25    0.19
  12 -16 -10    0.29    0.19
  10 -16 -10    0.09    0.17
   8 -16 -10    0.31    0.18
   8 -16 -10    0.40    0.16
   6 -16 -10    0.37    0.18
   6 -16 -10    0.44    0.17
   4 -16 -10    0.16    0.15
   4 -16 -10    0.03    0.15
   2 -16 -10    3.64    0.34
   2 -16 -10    4.14    0.39
   0 -16 -10    0.49    0.18
   0 -16 -10   -0.07    0.13
  -2 -16 -10    4.31    0.39
  -4 -16 -10    0.03    0.15
  -6 -16 -10    0.75    0.23
   6  16  10    0.37    0.17
  -8 -16 -10    0.23    0.19
   8  16  10    0.08    0.13
 -10 -16 -10    0.10    0.18
  10  16  10    0.02    0.13
 -12 -16 -10    0.60    0.23
  12  16  10    0.12    0.15
 -14 -16 -10    0.04    0.17
 -16 -16 -10    0.39    0.21
 -18 -16 -10    0.33    0.23
 -20 -16 -10    0.19    0.23
 -22 -16 -10    0.07    0.22
 -24 -16 -10    0.54    0.32
 -26 -16 -10   -0.12    0.25
  28 -18 -10    0.15    0.33
  26 -18 -10    3.36    0.60
  24 -18 -10    0.03    0.28
  22 -18 -10    4.41    0.58
  20 -18 -10   -0.11    0.21
  18 -18 -10    8.60    0.68
  16 -18 -10    0.33    0.26
  14 -18 -10    9.69    0.68
  12 -18 -10    0.33    0.21
  10 -18 -10    7.80    0.57
   8 -18 -10    3.53    0.34
   8 -18 -10    3.12    0.39
   6 -18 -10   13.09    0.62
   6 -18 -10   13.89    0.72
   4 -18 -10    1.26    0.26
   4 -18 -10    0.75    0.23
   2 -18 -10   13.82    0.72
   2 -18 -10   14.31    0.68
   0 -18 -10    2.32    0.32
   0 -18 -10    2.23    0.32
  -2 -18 -10   13.67    0.71
  -2 -18 -10   14.41    0.72
  -4 -18 -10    1.04    0.27
  -6 -18 -10   14.73    0.78
   6  18  10   14.66    0.74
  -8 -18 -10    2.84    0.39
   8  18  10    3.69    0.41
 -10 -18 -10    9.07    0.63
  10  18  10    8.14    0.57
 -12 -18 -10    0.95    0.29
  12  18  10    0.34    0.20
 -14 -18 -10   10.22    0.69
  14  18  10    9.51    0.67
 -16 -18 -10    0.36    0.23
 -18 -18 -10    7.98    0.66
 -20 -18 -10   -0.24    0.19
 -22 -18 -10    4.77    0.56
 -24 -18 -10   -0.21    0.24
  26 -20 -10    0.31    0.36
  24 -20 -10    1.23    0.40
  22 -20 -10   -0.05    0.28
  20 -20 -10    0.41    0.31
  18 -20 -10   -0.15    0.22
  16 -20 -10    0.44    0.26
  14 -20 -10    1.55    0.35
  12 -20 -10    0.68    0.27
  10 -20 -10    0.81    0.27
   8 -20 -10    0.03    0.19
   6 -20 -10    0.00    0.15
   6 -20 -10    0.53    0.22
   4 -20 -10    0.38    0.21
   4 -20 -10    0.17    0.19
   2 -20 -10   -0.10    0.17
   2 -20 -10   -0.04    0.17
   0 -20 -10    0.16    0.18
   0 -20 -10    0.00    0.18
  -2 -20 -10    0.05    0.16
  -2 -20 -10    0.02    0.19
  -4 -20 -10    0.31    0.23
  -6 -20 -10    1.09    0.29
  -8 -20 -10    0.25    0.22
   8  20  10    0.14    0.18
 -10 -20 -10    1.60    0.36
  10  20  10    0.52    0.23
 -12 -20 -10    0.62    0.28
  12  20  10    0.64    0.26
 -14 -20 -10    1.87    0.37
  14  20  10    1.52    0.34
 -16 -20 -10    0.68    0.28
  16  20  10    0.06    0.22
 -18 -20 -10    0.01    0.20
 -20 -20 -10    0.69    0.31
 -22 -20 -10    0.24    0.26
  26 -22 -10    3.36    0.62
  24 -22 -10    0.15    0.34
  22 -22 -10    4.90    0.65
  20 -22 -10    0.27    0.29
  18 -22 -10    5.02    0.59
  16 -22 -10    0.00    0.24
  14 -22 -10    5.36    0.56
  12 -22 -10   -0.19    0.17
  10 -22 -10   10.24    0.70
   8 -22 -10    0.12    0.19
   6 -22 -10   15.57    0.76
   6 -22 -10   15.01    0.82
   4 -22 -10    2.82    0.39
   4 -22 -10    2.86    0.38
   2 -22 -10   13.63    0.76
   2 -22 -10   11.90    0.68
   0 -22 -10    0.09    0.20
   0 -22 -10    0.06    0.21
  -2 -22 -10   12.73    0.74
  -2 -22 -10   11.74    0.71
  -4 -22 -10    3.53    0.42
  -4 -22 -10    2.98    0.43
  -6 -22 -10   16.67    0.90
  -8 -22 -10    0.18    0.24
   8  22  10    0.37    0.22
 -10 -22 -10   10.97    0.74
  10  22  10   10.14    0.71
 -12 -22 -10    0.27    0.24
  12  22  10    0.28    0.23
 -14 -22 -10    4.68    0.54
  14  22  10    6.48    0.61
 -16 -22 -10    0.14    0.26
  16  22  10    0.01    0.22
 -18 -22 -10    5.18    0.61
 -20 -22 -10    0.21    0.26
  24 -24 -10    0.61    0.38
  22 -24 -10    0.27    0.33
  20 -24 -10    1.14    0.42
  18 -24 -10    0.19    0.30
  16 -24 -10    0.73    0.34
  14 -24 -10    0.76    0.31
  12 -24 -10    0.26    0.25
  10 -24 -10   -0.09    0.18
   8 -24 -10    0.62    0.27
   6 -24 -10    1.33    0.31
   6 -24 -10    0.60    0.28
   4 -24 -10    0.32    0.23
   4 -24 -10    0.59    0.26
   2 -24 -10    0.41    0.25
   2 -24 -10    0.46    0.27
   0 -24 -10    0.08    0.16
   0 -24 -10    0.03    0.20
  -2 -24 -10    0.36    0.27
  -2 -24 -10    0.34    0.24
  -4 -24 -10    0.43    0.25
  -4 -24 -10    0.19    0.27
  -6 -24 -10    1.02    0.30
  -6 -24 -10    1.61    0.38
  -8 -24 -10    0.68    0.32
   8  24  10    0.94    0.34
 -10 -24 -10    0.02    0.26
  10  24  10    0.00    0.21
 -12 -24 -10    0.77    0.33
  12  24  10    0.31    0.25
 -14 -24 -10    0.85    0.33
  14  24  10    0.67    0.31
 -16 -24 -10    0.73    0.34
  16  24  10    0.51    0.34
 -18 -24 -10   -0.17    0.23
  18  24  10    0.08    0.28
  22 -26 -10    3.51    0.61
  20 -26 -10    0.16    0.31
  18 -26 -10    2.59    0.52
  16 -26 -10    0.18    0.28
  14 -26 -10    6.25    0.65
  12 -26 -10    0.17    0.24
  10 -26 -10    4.52    0.53
   8 -26 -10    0.38    0.27
   6 -26 -10    4.24    0.49
   4 -26 -10    0.16    0.20
   4 -26 -10    0.32    0.26
   2 -26 -10    4.75    0.50
   2 -26 -10    5.26    0.54
   0 -26 -10    1.49    0.36
   0 -26 -10    1.58    0.35
  -2 -26 -10    4.10    0.48
  -2 -26 -10    5.16    0.56
  -4 -26 -10   -0.07    0.22
  -4 -26 -10    0.10    0.22
  -6 -26 -10    4.87    0.59
  -6 -26 -10    4.39    0.50
  -8 -26 -10    0.96    0.37
  -8 -26 -10    0.95    0.33
   8  26  10    1.28    0.36
 -10 -26 -10    4.35    0.59
  10  26  10    4.40    0.55
 -12 -26 -10   -0.01    0.29
  12  26  10    0.14    0.23
 -14 -26 -10    4.52    0.60
  14  26  10    5.77    0.64
  16  26  10    0.00    0.25
  20 -28 -10    0.99    0.43
  18 -28 -10    0.01    0.31
  16 -28 -10    0.16    0.29
  14 -28 -10    0.03    0.28
  12 -28 -10    0.47    0.29
  10 -28 -10    0.14    0.23
   8 -28 -10    0.42    0.30
   6 -28 -10   -0.11    0.23
   4 -28 -10   -0.16    0.23
   4 -28 -10   -0.01    0.23
   2 -28 -10    0.22    0.26
   2 -28 -10    0.53    0.27
   0 -28 -10   -0.01    0.21
   0 -28 -10    0.17    0.28
  -2 -28 -10    0.47    0.27
  -2 -28 -10    0.04    0.26
  -4 -28 -10   -0.31    0.24
  -6 -28 -10    0.07    0.28
  -8 -28 -10    0.34    0.33
   8  28  10   -0.03    0.23
 -10 -28 -10    0.56    0.32
  10  28  10    0.29    0.26
  12  28  10    0.22    0.27
  18 -30 -10    2.55    0.54
  16 -30 -10    0.04    0.31
  14 -30 -10    4.57    0.61
   4 -30 -10    0.89    0.36
   2 -30 -10    6.79    0.65
   0 -30 -10    0.20    0.29
  -2 -30 -10    5.83    0.64
  -4 -30 -10    0.93    0.39
  -6 -30 -10    3.89    0.59
   8  30  10   -0.10    0.25
   2 -32 -10    0.27    0.33
  -9 -29  11   -0.21    0.22
  -7 -29  11    0.38    0.29
  -5 -29  11   -0.03    0.20
  -3 -29  11    0.09    0.23
  -1 -29  11   -0.06    0.21
   1 -29  11   -0.16    0.22
   3 -29  11    0.13    0.28
   5 -29  11   -0.15    0.25
   7 -29  11   -0.05    0.28
  19  27 -11   -0.03    0.34
  17  27 -11    0.32    0.36
  15  27 -11    0.28    0.32
 -15 -27  11    0.47    0.29
 -13 -27  11    0.31    0.25
 -11 -27  11   -0.25    0.19
  -9 -27  11    0.07    0.22
  -7 -27  11    0.12    0.21
  -5 -27  11    0.14    0.20
  -3 -27  11    0.11    0.20
  -1 -27  11   -0.16    0.16
   1 -27  11   -0.04    0.21
   3 -27  11   -0.03    0.26
   5 -27  11   -0.15    0.19
   7 -27  11    0.08    0.25
   9 -27  11    0.33    0.26
  11 -27  11    0.24    0.28
  13 -27  11    0.17    0.29
  15 -27  11    0.16    0.30
  23  25 -11   -0.39    0.34
  21  25 -11    0.08    0.32
  19  25 -11    0.07    0.32
  17  25 -11   -0.16    0.26
  15  25 -11    0.23    0.33
 -15 -25  11    0.61    0.29
  13  25 -11   -0.17    0.24
 -13 -25  11   -0.18    0.21
  11  25 -11   -0.09    0.25
 -11 -25  11    0.11    0.22
   9  25 -11   -0.08    0.28
  -9 -25  11    0.04    0.20
   7  25 -11   -0.05    0.24
  -7 -25  11    0.15    0.18
  -5 -25  11    0.10    0.20
  -3 -25  11    0.16    0.18
  -1 -25  11   -0.01    0.18
   1 -25  11    0.09    0.19
   3 -25  11    0.21    0.23
   5 -25  11    0.07    0.22
   7 -25  11   -0.23    0.19
   9 -25  11    0.09    0.23
  11 -25  11    0.00    0.22
  13 -25  11    0.06    0.24
  15 -25  11    0.96    0.37
  17 -25  11   -0.04    0.27
  19 -25  11    0.52    0.36
  25  23 -11    0.02    0.36
  23  23 -11   -0.28    0.27
  21  23 -11   -0.03    0.31
  19  23 -11   -0.03    0.28
  17  23 -11    0.71    0.34
  15  23 -11    0.11    0.28
 -15 -23  11    0.32    0.24
  13  23 -11   -0.19    0.21
 -13 -23  11    0.01    0.21
  11  23 -11    0.26    0.25
 -11 -23  11    0.01    0.19
   9  23 -11    0.09    0.25
  -9 -23  11    0.20    0.18
   7  23 -11   -0.09    0.22
  -7 -23  11    0.06    0.18
   5  23 -11    1.02    0.36
  -5 -23  11    0.74    0.26
  -3 -23  11   -0.07    0.16
  -1 -23  11   -0.33    0.15
   1 -23  11   -0.10    0.15
   3 -23  11   -0.05    0.17
   5 -23  11    0.21    0.19
   7 -23  11   -0.12    0.19
   9 -23  11   -0.02    0.19
  11 -23  11   -0.13    0.22
  13 -23  11    0.19    0.26
  15 -23  11   -0.06    0.23
  17 -23  11   -0.13    0.22
  19 -23  11    0.37    0.30
  21 -23  11    0.24    0.29
  25  21 -11    0.28    0.37
  23  21 -11   -0.32    0.27
  21  21 -11    0.03    0.28
  19  21 -11    0.12    0.31
  17  21 -11   -0.31    0.23
  15  21 -11    0.70    0.32
 -15 -21  11    0.54    0.25
  13  21 -11    0.00    0.21
 -13 -21  11   -0.18    0.14
  11  21 -11    0.00    0.22
 -11 -21  11   -0.01    0.16
   9  21 -11    1.14    0.35
  -9 -21  11    0.57    0.23
   7  21 -11    1.45    0.38
  -7 -21  11    1.63    0.31
   5  21 -11    0.26    0.24
  -5 -21  11   -0.06    0.16
   3  21 -11    0.71    0.28
  -3 -21  11    0.58    0.22
   1  21 -11    0.26    0.23
  -1 -21  11    0.11    0.17
   1 -21  11    0.24    0.20
   3 -21  11    0.72    0.26
   5 -21  11    0.04    0.17
   7 -21  11    1.15    0.32
   9 -21  11    0.52    0.26
  11 -21  11   -0.06    0.20
  13 -21  11   -0.02    0.20
  15 -21  11    0.36    0.27
  17 -21  11    0.20    0.25
  19 -21  11   -0.11    0.25
  21 -21  11    0.17    0.26
  25  19 -11   -0.15    0.30
  23  19 -11   -0.08    0.26
  21  19 -11    0.41    0.31
  19  19 -11    0.05    0.23
  17  19 -11    0.10    0.23
  15  19 -11    0.28    0.24
 -15 -19  11    0.32    0.20
  13  19 -11    0.13    0.21
 -13 -19  11   -0.16    0.13
  11  19 -11    0.03    0.21
 -11 -19  11   -0.11    0.12
   9  19 -11    0.30    0.26
  -9 -19  11    0.23    0.17
   7  19 -11   -0.09    0.19
  -7 -19  11    0.08    0.15
   5  19 -11    0.00    0.19
  -5 -19  11    0.12    0.16
   3  19 -11    0.28    0.23
  -3 -19  11    0.23    0.17
   1  19 -11    1.55    0.32
  -1 -19  11    1.39    0.30
  -1  19 -11    1.91    0.35
   1 -19  11    1.48    0.30
   3 -19  11    0.21    0.15
   5 -19  11    0.01    0.15
   7 -19  11    0.17    0.18
   9 -19  11    0.20    0.20
  11 -19  11   -0.28    0.15
  13 -19  11    0.24    0.21
  15 -19  11    0.34    0.24
  17 -19  11    0.09    0.24
  19 -19  11    0.23    0.24
  21 -19  11    0.17    0.27
  23 -19  11   -0.12    0.27
  25  17 -11    0.07    0.26
  23  17 -11    0.29    0.31
  21  17 -11   -0.13    0.23
  19  17 -11   -0.08    0.22
  17  17 -11   -0.02    0.21
  15  17 -11    0.25    0.24
 -15 -17  11    0.84    0.23
  13  17 -11    0.43    0.27
 -13 -17  11    1.05    0.24
  11  17 -11   -0.01    0.18
 -11 -17  11   -0.19    0.13
   9  17 -11    0.40    0.21
  -9 -17  11   -0.03    0.13
   7  17 -11    0.19    0.23
  -7 -17  11    0.04    0.14
   5  17 -11    0.17    0.18
  -5 -17  11    0.14    0.14
   3  17 -11    0.60    0.25
  -3 -17  11    0.64    0.20
   1  17 -11   -0.13    0.14
  -1 -17  11    0.22    0.15
  -1  17 -11    0.08    0.18
   1 -17  11    0.08    0.12
  -3  17 -11    1.08    0.26
   3 -17  11    0.74    0.22
   5 -17  11    0.04    0.13
   7 -17  11    0.05    0.17
   9 -17  11    0.02    0.16
  11 -17  11   -0.29    0.17
  13 -17  11    0.41    0.22
  15 -17  11    0.63    0.26
  17 -17  11    0.10    0.21
  19 -17  11    0.05    0.22
  21 -17  11    0.47    0.29
  23 -17  11    0.41    0.31
  25  15 -11    0.61    0.35
  23  15 -11   -0.05    0.24
  21  15 -11    0.68    0.30
  19  15 -11    0.32    0.25
  17  15 -11    0.51    0.25
  15  15 -11    0.01    0.17
  13  15 -11    0.14    0.21
 -13 -15  11    0.14    0.14
  11  15 -11   -0.11    0.16
 -11 -15  11   -0.14    0.11
   9  15 -11    0.21    0.18
  -9 -15  11    0.10    0.12
   7  15 -11   -0.04    0.15
  -7 -15  11    0.07    0.12
   5  15 -11    1.12    0.27
  -5 -15  11    0.89    0.22
   3  15 -11    0.02    0.14
  -3 -15  11    0.14    0.13
   1  15 -11    0.82    0.22
  -1 -15  11    1.63    0.26
  -1  15 -11    0.98    0.23
   1 -15  11    1.33    0.24
  -3  15 -11    0.16    0.16
   3 -15  11    0.02    0.11
  -5  15 -11    1.11    0.23
   5 -15  11    0.73    0.21
   7 -15  11   -0.10    0.12
   9 -15  11    0.15    0.18
  11 -15  11   -0.07    0.13
  13 -15  11    0.31    0.18
  15 -15  11    0.19    0.19
  17 -15  11    0.62    0.26
  19 -15  11    0.28    0.24
  21 -15  11    0.64    0.30
  23 -15  11    0.06    0.25
  25 -15  11    0.60    0.31
  27 -15  11    0.31    0.29
  29 -15  11    0.23    0.29
  31 -15  11    0.29    0.34
  25  13 -11   -0.09    0.24
  23  13 -11    0.02    0.24
  21  13 -11   -0.03    0.19
  19  13 -11   -0.02    0.19
  17  13 -11    0.82    0.28
  15  13 -11    0.11    0.18
  13  13 -11    0.04    0.17
 -13 -13  11    0.07    0.12
  11  13 -11    0.10    0.15
 -11 -13  11    0.06    0.11
   9  13 -11    0.21    0.16
  -9 -13  11    0.73    0.17
   7  13 -11    0.19    0.18
  -7 -13  11    0.15    0.11
   5  13 -11    2.51    0.31
  -5 -13  11    2.48    0.27
   3  13 -11    3.00    0.33
  -3 -13  11    2.13    0.26
   1  13 -11   -0.11    0.11
  -1 -13  11    0.04    0.11
  -1  13 -11   -0.15    0.13
   1 -13  11    0.00    0.10
  -3  13 -11    2.42    0.28
   3 -13  11    3.04    0.31
  -5  13 -11    2.87    0.30
   5 -13  11    3.10    0.32
   7 -13  11    0.28    0.16
   9 -13  11    0.39    0.18
  11 -13  11   -0.09    0.12
  13 -13  11   -0.11    0.10
  13 -13  11   -0.10    0.14
  15 -13  11    0.34    0.18
  15 -13  11    0.08    0.17
  17 -13  11    1.23    0.29
  17 -13  11    0.38    0.20
  19 -13  11    0.15    0.19
  19 -13  11   -0.15    0.16
  21 -13  11    0.03    0.22
  21 -13  11   -0.09    0.17
  23 -13  11    0.03    0.21
  23 -13  11    0.01    0.25
  25 -13  11    0.14    0.25
  25 -13  11   -0.08    0.23
  27 -13  11   -0.28    0.24
  29 -13  11    0.00    0.27
  31 -13  11    0.23    0.35
  25  11 -11    0.11    0.23
  23  11 -11    0.45    0.26
  21  11 -11   -0.24    0.16
  19  11 -11   -0.10    0.17
  17  11 -11   -0.05    0.18
  15  11 -11    0.03    0.15
  13  11 -11   -0.06    0.13
 -13 -11  11    0.06    0.10
  11  11 -11   -0.02    0.14
 -11 -11  11    0.22    0.13
   9  11 -11    0.04    0.13
  -9 -11  11    0.03    0.09
   7  11 -11   -0.28    0.10
  -7 -11  11   -0.04    0.08
   5  11 -11   -0.04    0.10
  -5 -11  11   -0.09    0.08
   3  11 -11    0.11    0.12
  -3 -11  11    0.04    0.10
   1  11 -11    0.02    0.11
  -1 -11  11    0.07    0.09
  -1  11 -11   -0.10    0.10
   1 -11  11    0.07    0.10
  -3  11 -11    0.04    0.11
   3 -11  11   -0.02    0.09
  -5  11 -11    0.06    0.11
   5 -11  11   -0.13    0.08
  -7  11 -11    0.24    0.13
   7 -11  11   -0.02    0.10
   7 -11  11    0.03    0.08
   9 -11  11   -0.01    0.09
   9 -11  11   -0.06    0.12
  11 -11  11   -0.04    0.09
  11 -11  11   -0.10    0.13
  13 -11  11   -0.03    0.11
  13 -11  11    0.15    0.16
  15 -11  11    0.00    0.16
  15 -11  11    0.06    0.14
  17 -11  11   -0.10    0.13
  17 -11  11   -0.09    0.16
  19 -11  11    0.04    0.17
  19 -11  11    0.09    0.17
  21 -11  11   -0.15    0.19
  21 -11  11   -0.06    0.18
  23 -11  11   -0.05    0.19
  23 -11  11    0.03    0.19
  25 -11  11    0.03    0.25
  25 -11  11   -0.02    0.21
  27 -11  11    0.03    0.25
  29 -11  11    0.29    0.32
  31 -11  11    0.05    0.31
  25   9 -11   -0.11    0.22
  23   9 -11   -0.03    0.21
  21   9 -11    0.83    0.28
  19   9 -11   -0.03    0.17
  17   9 -11    0.17    0.18
  15   9 -11    0.06    0.16
  13   9 -11    0.54    0.20
 -13  -9  11    0.44    0.13
  11   9 -11   -0.17    0.10
 -11  -9  11    0.05    0.09
   9   9 -11    0.04    0.12
  -9  -9  11   -0.01    0.08
   7   9 -11    1.10    0.23
  -7  -9  11    1.44    0.19
   5   9 -11   -0.08    0.09
  -5  -9  11   -0.01    0.08
   3   9 -11    1.89    0.24
  -3  -9  11    1.57    0.20
   1   9 -11    3.74    0.30
  -1  -9  11    3.09    0.27
  -1   9 -11    2.54    0.25
   1  -9  11    2.96    0.26
  -3   9 -11    1.28    0.18
   3  -9  11    1.61    0.21
  -5   9 -11   -0.17    0.08
   5  -9  11    0.02    0.06
   5  -9  11    0.00    0.09
  -7   9 -11    1.40    0.18
   7  -9  11    1.37    0.16
   7  -9  11    1.01    0.19
   9  -9  11   -0.10    0.07
   9  -9  11   -0.04    0.08
  11  -9  11   -0.06    0.12
  11  -9  11    0.01    0.09
  13  -9  11    0.33    0.15
  13  -9  11    0.33    0.17
  15  -9  11    0.13    0.13
  15  -9  11    0.22    0.17
  17  -9  11    0.02    0.14
  17  -9  11   -0.01    0.16
  19  -9  11    0.14    0.20
  19  -9  11    0.35    0.21
  21  -9  11    1.56    0.33
  21  -9  11    0.84    0.26
  23  -9  11   -0.01    0.21
  23  -9  11    0.20    0.22
  25  -9  11    0.07    0.24
  25  -9  11   -0.20    0.18
  27  -9  11    0.07    0.24
  29  -9  11   -0.11    0.25
  31  -9  11    0.62    0.37
  25   7 -11    0.18    0.27
  25   7 -11   -0.11    0.20
  23   7 -11   -0.04    0.22
  23   7 -11    0.01    0.19
  21   7 -11    1.48    0.31
  21   7 -11    1.60    0.33
  19   7 -11   -0.12    0.15
  19   7 -11   -0.08    0.17
  17   7 -11    0.19    0.17
  17   7 -11   -0.07    0.13
  15   7 -11   -0.03    0.13
  15   7 -11    0.06    0.14
  13   7 -11    0.34    0.14
  13   7 -11    0.25    0.16
  11   7 -11   -0.04    0.10
  11   7 -11    0.02    0.11
 -11  -7  11   -0.02    0.07
   9   7 -11    1.60    0.24
   9   7 -11    1.36    0.17
  -9  -7  11    1.51    0.17
   7   7 -11   -0.03    0.07
   7   7 -11    0.19    0.12
  -7  -7  11    0.02    0.07
   5   7 -11    0.55    0.16
   5   7 -11    1.24    0.12
  -5  -7  11    1.39    0.17
   3   7 -11   -0.10    0.09
  -3  -7  11    0.05    0.08
   1   7 -11    4.02    0.31
  -1  -7  11    3.33    0.25
  -1   7 -11    3.86    0.29
   1  -7  11    3.89    0.28
  -3   7 -11    0.10    0.09
   3  -7  11    0.06    0.08
  -5   7 -11    1.28    0.16
   5  -7  11    1.31    0.19
   5  -7  11    1.56    0.15
  -7   7 -11   -0.08    0.07
   7  -7  11   -0.09    0.07
   7  -7  11    0.02    0.07
  -9   7 -11    1.57    0.16
   9  -7  11    1.50    0.19
   9  -7  11    1.35    0.22
  11  -7  11    0.02    0.09
  11  -7  11    0.00    0.12
  13  -7  11    0.68    0.18
  13  -7  11    0.30    0.17
  15  -7  11    0.03    0.13
  15  -7  11    0.14    0.16
  17  -7  11    0.15    0.16
  17  -7  11   -0.04    0.15
  19  -7  11    0.30    0.21
  19  -7  11    0.35    0.19
  21  -7  11    1.62    0.34
  21  -7  11    1.21    0.31
  23  -7  11   -0.18    0.15
  23  -7  11   -0.04    0.21
  25  -7  11   -0.23    0.20
  25  -7  11   -0.24    0.20
  27  -7  11    0.10    0.23
  29  -7  11    0.32    0.28
  31  -7  11    0.20    0.27
  33  -7  11    0.78    0.41
  31   5 -11    0.36    0.38
  29   5 -11    0.09    0.30
  27   5 -11    0.31    0.30
  25   5 -11   -0.19    0.23
  25   5 -11   -0.35    0.19
  23   5 -11    0.38    0.27
  23   5 -11    0.52    0.24
  21   5 -11    0.39    0.21
  21   5 -11   -0.03    0.20
  19   5 -11    0.03    0.17
  19   5 -11    0.05    0.16
  17   5 -11    0.16    0.16
  17   5 -11   -0.12    0.16
  15   5 -11    1.00    0.24
  15   5 -11    0.91    0.21
  13   5 -11    2.53    0.28
  13   5 -11    2.37    0.30
  11   5 -11    0.04    0.10
  11   5 -11   -0.10    0.09
 -11  -5  11   -0.01    0.06
   9   5 -11   -0.18    0.09
   9   5 -11    0.08    0.11
  -9  -5  11    0.01    0.06
   7   5 -11    1.09    0.15
   7   5 -11    1.53    0.23
  -7  -5  11    1.38    0.14
   5   5 -11    0.11    0.09
   5   5 -11   -0.02    0.06
  -5  -5  11   -0.04    0.06
   3   5 -11    6.67    0.26
   3   5 -11    6.69    0.39
  -3  -5  11    6.53    0.32
   1   5 -11    3.39    0.19
   1   5 -11    3.04    0.25
  -1  -5  11    3.27    0.23
  -1   5 -11    3.45    0.26
   1  -5  11    3.27    0.25
  -3   5 -11    6.69    0.33
   3  -5  11    7.40    0.38
  -5   5 -11   -0.01    0.07
   5  -5  11    0.08    0.09
  -7   5 -11    1.49    0.15
   7  -5  11    1.38    0.20
   7  -5  11    1.14    0.16
  -9   5 -11   -0.02    0.06
   9  -5  11   -0.05    0.09
   9  -5  11    0.15    0.10
  11  -5  11    0.04    0.10
  11  -5  11   -0.08    0.08
  13  -5  11    2.50    0.30
  13  -5  11    2.69    0.29
  15  -5  11    0.69    0.21
  15  -5  11    0.91    0.23
  17  -5  11   -0.07    0.13
  17  -5  11   -0.06    0.14
  19  -5  11    0.12    0.16
  19  -5  11   -0.03    0.15
  21  -5  11    0.31    0.23
  21  -5  11    0.31    0.20
  23  -5  11    0.86    0.30
  23  -5  11    0.89    0.30
  25  -5  11   -0.17    0.20
  25  -5  11    0.29    0.25
  27  -5  11    0.11    0.21
  27  -5  11    0.12    0.26
  29  -5  11    0.07    0.26
  31  -5  11   -0.04    0.28
  33  -5  11    0.11    0.33
  33   3 -11   -0.14    0.38
  31   3 -11    0.19    0.35
  29   3 -11   -0.55    0.24
  27   3 -11   -0.15    0.28
  25   3 -11    0.22    0.26
  25   3 -11   -0.18    0.18
  23   3 -11   -0.08    0.17
  23   3 -11    0.05    0.23
  21   3 -11    1.15    0.29
  21   3 -11    0.60    0.25
  19   3 -11    0.39    0.20
  19   3 -11    0.37    0.22
  17   3 -11    0.61    0.22
  17   3 -11    0.86    0.24
  15   3 -11    0.14    0.15
  15   3 -11   -0.01    0.13
  13   3 -11    2.68    0.28
  13   3 -11    3.01    0.32
  11   3 -11    0.05    0.11
  11   3 -11    0.16    0.11
 -11  -3  11    0.06    0.05
   9   3 -11    2.00    0.21
   9   3 -11    1.54    0.23
  -9  -3  11    1.54    0.13
   7   3 -11    0.15    0.10
   7   3 -11   -0.02    0.10
  -7  -3  11    0.13    0.07
   5   3 -11    6.41    0.30
   5   3 -11    6.73    0.40
  -5  -3  11    6.35    0.28
   3   3 -11    0.10    0.10
   3   3 -11    0.00    0.07
  -3  -3  11    0.14    0.07
   1   3 -11   41.65    1.08
   1   3 -11   42.22    0.94
  -1  -3  11   42.87    1.00
  -1   3 -11   40.64    1.01
   1  -3  11   41.10    1.01
  -3   3 -11    0.13    0.08
   3  -3  11   -0.03    0.06
  -5   3 -11    6.66    0.30
  -7   3 -11    0.01    0.06
   7  -3  11    0.00    0.07
   7  -3  11    0.04    0.07
   9  -3  11    2.01    0.22
   9  -3  11    1.64    0.23
  11  -3  11   -0.01    0.08
  11  -3  11    0.10    0.10
  13  -3  11    2.99    0.31
  13  -3  11    3.15    0.33
  15  -3  11    0.01    0.13
  15  -3  11   -0.06    0.10
  17  -3  11    0.60    0.22
  17  -3  11    0.59    0.22
  19  -3  11    0.03    0.16
  19  -3  11    0.26    0.20
  21  -3  11    0.41    0.21
  21  -3  11    0.70    0.26
  23  -3  11   -0.04    0.17
  23  -3  11    0.05    0.20
  25  -3  11   -0.05    0.22
  25  -3  11    0.01    0.19
 -27   3 -11   -0.13    0.17
  27  -3  11   -0.13    0.18
  29  -3  11    0.11    0.26
  31  -3  11    0.27    0.29
  33  -3  11   -0.03    0.29
  33   1 -11   -0.29    0.35
  31   1 -11   -0.05    0.32
  29   1 -11   -0.03    0.33
  27   1 -11    0.21    0.27
  25   1 -11   -0.29    0.16
  25   1 -11    0.34    0.29
  23   1 -11    0.14    0.21
  23   1 -11    0.04    0.23
  21   1 -11    0.29    0.24
  21   1 -11   -0.07    0.17
  19   1 -11    1.97    0.32
  19   1 -11    1.40    0.30
  17   1 -11    0.02    0.17
  17   1 -11    0.01    0.13
  15   1 -11    1.65    0.26
  15   1 -11    1.19    0.24
  13   1 -11   -0.07    0.11
  13   1 -11   -0.10    0.12
  11   1 -11   -0.02    0.11
  11   1 -11    0.07    0.11
   9   1 -11    3.41    0.31
   9   1 -11    2.96    0.25
  -9  -1  11    3.14    0.15
   7   1 -11    3.86    0.27
  -7  -1  11    3.81    0.19
   5   1 -11    3.36    0.24
  -5  -1  11    3.16    0.19
   3   1 -11   42.67    0.99
  -3  -1  11   41.40    0.94
  -1  -1  11   -0.02    0.06
   1  -1  11    0.09    0.07
   3  -1  11   40.81    1.03
  -5   1 -11    3.57    0.22
   5  -1  11    3.60    0.27
  -7   1 -11    3.99    0.21
   7  -1  11    3.99    0.31
   9  -1  11    2.47    0.25
   9  -1  11    3.51    0.30
  11  -1  11   -0.11    0.08
  11  -1  11    0.07    0.11
  13  -1  11   -0.06    0.10
  13  -1  11    0.03    0.10
  15  -1  11    1.51    0.26
  15  -1  11    1.18    0.24
  17  -1  11   -0.01    0.13
  17  -1  11    0.06    0.14
  19  -1  11    1.64    0.30
  19  -1  11    1.79    0.31
  21  -1  11    0.11    0.19
  21  -1  11    0.26    0.20
 -23   1 -11   -0.04    0.13
  23  -1  11    0.01    0.17
  23  -1  11    0.07    0.21
 -25   1 -11   -0.26    0.15
  25  -1  11    0.09    0.22
 -27   1 -11    0.23    0.21
  27  -1  11    0.05    0.25
  29  -1  11    0.14    0.25
  31  -1  11   -0.06    0.27
  33  -1  11    0.05    0.28
  33  -1 -11   -0.03    0.35
  31  -1 -11   -0.01    0.35
  29  -1 -11    0.14    0.31
  27  -1 -11    0.40    0.30
  25  -1 -11   -0.07    0.23
  25  -1 -11   -0.01    0.24
  23  -1 -11    0.12    0.19
  23  -1 -11    0.15    0.25
  21  -1 -11    0.12    0.22
  21  -1 -11    0.24    0.19
  19  -1 -11    1.40    0.30
  19  -1 -11    1.73    0.30
  17  -1 -11    0.10    0.16
  17  -1 -11   -0.09    0.15
  15  -1 -11    1.17    0.24
  13  -1 -11    0.05    0.12
  11  -1 -11    0.10    0.12
   9  -1 -11    2.93    0.26
   7  -1 -11    4.06    0.29
  -7   1  11    3.72    0.17
   5  -1 -11    3.91    0.27
  -5   1  11    3.47    0.19
   3  -1 -11   40.83    1.02
  -3   1  11   41.87    0.92
  -1   1  11    0.01    0.06
   1   1  11    0.42    0.11
   3   1  11   40.77    1.03
   5   1  11    3.35    0.28
   7   1  11    3.63    0.30
   9   1  11    2.92    0.28
  11   1  11    0.02    0.09
  11   1  11    0.08    0.12
  13   1  11   -0.07    0.11
  13   1  11    0.02    0.10
  15   1  11    1.78    0.28
  15   1  11    1.18    0.24
  17   1  11    0.27    0.17
  17   1  11   -0.01    0.13
 -19  -1 -11    1.40    0.26
  19   1  11    1.17    0.26
  19   1  11    1.77    0.31
 -21  -1 -11    0.28    0.19
  21   1  11    0.25    0.19
 -23  -1 -11    0.07    0.18
  23   1  11   -0.07    0.18
 -25  -1 -11    0.02    0.19
  25   1  11   -0.04    0.19
 -27  -1 -11    0.25    0.20
  27   1  11   -0.11    0.18
  29   1  11   -0.11    0.20
  31   1  11   -0.40    0.20
  33   1  11    0.40    0.34
  33  -3 -11    0.04    0.37
  31  -3 -11    0.00    0.35
  29  -3 -11   -0.31    0.30
  27  -3 -11    0.19    0.31
  25  -3 -11   -0.24    0.22
  25  -3 -11    0.09    0.22
  23  -3 -11    0.33    0.28
  23  -3 -11    0.01    0.19
  21  -3 -11    0.50    0.27
  21  -3 -11    0.76    0.25
  19  -3 -11    0.64    0.27
  17  -3 -11    0.46    0.22
  15  -3 -11    0.13    0.15
  13  -3 -11    2.23    0.29
  11  -3 -11   -0.07    0.10
   9  -3 -11    1.37    0.22
   7  -3 -11    0.20    0.10
   7  -3 -11   -0.03    0.05
   5  -3 -11    6.86    0.38
   5  -3 -11    6.89    0.26
   3  -3 -11   -0.08    0.05
   3  -3 -11   -0.03    0.08
  -1   3  11   39.63    0.92
   1   3  11   41.54    1.01
   3   3  11   -0.03    0.06
   5   3  11    6.28    0.36
   7   3  11    0.17    0.10
   9   3  11    1.77    0.23
 -11  -3 -11   -0.03    0.08
  11   3  11   -0.05    0.08
 -13  -3 -11    2.38    0.28
  13   3  11    3.16    0.32
 -15  -3 -11   -0.06    0.11
  15   3  11    0.04    0.13
 -17  -3 -11    0.54    0.20
  17   3  11    0.50    0.21
 -19  -3 -11    0.00    0.13
  19   3  11    0.05    0.15
 -21  -3 -11    0.62    0.23
  21   3  11    0.55    0.23
 -23  -3 -11   -0.19    0.13
  23   3  11   -0.18    0.16
 -25  -3 -11    0.04    0.20
  25   3  11    0.12    0.21
 -27  -3 -11    0.02    0.21
  27   3  11   -0.18    0.19
  29   3  11   -0.27    0.21
  31   3  11   -0.22    0.26
  33   3  11   -0.23    0.25
  33  -5 -11    0.53    0.46
  31  -5 -11    0.01    0.33
  29  -5 -11    0.07    0.30
  27  -5 -11    0.00    0.28
  25  -5 -11   -0.19    0.23
  23  -5 -11    0.63    0.32
  23  -5 -11    0.38    0.24
  21  -5 -11    0.12    0.22
  19  -5 -11    0.04    0.18
  17  -5 -11    0.12    0.18
  15  -5 -11    1.15    0.25
  13  -5 -11    2.32    0.31
  11  -5 -11   -0.06    0.09
   9  -5 -11    0.03    0.09
   9  -5 -11   -0.10    0.04
   7  -5 -11    0.96    0.18
   7  -5 -11    1.35    0.11
   5  -5 -11    0.08    0.09
   5  -5 -11   -0.06    0.05
   3  -5 -11    6.86    0.30
   3  -5 -11    6.18    0.38
   1  -5 -11    3.39    0.28
   1  -5 -11    3.08    0.23
  -1  -5 -11    2.98    0.23
  -3  -5 -11    6.40    0.35
  -5  -5 -11   -0.10    0.07
  -7  -5 -11    1.01    0.18
  -9  -5 -11   -0.10    0.09
 -11  -5 -11   -0.04    0.10
 -13  -5 -11    1.95    0.28
 -15  -5 -11    1.22    0.24
 -17  -5 -11   -0.14    0.09
  17   5  11    0.07    0.13
 -19  -5 -11   -0.15    0.13
  19   5  11    0.07    0.18
 -21  -5 -11    0.41    0.20
  21   5  11    0.27    0.23
 -23  -5 -11    0.57    0.24
  23   5  11    0.57    0.26
 -25  -5 -11    0.10    0.19
  25   5  11   -0.24    0.18
 -27  -5 -11   -0.05    0.19
  27   5  11    0.17    0.27
 -29  -5 -11    0.06    0.24
  29   5  11    0.05    0.27
  31   5  11    0.04    0.30
  33   5  11   -0.02    0.36
  33  -7 -11    0.11    0.38
  31  -7 -11    0.11    0.36
  29  -7 -11   -0.26    0.28
  27  -7 -11   -0.09    0.29
  25  -7 -11   -0.23    0.22
  23  -7 -11    0.26    0.26
  21  -7 -11    1.35    0.34
  19  -7 -11    0.30    0.23
  17  -7 -11    0.05    0.18
  15  -7 -11   -0.01    0.15
  13  -7 -11    0.45    0.19
  11  -7 -11    0.17    0.14
   9  -7 -11    1.46    0.24
   9  -7 -11    1.09    0.11
   7  -7 -11   -0.05    0.10
   7  -7 -11    0.02    0.07
   5  -7 -11    1.27    0.14
   5  -7 -11    1.13    0.20
   3  -7 -11    0.04    0.08
   3  -7 -11   -0.05    0.08
   1  -7 -11    3.75    0.25
   1  -7 -11    3.13    0.29
  -1  -7 -11    4.09    0.29
  -3  -7 -11    0.03    0.09
  -5  -7 -11    1.34    0.20
  -7  -7 -11   -0.02    0.08
  -9  -7 -11    1.27    0.22
 -11  -7 -11   -0.04    0.10
 -13  -7 -11    0.25    0.14
 -15  -7 -11   -0.08    0.12
 -17  -7 -11    0.24    0.17
 -19  -7 -11    0.05    0.15
  19   7  11    0.05    0.17
 -21  -7 -11    2.25    0.36
  21   7  11    1.46    0.33
 -23  -7 -11    0.17    0.19
  23   7  11   -0.15    0.20
 -25  -7 -11    0.19    0.21
  25   7  11   -0.20    0.23
 -27  -7 -11    0.12    0.24
  27   7  11   -0.08    0.22
 -29  -7 -11    0.22    0.26
  29   7  11    0.32    0.32
  31   7  11    0.14    0.34
  31  -9 -11    0.10    0.33
  29  -9 -11    0.25    0.36
  27  -9 -11   -0.19    0.26
  25  -9 -11    0.31    0.31
  23  -9 -11    0.34    0.27
  21  -9 -11    0.91    0.32
  19  -9 -11    0.29    0.23
  17  -9 -11    0.08    0.20
  15  -9 -11    0.18    0.18
  13  -9 -11    0.29    0.18
  11  -9 -11   -0.08    0.12
   9  -9 -11   -0.04    0.11
   7  -9 -11    1.22    0.15
   7  -9 -11    1.29    0.21
  -7   9  11    1.40    0.15
   5  -9 -11   -0.20    0.07
   5  -9 -11   -0.06    0.08
  -5   9  11    0.02    0.07
   3  -9 -11    1.52    0.18
   3  -9 -11    1.66    0.24
   1  -9 -11    2.96    0.29
   1  -9 -11    2.74    0.24
  -1   9  11    3.18    0.25
  -1  -9 -11    3.48    0.28
   1   9  11    3.26    0.26
  -3  -9 -11    1.68    0.22
  -5  -9 -11    0.03    0.10
  -7  -9 -11    1.15    0.22
  -9  -9 -11   -0.06    0.10
 -11  -9 -11   -0.04    0.11
 -13  -9 -11    0.44    0.18
 -15  -9 -11    0.06    0.16
 -17  -9 -11    0.07    0.16
 -19  -9 -11    0.26    0.19
 -21  -9 -11    1.44    0.31
 -23  -9 -11   -0.02    0.19
 -25  -9 -11    0.06    0.22
 -27  -9 -11   -0.27    0.20
 -29  -9 -11    0.32    0.30
  31 -11 -11   -0.19    0.33
  29 -11 -11   -0.24    0.35
  27 -11 -11    0.12    0.32
  25 -11 -11    0.06    0.27
  23 -11 -11   -0.15    0.23
  21 -11 -11   -0.32    0.19
  19 -11 -11   -0.06    0.19
  17 -11 -11   -0.29    0.18
  15 -11 -11    0.16    0.21
  13 -11 -11   -0.06    0.15
  11 -11 -11   -0.17    0.11
   9 -11 -11   -0.15    0.11
   7 -11 -11   -0.18    0.09
   7 -11 -11    0.08    0.09
   5 -11 -11   -0.01    0.09
   5 -11 -11    0.02    0.11
  -5  11  11    0.08    0.09
   3 -11 -11    0.03    0.10
   3 -11 -11   -0.12    0.07
  -3  11  11   -0.01    0.08
   1 -11 -11   -0.13    0.08
   1 -11 -11   -0.08    0.09
  -1  11  11   -0.09    0.08
  -1 -11 -11   -0.16    0.08
   1  11  11    0.04    0.10
  -3 -11 -11    0.01    0.09
   3  11  11    0.03    0.10
  -5 -11 -11   -0.04    0.10
   5  11  11    0.00    0.11
  -7 -11 -11   -0.07    0.10
  -9 -11 -11   -0.02    0.12
 -11 -11 -11   -0.21    0.12
 -13 -11 -11    0.01    0.13
 -15 -11 -11    0.27    0.17
 -17 -11 -11    0.14    0.15
 -19 -11 -11    0.34    0.20
 -21 -11 -11    0.05    0.17
 -23 -11 -11   -0.23    0.17
 -25 -11 -11    0.19    0.24
 -27 -11 -11   -0.19    0.22
 -29 -11 -11    0.01    0.27
  29 -13 -11   -0.04    0.37
  27 -13 -11    0.27    0.33
  25 -13 -11    0.13    0.29
  23 -13 -11    0.32    0.28
  21 -13 -11   -0.36    0.16
  19 -13 -11   -0.13    0.16
  17 -13 -11    0.56    0.26
  15 -13 -11    0.06    0.19
  13 -13 -11   -0.11    0.13
  11 -13 -11    0.01    0.14
   9 -13 -11    0.13    0.15
   7 -13 -11    0.30    0.14
   7 -13 -11    0.39    0.17
   5 -13 -11    2.27    0.30
   5 -13 -11    2.28    0.24
   3 -13 -11    2.65    0.32
   3 -13 -11    2.71    0.26
   1 -13 -11    0.24    0.14
   1 -13 -11   -0.27    0.11
  -1  13  11   -0.28    0.09
  -1 -13 -11    0.04    0.11
   1  13  11   -0.11    0.10
  -3 -13 -11    2.57    0.29
   3  13  11    2.59    0.29
  -5 -13 -11    3.22    0.33
   5  13  11    2.18    0.28
  -7 -13 -11    0.06    0.15
   7  13  11    0.54    0.18
  -9 -13 -11    0.49    0.21
   9  13  11   -0.08    0.12
 -11 -13 -11   -0.08    0.14
 -13 -13 -11    0.02    0.15
 -15 -13 -11    0.41    0.23
 -17 -13 -11    0.78    0.27
 -19 -13 -11   -0.18    0.14
 -21 -13 -11    0.02    0.19
 -23 -13 -11    0.22    0.26
 -25 -13 -11   -0.14    0.23
 -27 -13 -11   -0.42    0.22
  29 -15 -11    0.01    0.35
  27 -15 -11   -0.04    0.28
  25 -15 -11    0.38    0.31
  23 -15 -11   -0.40    0.18
  21 -15 -11    1.02    0.34
  19 -15 -11    0.34    0.26
  17 -15 -11    0.55    0.27
  15 -15 -11   -0.04    0.18
  13 -15 -11    0.84    0.27
  11 -15 -11   -0.01    0.14
   9 -15 -11    0.37    0.19
   7 -15 -11    0.03    0.15
   7 -15 -11    0.00    0.12
   5 -15 -11    1.06    0.25
   5 -15 -11    1.22    0.21
   3 -15 -11    0.03    0.13
   3 -15 -11    0.17    0.14
   1 -15 -11    1.57    0.27
   1 -15 -11    0.88    0.20
  -1 -15 -11    1.33    0.25
  -1 -15 -11    1.47    0.25
   1  15  11    1.13    0.23
  -3 -15 -11   -0.06    0.13
   3  15  11    0.12    0.12
  -5 -15 -11    1.17    0.26
   5  15  11    0.88    0.22
  -7 -15 -11   -0.04    0.14
   7  15  11   -0.03    0.13
  -9 -15 -11    0.16    0.17
   9  15  11    0.15    0.15
 -11 -15 -11    0.03    0.17
  11  15  11   -0.01    0.13
 -13 -15 -11    0.69    0.24
 -15 -15 -11    0.27    0.19
 -17 -15 -11    0.49    0.27
 -19 -15 -11    0.37    0.23
 -21 -15 -11    1.44    0.36
 -23 -15 -11    0.01    0.23
 -25 -15 -11    0.33    0.29
 -27 -15 -11   -0.12    0.24
  27 -17 -11   -0.07    0.31
  25 -17 -11   -0.29    0.27
  23 -17 -11    0.34    0.33
  21 -17 -11    0.49    0.28
  19 -17 -11    0.01    0.22
  17 -17 -11   -0.30    0.16
  15 -17 -11    0.29    0.22
  13 -17 -11    1.16    0.30
  11 -17 -11    0.08    0.18
   9 -17 -11    0.23    0.18
   7 -17 -11    0.36    0.19
   7 -17 -11    0.08    0.15
   5 -17 -11   -0.02    0.14
   5 -17 -11   -0.24    0.14
   3 -17 -11    0.74    0.22
   3 -17 -11    0.53    0.20
   1 -17 -11   -0.09    0.11
   1 -17 -11   -0.02    0.17
  -1 -17 -11   -0.03    0.13
  -1 -17 -11   -0.19    0.15
  -3 -17 -11    0.42    0.23
   3  17  11    0.22    0.18
  -5 -17 -11   -0.01    0.17
   5  17  11   -0.05    0.13
  -7 -17 -11    0.06    0.18
   7  17  11    0.01    0.17
  -9 -17 -11    0.19    0.21
   9  17  11    0.07    0.16
 -11 -17 -11   -0.16    0.16
  11  17  11    0.06    0.17
 -13 -17 -11    0.49    0.25
  13  17  11    1.04    0.30
 -15 -17 -11    0.31    0.24
 -17 -17 -11   -0.17    0.16
 -19 -17 -11   -0.10    0.18
 -21 -17 -11   -0.10    0.21
 -23 -17 -11   -0.23    0.24
 -25 -17 -11   -0.28    0.24
  27 -19 -11   -0.10    0.30
  25 -19 -11    0.00    0.31
  23 -19 -11    0.23    0.29
  21 -19 -11    0.53    0.34
  19 -19 -11   -0.16    0.23
  17 -19 -11    0.01    0.23
  15 -19 -11    0.69    0.28
  13 -19 -11   -0.07    0.17
  11 -19 -11   -0.01    0.20
   9 -19 -11    0.03    0.18
   7 -19 -11   -0.01    0.17
   7 -19 -11    0.09    0.18
   5 -19 -11    0.03    0.16
   5 -19 -11    0.24    0.18
   3 -19 -11    0.56    0.21
   3 -19 -11    0.48    0.21
   1 -19 -11    1.31    0.27
   1 -19 -11    1.62    0.30
  -1 -19 -11    2.11    0.32
  -1 -19 -11    1.31    0.28
  -3 -19 -11    0.16    0.17
  -3 -19 -11    0.34    0.23
  -5 -19 -11    0.04    0.18
   5  19  11   -0.22    0.14
  -7 -19 -11   -0.02    0.18
   7  19  11    0.22    0.17
  -9 -19 -11    0.31    0.25
   9  19  11    0.17    0.19
 -11 -19 -11    0.16    0.23
  11  19  11   -0.17    0.13
 -13 -19 -11   -0.06    0.21
  13  19  11    0.12    0.20
 -15 -19 -11   -0.17    0.18
 -17 -19 -11    0.02    0.23
 -19 -19 -11    0.13    0.22
 -21 -19 -11    0.35    0.28
 -23 -19 -11    0.08    0.25
  25 -21 -11    0.19    0.35
  23 -21 -11   -0.22    0.25
  21 -21 -11   -0.20    0.24
  19 -21 -11    0.24    0.28
  17 -21 -11    0.17    0.24
  15 -21 -11    0.66    0.30
  13 -21 -11   -0.09    0.18
  11 -21 -11   -0.23    0.16
   9 -21 -11    0.71    0.27
   7 -21 -11    1.55    0.32
   5 -21 -11    0.03    0.18
   5 -21 -11    0.12    0.17
   3 -21 -11    0.83    0.25
   3 -21 -11    1.11    0.29
   1 -21 -11    0.02    0.20
   1 -21 -11    0.12    0.18
  -1 -21 -11    0.24    0.21
  -1 -21 -11    0.42    0.23
  -3 -21 -11    0.72    0.25
  -3 -21 -11    1.21    0.32
  -5 -21 -11    0.02    0.21
   5  21  11   -0.15    0.15
  -7 -21 -11    1.61    0.35
   7  21  11    1.28    0.33
  -9 -21 -11    0.71    0.30
   9  21  11    0.74    0.26
 -11 -21 -11   -0.19    0.20
  11  21  11    0.05    0.18
 -13 -21 -11   -0.18    0.22
  13  21  11   -0.22    0.15
 -15 -21 -11    0.65    0.29
  15  21  11    0.34    0.24
 -17 -21 -11    0.09    0.22
 -19 -21 -11   -0.06    0.25
 -21 -21 -11    0.04    0.26
  23 -23 -11   -0.08    0.31
  21 -23 -11   -0.05    0.32
  19 -23 -11   -0.25    0.21
  17 -23 -11    0.19    0.30
  15 -23 -11   -0.12    0.25
  13 -23 -11   -0.26    0.19
  11 -23 -11    0.26    0.22
   9 -23 -11   -0.01    0.19
   7 -23 -11    0.09    0.20
   5 -23 -11    0.74    0.27
   5 -23 -11    0.86    0.27
   3 -23 -11    0.30    0.21
   3 -23 -11   -0.06    0.19
   1 -23 -11    0.14    0.19
   1 -23 -11    0.07    0.22
  -1 -23 -11    0.02    0.21
  -1 -23 -11    0.12    0.19
  -3 -23 -11    0.31    0.21
  -3 -23 -11    0.12    0.22
  -5 -23 -11    0.39    0.26
  -5 -23 -11    0.51    0.23
  -7 -23 -11    0.09    0.22
   7  23  11   -0.04    0.17
  -9 -23 -11   -0.11    0.20
   9  23  11   -0.07    0.20
 -11 -23 -11   -0.04    0.26
  11  23  11   -0.03    0.18
 -13 -23 -11    0.30    0.26
  13  23  11   -0.16    0.19
 -15 -23 -11   -0.07    0.24
  15  23  11    0.03    0.20
 -17 -23 -11    0.01    0.27
 -19 -23 -11    0.08    0.26
  23 -25 -11    0.49    0.39
  21 -25 -11    0.07    0.33
  19 -25 -11   -0.02    0.24
  17 -25 -11    0.31    0.30
  15 -25 -11    0.57    0.32
  13 -25 -11   -0.04    0.22
  11 -25 -11   -0.05    0.20
   9 -25 -11    0.12    0.21
   7 -25 -11    0.12    0.21
   5 -25 -11    0.02    0.19
   5 -25 -11    0.04    0.21
   3 -25 -11   -0.09    0.18
   3 -25 -11   -0.03    0.19
   1 -25 -11    0.19    0.23
   1 -25 -11    0.15    0.24
  -1 -25 -11    0.06    0.25
  -1 -25 -11    0.28    0.22
  -3 -25 -11   -0.19    0.22
  -3 -25 -11    0.27    0.22
  -5 -25 -11   -0.06    0.17
  -5 -25 -11    0.10    0.24
  -7 -25 -11   -0.23    0.22
  -7 -25 -11    0.11    0.19
   7  25  11   -0.05    0.21
  -9 -25 -11   -0.31    0.25
   9  25  11   -0.26    0.19
 -11 -25 -11   -0.39    0.24
  11  25  11    0.03    0.22
 -13 -25 -11    0.21    0.30
  13  25  11    0.03    0.23
 -15 -25 -11    0.67    0.35
  15  25  11    0.06    0.27
  17  25  11    0.04    0.26
  21 -27 -11   -0.40    0.26
  19 -27 -11   -0.05    0.28
  17 -27 -11    0.14    0.32
  15 -27 -11    0.17    0.30
  13 -27 -11    0.16    0.28
  11 -27 -11   -0.27    0.20
   9 -27 -11   -0.54    0.18
   7 -27 -11   -0.18    0.21
   5 -27 -11   -0.07    0.20
   3 -27 -11    0.13    0.26
   3 -27 -11    0.12    0.21
   1 -27 -11    0.32    0.24
   1 -27 -11    0.07    0.25
  -1 -27 -11    0.34    0.25
  -1 -27 -11    0.16    0.27
  -3 -27 -11   -0.02    0.25
  -3 -27 -11    0.00    0.21
  -5 -27 -11    0.17    0.22
  -5 -27 -11   -0.18    0.27
  -7 -27 -11    0.02    0.21
  -7 -27 -11   -0.21    0.24
   7  27  11   -0.04    0.23
  -9 -27 -11    0.13    0.32
  -9 -27 -11   -0.10    0.21
   9  27  11   -0.28    0.22
 -11 -27 -11    0.42    0.35
  11  27  11   -0.15    0.21
 -13 -27 -11   -0.07    0.30
  13  27  11   -0.07    0.26
  19 -29 -11   -0.19    0.33
  17 -29 -11    0.00    0.32
  15 -29 -11    0.16    0.32
  13 -29 -11    0.27    0.32
  11 -29 -11    0.00    0.26
   9 -29 -11   -0.04    0.26
   7 -29 -11    0.06    0.24
   5 -29 -11    0.13    0.24
   3 -29 -11   -0.10    0.24
   3 -29 -11    0.06    0.29
   1 -29 -11   -0.10    0.29
   1 -29 -11    0.10    0.24
  -1 -29 -11    0.37    0.28
  -1 -29 -11   -0.04    0.26
  -3 -29 -11   -0.02    0.30
  -5 -29 -11   -0.29    0.26
  -7 -29 -11    0.36    0.35
   7  29  11    0.14    0.30
   9  29  11    0.05    0.28
   3 -31 -11    0.24    0.31
   1 -31 -11    0.12    0.33
  -1 -31 -11    0.25    0.33
  18  28 -12    0.09    0.38
  16  28 -12   14.15    1.04
 -12 -28  12   13.42    0.92
 -10 -28  12    0.41    0.30
  -8 -28  12   20.24    1.10
  -6 -28  12    0.25    0.24
  -4 -28  12   16.69    1.01
  -2 -28  12    0.52    0.28
   0 -28  12   24.32    1.22
   2 -28  12    0.13    0.23
   4 -28  12   15.10    0.96
   6 -28  12    0.17    0.27
   8 -28  12   22.16    1.18
  10 -28  12    0.36    0.33
  20  26 -12    0.52    0.38
  18  26 -12    0.28    0.32
  16  26 -12   -0.06    0.30
  14  26 -12    0.56    0.37
 -14 -26  12    1.47    0.36
  12  26 -12    0.14    0.30
 -12 -26  12    0.18    0.25
  10  26 -12    0.20    0.35
 -10 -26  12    0.35    0.23
   8  26 -12   -0.13    0.24
  -8 -26  12   -0.03    0.21
  -6 -26  12    0.74    0.30
  -4 -26  12    0.08    0.22
  -2 -26  12    0.09    0.21
   0 -26  12   -0.04    0.18
   2 -26  12    0.24    0.23
   4 -26  12   -0.20    0.22
   6 -26  12    0.50    0.27
   8 -26  12   -0.24    0.20
  10 -26  12    0.02    0.23
  12 -26  12    0.53    0.34
  14 -26  12    1.56    0.44
  16 -26  12    0.42    0.33
  24  24 -12    8.98    0.91
  22  24 -12    0.05    0.34
  20  24 -12   17.02    1.14
  18  24 -12    0.30    0.28
  16  24 -12   16.27    1.06
  14  24 -12    0.15    0.29
 -14 -24  12    0.25    0.23
  12  24 -12   27.73    1.33
 -12 -24  12   27.58    1.20
  10  24 -12    0.04    0.29
 -10 -24  12    0.30    0.23
   8  24 -12   24.57    1.19
  -8 -24  12   24.12    1.11
   6  24 -12    0.24    0.28
  -6 -24  12    0.17    0.22
   4  24 -12   41.80    1.58
  -4 -24  12   41.61    1.49
  -2 -24  12    0.52    0.25
   0 -24  12   20.64    1.03
   2 -24  12    0.19    0.21
   4 -24  12   40.57    1.49
   6 -24  12    0.19    0.24
   8 -24  12   25.24    1.17
  10 -24  12    0.37    0.27
  12 -24  12   27.77    1.28
  14 -24  12    0.37    0.28
  16 -24  12   15.32    0.97
  18 -24  12   -0.12    0.29
  26  22 -12    1.00    0.46
  24  22 -12   -0.10    0.30
  22  22 -12    0.12    0.30
  20  22 -12   -0.08    0.27
  18  22 -12    0.97    0.37
  16  22 -12    0.41    0.28
  14  22 -12   -0.10    0.21
 -14 -22  12   -0.06    0.18
  12  22 -12   -0.07    0.21
 -12 -22  12    0.00    0.17
  10  22 -12    0.82    0.32
 -10 -22  12    0.24    0.21
   8  22 -12    0.45    0.28
  -8 -22  12    0.20    0.19
   6  22 -12    0.22    0.25
  -6 -22  12    0.26    0.19
   4  22 -12   -0.17    0.19
  -4 -22  12   -0.08    0.16
   2  22 -12    0.16    0.26
  -2 -22  12   -0.04    0.15
   0 -22  12    0.07    0.17
   2 -22  12    0.18    0.19
   4 -22  12   -0.07    0.16
   6 -22  12   -0.11    0.16
   8 -22  12    0.21    0.24
  10 -22  12    0.16    0.23
  12 -22  12    0.03    0.23
  14 -22  12    0.17    0.22
  16 -22  12    0.13    0.23
  18 -22  12    0.31    0.28
  20 -22  12    0.15    0.29
  22 -22  12    0.81    0.38
  26  20 -12    0.55    0.40
  24  20 -12   19.30    1.17
  22  20 -12   -0.10    0.28
  20  20 -12   13.45    0.91
  18  20 -12   -0.14    0.23
  16  20 -12   29.32    1.31
  14  20 -12    0.81    0.32
 -14 -20  12    0.28    0.20
  12  20 -12   18.41    0.99
 -12 -20  12   15.89    0.83
  10  20 -12    0.13    0.22
 -10 -20  12    0.46    0.21
   8  20 -12   55.69    1.77
  -8 -20  12   49.88    1.57
   6  20 -12   -0.22    0.19
  -6 -20  12    0.15    0.18
   4  20 -12   27.49    1.15
  -4 -20  12   25.76    1.05
   2  20 -12    1.06    0.30
  -2 -20  12    0.77    0.23
   0  20 -12   45.45    1.49
   0 -20  12   42.56    1.43
   2 -20  12    0.70    0.23
   4 -20  12   27.76    1.11
   6 -20  12    0.17    0.19
   8 -20  12   50.13    1.62
  10 -20  12    0.43    0.25
  12 -20  12   17.95    0.96
  14 -20  12    0.66    0.27
  16 -20  12   28.78    1.25
  18 -20  12    0.18    0.25
  20 -20  12   16.54    0.98
  22 -20  12    0.15    0.31
  26  18 -12    0.20    0.35
  24  18 -12   -0.27    0.26
  22  18 -12    0.18    0.28
  20  18 -12   -0.14    0.23
  18  18 -12    0.16    0.27
  16  18 -12    0.25    0.24
  14  18 -12    1.80    0.38
 -14 -18  12    1.72    0.31
  12  18 -12   -0.01    0.19
 -12 -18  12   -0.08    0.14
  10  18 -12    0.47    0.25
 -10 -18  12    0.48    0.20
   8  18 -12   -0.20    0.17
  -8 -18  12    0.12    0.15
   6  18 -12    0.14    0.21
  -6 -18  12    0.18    0.16
   4  18 -12    0.19    0.20
  -4 -18  12    0.45    0.20
   2  18 -12    1.80    0.33
  -2 -18  12    1.21    0.26
   0  18 -12    0.04    0.19
   0 -18  12    0.09    0.14
  -2  18 -12    1.74    0.31
   2 -18  12    2.00    0.32
   4 -18  12    0.27    0.16
   6 -18  12   -0.09    0.14
   8 -18  12   -0.04    0.15
  10 -18  12    0.73    0.27
  12 -18  12   -0.01    0.16
  14 -18  12    1.73    0.36
  16 -18  12    0.01    0.19
  18 -18  12    0.05    0.22
  20 -18  12    0.12    0.26
  22 -18  12    0.62    0.34
  24 -18  12    0.06    0.28
  26  16 -12    0.14    0.31
  24  16 -12   16.44    1.02
  22  16 -12    0.29    0.29
  20  16 -12   32.61    1.37
  18  16 -12   -0.08    0.21
  16  16 -12   42.79    1.53
  14  16 -12    0.51    0.24
 -14 -16  12    0.89    0.24
  12  16 -12   60.18    1.82
 -12 -16  12   59.95    1.62
  10  16 -12    0.60    0.25
 -10 -16  12    0.47    0.19
   8  16 -12   56.34    1.71
  -8 -16  12   60.18    1.59
   6  16 -12    0.22    0.20
  -6 -16  12   -0.02    0.13
   4  16 -12   93.01    2.28
  -4 -16  12   91.57    2.18
   2  16 -12    1.71    0.30
  -2 -16  12    1.16    0.24
   0  16 -12   65.99    1.75
   0 -16  12   63.40    1.71
  -2  16 -12    1.12    0.26
   2 -16  12    1.36    0.26
  -4  16 -12   90.66    2.18
   4 -16  12   94.29    2.22
   6 -16  12    0.35    0.17
   8 -16  12   59.62    1.70
  10 -16  12    0.34    0.21
  12 -16  12   60.80    1.76
  14 -16  12    0.81    0.26
  16 -16  12   49.94    1.62
  18 -16  12    0.15    0.21
  20 -16  12   32.41    1.34
  22 -16  12    0.10    0.23
  24 -16  12   16.42    0.99
  26  14 -12    1.07    0.40
  24  14 -12    0.25    0.27
  22  14 -12   -0.03    0.21
  20  14 -12    0.16    0.25
  18  14 -12    1.81    0.37
  16  14 -12    1.12    0.31
  14  14 -12    0.52    0.23
  12  14 -12    1.62    0.32
 -12 -14  12    0.98    0.21
  10  14 -12    2.05    0.33
 -10 -14  12    1.60    0.25
   8  14 -12    0.49    0.20
  -8 -14  12    0.13    0.13
   6  14 -12    1.14    0.27
  -6 -14  12    0.72    0.19
   4  14 -12    1.20    0.26
  -4 -14  12    1.27    0.23
   2  14 -12    8.46    0.54
  -2 -14  12    7.21    0.47
   0  14 -12    0.02    0.14
   0 -14  12    0.16    0.14
  -2  14 -12    7.97    0.50
   2 -14  12    7.62    0.50
  -4  14 -12    0.84    0.21
   4 -14  12    0.96    0.22
  -6  14 -12    0.86    0.21
   6 -14  12    1.07    0.23
   8 -14  12    0.36    0.18
  10 -14  12    2.01    0.32
  12 -14  12    1.42    0.29
  14 -14  12    0.65    0.25
  16 -14  12    1.06    0.29
  18 -14  12    1.98    0.37
  20 -14  12    0.49    0.26
  22 -14  12    0.09    0.24
  24 -14  12    0.40    0.27
  24 -14  12    0.30    0.28
  26 -14  12    0.67    0.33
  28 -14  12    0.02    0.29
  30 -14  12    0.54    0.34
  26  12 -12    0.20    0.26
  24  12 -12   27.91    1.28
  22  12 -12   -0.35    0.19
  20  12 -12   17.59    0.96
  18  12 -12    0.11    0.18
  16  12 -12   59.01    1.81
  14  12 -12    1.23    0.28
  12  12 -12   33.51    1.22
 -12 -12  12   33.07    1.00
  10  12 -12    0.21    0.17
 -10 -12  12    0.42    0.16
   8  12 -12  115.17    2.68
  -8 -12  12  120.34    2.44
   6  12 -12    0.10    0.14
  -6 -12  12    0.34    0.13
   4  12 -12   78.02    1.94
  -4 -12  12   81.41    1.85
   2  12 -12    0.57    0.17
  -2 -12  12    0.27    0.14
   0  12 -12  169.30    3.40
   0 -12  12  170.71    3.32
  -2  12 -12    0.35    0.16
   2 -12  12    0.33    0.14
  -4  12 -12   77.95    1.80
   4 -12  12   77.97    1.87
  -6  12 -12   -0.04    0.12
   6 -12  12    0.36    0.17
  -8  12 -12  121.84    2.49
   8 -12  12  120.06    2.63
  10 -12  12    0.39    0.18
  12 -12  12   35.56    1.07
  12 -12  12   39.88    1.27
  14 -12  12    1.20    0.23
  14 -12  12    0.65    0.24
  16 -12  12   60.32    1.65
  16 -12  12   62.26    1.78
  18 -12  12    0.09    0.17
  18 -12  12   -0.25    0.15
  20 -12  12   19.26    0.95
  20 -12  12   17.59    0.88
  22 -12  12    0.08    0.21
  22 -12  12   -0.14    0.21
  24 -12  12   27.55    1.23
  24 -12  12   30.34    1.28
  26 -12  12    0.25    0.30
  26 -12  12    0.28    0.30
  28 -12  12   17.52    1.07
  30 -12  12    0.03    0.28
  32 -12  12   13.01    1.02
  26  10 -12    0.44    0.28
  24  10 -12    0.68    0.32
  22  10 -12    0.48    0.25
  20  10 -12    0.42    0.25
  18  10 -12    0.41    0.23
  16  10 -12    0.53    0.24
  14  10 -12    1.75    0.31
  12  10 -12    0.36    0.19
 -12 -10  12    0.51    0.14
  10  10 -12   19.97    0.87
 -10 -10  12   18.41    0.66
   8  10 -12    0.00    0.13
  -8 -10  12    0.17    0.10
   6  10 -12    0.05    0.12
  -6 -10  12    0.03    0.10
   4  10 -12    1.28    0.23
  -4 -10  12    1.20    0.19
   2  10 -12    3.87    0.33
  -2 -10  12    4.30    0.32
   0  10 -12    0.09    0.11
   0 -10  12    0.05    0.08
  -2  10 -12    4.08    0.32
   2 -10  12    4.45    0.34
  -4  10 -12    0.94    0.18
   4 -10  12    1.20    0.21
  -6  10 -12    0.05    0.11
   6 -10  12    0.08    0.07
   6 -10  12    0.11    0.11
  -8  10 -12    0.26    0.12
   8 -10  12    0.03    0.12
   8 -10  12    0.02    0.09
  10 -10  12   18.11    0.78
  10 -10  12   19.18    0.67
  12 -10  12    0.62    0.17
  12 -10  12    0.22    0.16
  14 -10  12    2.05    0.27
  14 -10  12    1.64    0.29
  16 -10  12    0.55    0.20
  16 -10  12    0.54    0.23
  18 -10  12    0.41    0.21
  18 -10  12    0.53    0.24
  20 -10  12    0.40    0.25
  20 -10  12    0.44    0.23
  22 -10  12    0.35    0.23
  22 -10  12    0.06    0.22
  24 -10  12    0.41    0.25
  24 -10  12    0.11    0.24
  26 -10  12    0.44    0.30
  26 -10  12    0.18    0.25
  28 -10  12    0.60    0.32
  30 -10  12    0.46    0.36
  32 -10  12    0.80    0.41
  26   8 -12   -0.23    0.21
  24   8 -12   25.57    1.19
  22   8 -12   -0.22    0.16
  20   8 -12   54.37    1.73
  18   8 -12    0.03    0.16
  16   8 -12   56.02    1.68
  14   8 -12    0.17    0.15
  12   8 -12  121.47    2.41
  12   8 -12  118.34    2.74
 -12  -8  12  118.97    2.30
  10   8 -12    0.05    0.10
  10   8 -12    0.09    0.13
 -10  -8  12    0.26    0.11
   8   8 -12  146.29    2.67
   8   8 -12  144.25    3.09
  -8  -8  12  145.79    2.74
   6   8 -12    0.20    0.14
   6   8 -12    0.06    0.07
  -6  -8  12    0.08    0.09
   4   8 -12  218.06    4.23
  -4  -8  12  224.07    3.97
   2   8 -12    0.65    0.16
  -2  -8  12    0.53    0.14
   0   8 -12  138.74    2.81
   0  -8  12  141.14    2.72
  -2   8 -12    0.55    0.15
   2  -8  12    0.55    0.16
  -4   8 -12  219.07    4.01
   4  -8  12  216.47    4.02
  -6   8 -12    0.15    0.11
   6  -8  12    0.05    0.09
   6  -8  12    0.24    0.09
  -8   8 -12  147.65    2.77
   8  -8  12  146.35    2.98
   8  -8  12  145.48    2.80
  10  -8  12    0.07    0.09
  10  -8  12   -0.11    0.10
  12  -8  12  119.87    2.50
  12  -8  12  117.65    2.62
  14  -8  12    0.16    0.17
  14  -8  12    0.06    0.13
  16  -8  12   59.23    1.68
  16  -8  12   58.78    1.62
  18  -8  12    0.15    0.17
  18  -8  12    0.23    0.17
  20  -8  12   51.42    1.61
  20  -8  12   52.55    1.65
  22  -8  12   -0.01    0.21
  22  -8  12    0.09    0.19
  24  -8  12   26.07    1.19
  24  -8  12   26.42    1.17
  26  -8  12    0.07    0.24
  26  -8  12    0.20    0.26
  28  -8  12   21.50    1.16
  30  -8  12   -0.19    0.22
  32  -8  12    9.79    0.91
  26   6 -12    0.91    0.37
  26   6 -12    0.93    0.33
  24   6 -12    0.18    0.26
  24   6 -12   -0.06    0.22
  22   6 -12    0.20    0.24
  22   6 -12   -0.03    0.19
  20   6 -12    0.05    0.18
  20   6 -12    0.07    0.20
  18   6 -12    0.03    0.18
  18   6 -12    0.11    0.17
  16   6 -12   -0.06    0.17
  16   6 -12    0.11    0.16
  14   6 -12    1.00    0.24
  14   6 -12    1.28    0.22
  12   6 -12    0.22    0.18
  12   6 -12    0.33    0.14
  10   6 -12   -0.07    0.09
  10   6 -12    0.21    0.14
 -10  -6  12    0.16    0.08
   8   6 -12    0.08    0.09
   8   6 -12   -0.13    0.11
  -8  -6  12    0.21    0.09
   6   6 -12    0.97    0.20
   6   6 -12    0.92    0.13
  -6  -6  12    1.34    0.15
   4   6 -12    1.69    0.23
   4   6 -12    1.83    0.15
  -4  -6  12    1.72    0.18
   2   6 -12    2.02    0.15
   2   6 -12    2.21    0.24
  -2  -6  12    2.59    0.23
   0   6 -12   -0.02    0.08
   0  -6  12    0.22    0.09
  -2   6 -12    2.06    0.21
   2  -6  12    2.46    0.23
  -4   6 -12    1.64    0.19
   4  -6  12    1.73    0.22
  -6   6 -12    0.94    0.14
   6  -6  12    0.75    0.17
  -8   6 -12    0.24    0.09
   8  -6  12    0.23    0.10
   8  -6  12   -0.07    0.09
  10  -6  12    0.11    0.10
  10  -6  12   -0.03    0.09
  12  -6  12    0.14    0.11
  12  -6  12    0.38    0.18
  14  -6  12    1.16    0.22
  14  -6  12    1.32    0.26
  16  -6  12    0.09    0.16
  16  -6  12    0.09    0.15
  18  -6  12    0.01    0.14
  18  -6  12    0.34    0.21
  20  -6  12    0.01    0.17
  20  -6  12    0.36    0.21
  22  -6  12    0.51    0.26
  22  -6  12   -0.04    0.19
  24  -6  12    0.10    0.24
  24  -6  12    0.17    0.20
  26  -6  12    0.73    0.29
  26  -6  12    0.58    0.30
  28  -6  12    0.05    0.27
  30  -6  12   -0.10    0.28
  32  -6  12   -0.05    0.31
  32   4 -12   17.01    1.13
  30   4 -12   -0.03    0.34
  28   4 -12   17.24    1.02
  26   4 -12   -0.04    0.27
  26   4 -12    0.19    0.25
  24   4 -12   42.82    1.52
  24   4 -12   41.60    1.53
  22   4 -12    0.43    0.24
  22   4 -12   -0.15    0.20
  20   4 -12   26.01    1.10
  20   4 -12   28.22    1.08
  18   4 -12    0.38    0.20
  18   4 -12    0.58    0.22
  16   4 -12   96.92    2.21
  16   4 -12   92.40    2.35
  14   4 -12    1.05    0.22
  14   4 -12    1.00    0.25
  12   4 -12   76.64    1.96
  12   4 -12   76.85    1.73
  10   4 -12    1.18    0.23
  10   4 -12    1.13    0.18
 -10  -4  12    1.09    0.12
   8   4 -12  222.14    4.33
   8   4 -12  223.24    4.00
  -8  -4  12  222.42    3.81
   6   4 -12    1.62    0.16
   6   4 -12    1.26    0.21
  -6  -4  12    1.80    0.17
   4   4 -12  134.59    2.75
   4   4 -12  135.59    2.46
  -4  -4  12  130.78    2.45
   2   4 -12    2.92    0.27
   2   4 -12    2.86    0.21
  -2  -4  12    3.34    0.24
   0   4 -12  369.64    6.55
   0  -4  12  370.79    6.28
  -2   4 -12    2.86    0.24
   2  -4  12    3.52    0.27
  -4   4 -12  142.57    2.65
   4  -4  12  134.01    2.68
  -6   4 -12    1.62    0.16
   6  -4  12    1.73    0.23
  -8   4 -12  233.86    4.03
   8  -4  12  227.79    4.25
   8  -4  12  225.81    4.18
  10  -4  12    0.61    0.17
  10  -4  12    1.39    0.20
  12  -4  12   77.06    1.88
  12  -4  12   78.73    1.83
  14  -4  12    1.32    0.24
  14  -4  12    1.28    0.26
  16  -4  12   91.58    2.18
  16  -4  12   88.18    2.17
  18  -4  12    0.22    0.18
  18  -4  12    0.30    0.18
  20  -4  12   27.55    1.12
  20  -4  12   26.61    1.09
  22  -4  12    0.21    0.20
  22  -4  12    0.18    0.19
  24  -4  12   40.49    1.45
  24  -4  12   39.90    1.51
  26  -4  12    0.22    0.23
  26  -4  12    0.28    0.22
  28  -4  12   16.12    1.00
  30  -4  12    0.12    0.27
  32  -4  12   14.49    1.05
  34   2 -12    0.32    0.43
  32   2 -12    0.24    0.39
  30   2 -12    0.08    0.32
  28   2 -12    0.14    0.32
  26   2 -12    0.61    0.34
  26   2 -12    0.17    0.24
  24   2 -12    0.26    0.26
  24   2 -12   -0.34    0.20
  22   2 -12    0.12    0.19
  22   2 -12    0.01    0.22
  20   2 -12    0.62    0.26
  20   2 -12    0.28    0.22
  18   2 -12    1.96    0.33
  18   2 -12    1.77    0.31
  16   2 -12    0.89    0.23
  16   2 -12    1.20    0.27
  14   2 -12    7.08    0.51
  14   2 -12    7.20    0.45
  12   2 -12    0.46    0.20
  12   2 -12    0.43    0.16
  10   2 -12    3.45    0.35
  10   2 -12    4.20    0.31
 -10  -2  12    4.21    0.19
   8   2 -12    0.41    0.12
   8   2 -12    0.53    0.18
  -8  -2  12    0.52    0.09
   6   2 -12    2.04    0.25
   6   2 -12    2.18    0.20
  -6  -2  12    2.39    0.17
   4   2 -12    2.98    0.23
   4   2 -12    2.72    0.27
  -4  -2  12    3.12    0.20
   2   2 -12   10.51    0.41
   2   2 -12   10.66    0.49
  -2  -2  12   10.89    0.42
   0   2 -12   -0.06    0.09
   0  -2  12    0.10    0.09
  -2   2 -12   11.13    0.46
   2  -2  12   10.81    0.47
  -4   2 -12    3.19    0.24
   4  -2  12    2.78    0.26
  -6   2 -12    2.07    0.18
   6  -2  12    2.26    0.25
  -8   2 -12    0.25    0.09
   8  -2  12    0.40    0.15
  10  -2  12    3.07    0.28
  10  -2  12    3.74    0.34
  12  -2  12    0.44    0.19
  12  -2  12    0.92    0.19
  14  -2  12    7.37    0.48
  14  -2  12    8.53    0.53
  16  -2  12    0.86    0.25
  16  -2  12    0.93    0.22
  18  -2  12    1.63    0.29
  18  -2  12    1.99    0.33
  20  -2  12    1.25    0.30
  20  -2  12    0.56    0.24
  22  -2  12   -0.26    0.13
  22  -2  12    0.27    0.20
  24  -2  12    0.25    0.20
  24  -2  12    0.40    0.26
 -26   2 -12    0.49    0.26
  26  -2  12    0.70    0.32
 -28   2 -12    0.21    0.24
  28  -2  12    0.40    0.29
  30  -2  12    0.39    0.30
  32  -2  12    0.83    0.37
  34   0 -12    0.07    0.42
  32   0 -12   11.35    0.96
  30   0 -12   -0.33    0.31
  28   0 -12   24.62    1.27
  26   0 -12   -0.10    0.21
  26   0 -12    0.23    0.26
  24   0 -12   22.34    1.07
  24   0 -12   23.01    1.10
  22   0 -12    0.29    0.24
  22   0 -12    0.23    0.21
  20   0 -12   41.58    1.45
  20   0 -12   45.33    1.46
  18   0 -12    0.18    0.18
  18   0 -12    0.11    0.17
  16   0 -12   61.29    1.73
  16   0 -12   60.82    1.63
  14   0 -12    0.00    0.13
  14   0 -12   -0.09    0.13
  12   0 -12  168.57    3.32
  10   0 -12    0.35    0.14
   8   0 -12  141.99    2.76
  -8   0  12  140.62    2.42
   6   0 -12   -0.01    0.08
  -6   0  12   -0.02    0.05
   4   0 -12  362.49    6.30
  -4   0  12  363.73    6.02
   2   0 -12    0.00    0.08
  -2   0  12    0.01    0.07
   0   0  12  303.37    5.19
   2   0  12    0.04    0.09
   4   0  12  355.68    6.11
   6   0  12   -0.06    0.08
   8   0  12  139.10    2.80
  10   0  12   -0.03    0.09
  12   0  12  173.46    3.50
  12   0  12  179.52    3.53
  14   0  12   -0.15    0.10
  14   0  12    0.06    0.14
  16   0  12   64.41    1.75
  16   0  12   64.67    1.74
  18   0  12   -0.01    0.14
  18   0  12   -0.08    0.12
  20   0  12   43.76    1.43
  20   0  12   42.83    1.44
 -22   0 -12    0.23    0.19
  22   0  12   -0.27    0.12
 -24   0 -12   20.36    0.98
  24   0  12   20.61    1.03
 -26   0 -12   -0.03    0.19
  26   0  12   -0.14    0.18
 -28   0 -12   22.58    1.11
  28   0  12   23.66    1.21
  30   0  12    0.21    0.26
  32   0  12   11.71    0.93
  32  -2 -12    0.21    0.39
  30  -2 -12    0.44    0.37
  28  -2 -12    0.27    0.34
  26  -2 -12    0.44    0.31
  24  -2 -12    0.42    0.26
  24  -2 -12    0.23    0.26
  22  -2 -12   -0.05    0.22
  22  -2 -12    0.12    0.20
  20  -2 -12    0.57    0.26
  20  -2 -12    1.20    0.30
  18  -2 -12    1.62    0.31
  18  -2 -12    1.73    0.30
  16  -2 -12    1.66    0.29
  14  -2 -12    7.55    0.49
  12  -2 -12    0.66    0.19
  10  -2 -12    3.69    0.32
   8  -2 -12    0.47    0.14
   8  -2 -12    0.44    0.07
   6  -2 -12    2.39    0.23
   4  -2 -12    3.23    0.26
  -4   2  12    2.58    0.19
   2  -2 -12   10.45    0.47
  -2   2  12   10.47    0.40
   0   2  12   -0.05    0.08
   2   2  12   10.29    0.45
   4   2  12    3.13    0.28
   6   2  12    2.18    0.24
   8   2  12    0.32    0.14
  10   2  12    3.69    0.33
  12   2  12    0.27    0.17
  14   2  12    7.13    0.48
  14   2  12    6.98    0.49
 -16  -2 -12    1.09    0.23
  16   2  12    1.04    0.24
  16   2  12    1.40    0.27
 -18  -2 -12    2.09    0.31
  18   2  12    2.04    0.32
 -20  -2 -12    0.51    0.22
  20   2  12    0.79    0.25
 -22  -2 -12   -0.10    0.15
  22   2  12    0.11    0.21
 -24  -2 -12   -0.29    0.17
  24   2  12    0.19    0.20
 -26  -2 -12    0.43    0.24
  26   2  12    0.60    0.26
 -28  -2 -12   -0.18    0.25
  28   2  12    0.07    0.23
  30   2  12    0.12    0.25
  32   2  12    0.31    0.29
  32  -4 -12   14.32    1.09
  30  -4 -12   -0.08    0.31
  28  -4 -12   16.20    1.06
  26  -4 -12    0.42    0.30
  24  -4 -12   44.18    1.61
  24  -4 -12   41.39    1.50
  22  -4 -12   -0.19    0.20
  22  -4 -12    0.07    0.19
  20  -4 -12   26.78    1.11
  18  -4 -12    0.63    0.26
  16  -4 -12   94.76    2.28
  14  -4 -12    1.16    0.24
  12  -4 -12   79.13    1.90
  10  -4 -12    1.31    0.22
   8  -4 -12  229.11    4.22
   8  -4 -12  218.44    3.68
   6  -4 -12    1.52    0.20
   6  -4 -12    1.57    0.13
   4  -4 -12  138.24    2.45
   4  -4 -12  135.99    2.73
   2  -4 -12    3.17    0.23
   2  -4 -12    3.36    0.29
   0  -4 -12  362.70    6.12
  -2  -4 -12    3.04    0.25
  -4  -4 -12  130.85    2.55
  -6  -4 -12    1.79    0.22
  -8  -4 -12  213.83    3.98
 -10  -4 -12    1.17    0.22
 -12  -4 -12   77.08    1.87
 -14  -4 -12    0.80    0.22
 -16  -4 -12   90.93    2.19
  16   4  12   91.20    2.25
 -18  -4 -12    0.37    0.20
  18   4  12    0.61    0.23
 -20  -4 -12   24.98    1.03
  20   4  12   26.49    1.11
 -22  -4 -12    0.03    0.19
  22   4  12   -0.19    0.19
 -24  -4 -12   41.02    1.46
  24   4  12   40.22    1.53
 -26  -4 -12    0.18    0.22
  26   4  12    0.17    0.23
 -28  -4 -12   15.68    0.94
  28   4  12   15.59    0.98
  30   4  12   -0.08    0.26
  32   4  12   12.58    1.00
  32  -6 -12    0.00    0.40
  30  -6 -12   -0.09    0.34
  28  -6 -12    0.48    0.32
  26  -6 -12    0.91    0.39
  24  -6 -12    0.22    0.29
  22  -6 -12   -0.03    0.22
  20  -6 -12    0.05    0.21
  18  -6 -12    0.06    0.19
  16  -6 -12    0.19    0.18
  14  -6 -12    0.86    0.24
  12  -6 -12    0.20    0.16
  10  -6 -12    0.07    0.12
   8  -6 -12    0.05    0.07
   8  -6 -12   -0.01    0.11
   6  -6 -12    0.94    0.12
   6  -6 -12    1.09    0.19
   4  -6 -12    1.81    0.17
   4  -6 -12    1.70    0.23
   2  -6 -12    2.58    0.21
   2  -6 -12    2.24    0.25
   0  -6 -12   -0.04    0.08
  -2  -6 -12    2.17    0.23
  -4  -6 -12    1.35    0.19
  -6  -6 -12    0.99    0.18
  -8  -6 -12    0.05    0.11
 -10  -6 -12    0.24    0.14
 -12  -6 -12   -0.05    0.12
 -14  -6 -12    0.89    0.23
 -16  -6 -12   -0.04    0.15
 -18  -6 -12   -0.13    0.13
 -20  -6 -12    0.12    0.18
  20   6  12    0.20    0.20
 -22  -6 -12    0.09    0.18
  22   6  12    0.05    0.19
 -24  -6 -12   -0.10    0.18
  24   6  12   -0.06    0.16
 -26  -6 -12    1.01    0.32
  26   6  12    0.76    0.32
 -28  -6 -12   -0.08    0.23
  28   6  12    0.12    0.27
  30   6  12   -0.43    0.24
  32   6  12   -0.17    0.33
  32  -8 -12    8.99    0.90
  30  -8 -12    0.01    0.35
  28  -8 -12   19.09    1.14
  26  -8 -12   -0.25    0.29
  24  -8 -12   24.68    1.22
  22  -8 -12    0.30    0.25
  20  -8 -12   50.93    1.66
  18  -8 -12   -0.03    0.19
  16  -8 -12   57.77    1.69
  14  -8 -12    0.10    0.16
  10  -8 -12    0.24    0.16
   8  -8 -12  136.49    2.40
   8  -8 -12  135.33    2.85
   6  -8 -12    0.02    0.13
   6  -8 -12    0.22    0.09
   4  -8 -12  222.07    4.24
   4  -8 -12  220.82    3.84
   2  -8 -12    0.75    0.14
   2  -8 -12    0.28    0.15
   0  -8 -12  137.60    2.62
  -2  -8 -12    0.62    0.16
  -4  -8 -12  232.83    4.25
  -6  -8 -12   -0.09    0.10
  -8  -8 -12  141.06    2.89
 -10  -8 -12    0.29    0.16
 -12  -8 -12  114.25    2.55
 -14  -8 -12    0.18    0.15
 -16  -8 -12   55.63    1.62
 -18  -8 -12    0.06    0.18
 -20  -8 -12   49.40    1.59
 -22  -8 -12   -0.09    0.15
 -24  -8 -12   22.24    1.07
 -26  -8 -12    0.24    0.22
 -28  -8 -12   18.78    1.04
 -30  -8 -12    0.13    0.27
  30 -10 -12    0.48    0.40
  28 -10 -12    0.15    0.32
  26 -10 -12    0.39    0.33
  24 -10 -12    0.20    0.28
  22 -10 -12    0.05    0.25
  20 -10 -12    0.65    0.31
  18 -10 -12    0.35    0.25
  16 -10 -12    0.91    0.28
  14 -10 -12    1.75    0.31
  12 -10 -12    0.41    0.20
  10 -10 -12   17.43    0.78
   8 -10 -12    0.15    0.10
   8 -10 -12    0.08    0.12
   6 -10 -12   -0.02    0.08
   6 -10 -12    0.20    0.14
  -6  10  12    0.13    0.09
   4 -10 -12    0.82    0.20
   4 -10 -12    1.42    0.18
  -4  10  12    0.58    0.12
   2 -10 -12    4.25    0.37
   2 -10 -12    3.96    0.29
  -2  10  12    3.78    0.28
   0 -10 -12    0.04    0.11
   0 -10 -12    0.21    0.11
   0  10  12    0.12    0.10
  -2 -10 -12    3.60    0.30
  -4 -10 -12    0.99    0.20
  -6 -10 -12    0.15    0.12
  -8 -10 -12    0.17    0.15
 -10 -10 -12   18.80    0.81
 -12 -10 -12    0.53    0.20
 -14 -10 -12    1.69    0.30
 -16 -10 -12    0.39    0.22
 -18 -10 -12    1.03    0.27
 -20 -10 -12    0.23    0.19
 -22 -10 -12    0.27    0.22
 -24 -10 -12    0.17    0.27
 -26 -10 -12   -0.04    0.21
 -28 -10 -12   -0.06    0.23
  30 -12 -12   -0.06    0.33
  28 -12 -12   16.44    1.14
  26 -12 -12    0.63    0.39
  24 -12 -12   27.31    1.32
  22 -12 -12   -0.11    0.23
  20 -12 -12   19.92    1.03
  18 -12 -12    0.05    0.21
  16 -12 -12   61.28    1.84
  14 -12 -12    1.51    0.31
  12 -12 -12   35.97    1.25
  10 -12 -12    0.54    0.21
   8 -12 -12  113.53    2.59
   6 -12 -12    0.12    0.11
   6 -12 -12   -0.06    0.12
  -6  12  12    0.13    0.10
   4 -12 -12   78.32    1.93
   4 -12 -12   76.76    1.66
  -4  12  12   75.79    1.67
   2 -12 -12    0.21    0.17
   2 -12 -12    0.43    0.15
  -2  12  12    0.62    0.15
   0 -12 -12  170.43    3.50
   0 -12 -12  170.86    3.26
   0  12  12  171.71    3.26
  -2 -12 -12    0.62    0.17
   2  12  12    0.47    0.15
  -4 -12 -12   75.14    1.80
   4  12  12   78.60    1.81
  -6 -12 -12    0.22    0.16
  -8 -12 -12  120.98    2.65
 -10 -12 -12    0.70    0.22
 -12 -12 -12   33.23    1.16
 -14 -12 -12    1.25    0.28
 -16 -12 -12   57.97    1.72
 -18 -12 -12    0.17    0.18
 -20 -12 -12   16.80    0.89
 -22 -12 -12    0.21    0.21
 -24 -12 -12   25.78    1.21
 -26 -12 -12   -0.17    0.21
 -28 -12 -12   14.39    0.96
  30 -14 -12    0.24    0.39
  28 -14 -12    0.40    0.40
  26 -14 -12    1.31    0.46
  24 -14 -12    0.45    0.34
  22 -14 -12   -0.14    0.20
  20 -14 -12    0.59    0.28
  18 -14 -12    1.08    0.33
  16 -14 -12    0.86    0.28
  14 -14 -12    0.40    0.24
  12 -14 -12    1.14    0.29
  10 -14 -12    1.37    0.29
   8 -14 -12    0.51    0.22
   6 -14 -12    1.06    0.25
   6 -14 -12    0.79    0.17
   4 -14 -12    1.07    0.24
   4 -14 -12    1.26    0.20
  -4  14  12    1.36    0.22
   2 -14 -12    6.92    0.49
   2 -14 -12    7.21    0.44
  -2  14  12    7.00    0.42
   0 -14 -12   -0.13    0.09
   0 -14 -12   -0.15    0.11
   0  14  12    0.14    0.12
  -2 -14 -12    7.57    0.48
   2  14  12    7.78    0.48
  -4 -14 -12    0.95    0.23
   4  14  12    1.04    0.22
  -6 -14 -12    1.01    0.24
   6  14  12    0.81    0.22
  -8 -14 -12    0.64    0.23
   8  14  12    0.08    0.15
 -10 -14 -12    1.55    0.30
 -12 -14 -12    1.07    0.28
 -14 -14 -12    0.50    0.23
 -16 -14 -12    0.71    0.26
 -18 -14 -12    1.39    0.32
 -20 -14 -12    0.28    0.24
 -22 -14 -12    0.12    0.21
 -24 -14 -12    0.21    0.26
 -26 -14 -12    1.49    0.41
  28 -16 -12   15.38    1.11
  26 -16 -12    0.52    0.34
  24 -16 -12   16.33    1.03
  22 -16 -12    0.10    0.29
  20 -16 -12   29.84    1.32
  18 -16 -12   -0.22    0.18
  16 -16 -12   44.27    1.56
  14 -16 -12    0.75    0.26
  12 -16 -12   57.49    1.75
  10 -16 -12    0.58    0.23
   8 -16 -12   57.04    1.67
   6 -16 -12    0.01    0.14
   6 -16 -12    0.00    0.16
   4 -16 -12   87.10    1.99
   4 -16 -12   92.22    2.25
   2 -16 -12    1.02    0.22
   2 -16 -12    1.52    0.30
   0 -16 -12   62.75    1.61
   0 -16 -12   61.18    1.72
   0  16  12   62.23    1.60
  -2 -16 -12    1.02    0.24
  -2 -16 -12    0.95    0.25
   2  16  12    1.30    0.25
  -4 -16 -12   93.94    2.21
   4  16  12   93.93    2.20
  -6 -16 -12   -0.07    0.17
   6  16  12    0.14    0.14
  -8 -16 -12   56.36    1.65
   8  16  12   60.07    1.66
 -10 -16 -12    0.52    0.24
  10  16  12    0.42    0.21
 -12 -16 -12   54.77    1.66
 -14 -16 -12    0.86    0.26
 -16 -16 -12   43.75    1.51
 -18 -16 -12   -0.18    0.14
 -20 -16 -12   29.45    1.27
 -22 -16 -12    0.28    0.24
 -24 -16 -12   15.55    0.97
 -26 -16 -12   -0.15    0.24
  26 -18 -12    0.76    0.41
  24 -18 -12   -0.02    0.27
  22 -18 -12    0.32    0.31
  20 -18 -12    0.18    0.23
  18 -18 -12    0.09    0.22
  16 -18 -12    0.33    0.24
  14 -18 -12    1.37    0.33
  12 -18 -12    0.15    0.20
  10 -18 -12    0.84    0.27
   8 -18 -12   -0.11    0.17
   6 -18 -12    0.38    0.20
   6 -18 -12    0.02    0.16
   4 -18 -12    0.27    0.17
   4 -18 -12    0.81    0.22
   2 -18 -12    2.12    0.31
   2 -18 -12    1.81    0.32
   0 -18 -12   -0.02    0.17
   0 -18 -12    0.20    0.19
  -2 -18 -12    2.23    0.34
  -2 -18 -12    1.75    0.31
   2  18  12    1.94    0.30
  -4 -18 -12    0.78    0.26
   4  18  12    0.46    0.20
  -6 -18 -12    0.10    0.19
   6  18  12    0.17    0.16
  -8 -18 -12    0.11    0.18
   8  18  12    0.24    0.18
 -10 -18 -12    0.13    0.21
  10  18  12    0.58    0.23
 -12 -18 -12    0.25    0.23
  12  18  12   -0.02    0.16
 -14 -18 -12    1.19    0.33
 -16 -18 -12   -0.21    0.19
 -18 -18 -12   -0.07    0.17
 -20 -18 -12    0.11    0.26
 -22 -18 -12    0.33    0.28
 -24 -18 -12    0.25    0.28
  26 -20 -12    0.22    0.32
  24 -20 -12   18.18    1.13
  22 -20 -12    0.00    0.25
  20 -20 -12   15.01    0.97
  18 -20 -12    0.04    0.25
  16 -20 -12   32.76    1.38
  14 -20 -12    0.28    0.23
  12 -20 -12   16.11    0.89
  10 -20 -12    0.30    0.23
   8 -20 -12   48.91    1.59
   6 -20 -12    0.33    0.21
   6 -20 -12    0.11    0.19
   4 -20 -12   28.96    1.14
   4 -20 -12   26.51    1.01
   2 -20 -12    0.31    0.21
   2 -20 -12    0.77    0.25
   0 -20 -12   40.52    1.40
   0 -20 -12   45.85    1.40
  -2 -20 -12    0.16    0.20
  -2 -20 -12    0.64    0.25
  -4 -20 -12   26.78    1.09
  -4 -20 -12   27.60    1.11
   4  20  12   27.46    1.07
  -6 -20 -12   -0.25    0.20
   6  20  12    0.27    0.19
  -8 -20 -12   51.74    1.66
   8  20  12   51.22    1.62
 -10 -20 -12    0.53    0.26
  10  20  12    0.62    0.24
 -12 -20 -12   18.12    0.97
  12  20  12   17.08    0.91
 -14 -20 -12    0.54    0.28
 -16 -20 -12   29.47    1.29
 -18 -20 -12    0.48    0.26
 -20 -20 -12   14.04    0.92
 -22 -20 -12   -0.20    0.25
  24 -22 -12    0.29    0.33
  22 -22 -12    0.67    0.36
  20 -22 -12   -0.18    0.24
  18 -22 -12    0.48    0.30
  16 -22 -12   -0.19    0.19
  14 -22 -12    0.01    0.21
  12 -22 -12   -0.07    0.21
  10 -22 -12    0.56    0.26
   8 -22 -12    0.42    0.25
   6 -22 -12    0.16    0.19
   4 -22 -12    0.02    0.20
   4 -22 -12    0.05    0.19
   2 -22 -12    0.02    0.18
   2 -22 -12    0.14    0.21
   0 -22 -12   -0.22    0.16
   0 -22 -12   -0.01    0.19
  -2 -22 -12    0.10    0.23
  -2 -22 -12   -0.02    0.17
  -4 -22 -12    0.01    0.21
  -4 -22 -12    0.07    0.20
   4  22  12    0.08    0.19
  -6 -22 -12   -0.22    0.21
   6  22  12   -0.14    0.17
  -8 -22 -12   -0.05    0.22
   8  22  12   -0.12    0.18
 -10 -22 -12    0.01    0.21
  10  22  12    0.08    0.21
 -12 -22 -12   -0.07    0.26
  12  22  12   -0.10    0.18
 -14 -22 -12    0.01    0.26
  14  22  12    0.12    0.23
 -16 -22 -12    0.16    0.25
 -18 -22 -12    0.33    0.30
  22 -24 -12   -0.19    0.29
  20 -24 -12   18.33    1.13
  18 -24 -12    0.07    0.26
  16 -24 -12   15.69    0.99
  14 -24 -12    0.34    0.27
  12 -24 -12   22.85    1.12
  10 -24 -12   -0.19    0.22
   8 -24 -12   22.88    1.09
   6 -24 -12   -0.01    0.23
   4 -24 -12   40.18    1.44
   4 -24 -12   37.38    1.33
   2 -24 -12   -0.12    0.21
   2 -24 -12   -0.21    0.20
   0 -24 -12   20.14    0.99
   0 -24 -12   20.81    0.99
  -2 -24 -12    0.22    0.23
  -2 -24 -12    0.26    0.23
  -4 -24 -12   41.74    1.51
  -4 -24 -12   41.54    1.49
   4  24  12   41.77    1.51
  -6 -24 -12   -0.04    0.19
  -6 -24 -12   -0.09    0.23
   6  24  12    0.40    0.23
  -8 -24 -12   24.21    1.17
   8  24  12   24.90    1.17
 -10 -24 -12    0.33    0.31
  10  24  12    0.31    0.23
 -12 -24 -12   26.79    1.26
  12  24  12   26.04    1.23
 -14 -24 -12    0.42    0.32
  14  24  12    0.30    0.24
 -16 -24 -12   15.47    1.00
  20 -26 -12    0.05    0.32
  18 -26 -12    0.12    0.30
  16 -26 -12   -0.03    0.29
  14 -26 -12    1.24    0.36
  12 -26 -12    0.28    0.27
  10 -26 -12   -0.17    0.19
   8 -26 -12    0.02    0.22
   6 -26 -12    0.56    0.30
   4 -26 -12    0.09    0.25
   4 -26 -12    0.00    0.21
   2 -26 -12    0.43    0.26
   2 -26 -12   -0.02    0.24
   0 -26 -12    0.17    0.23
   0 -26 -12    0.20    0.26
  -2 -26 -12    0.14    0.23
  -2 -26 -12    0.76    0.34
  -4 -26 -12    0.02    0.19
  -4 -26 -12    0.17    0.27
  -6 -26 -12    0.17    0.27
  -6 -26 -12    0.67    0.28
   6  26  12    1.21    0.36
  -8 -26 -12    0.08    0.30
  -8 -26 -12    0.60    0.30
   8  26  12    0.16    0.25
 -10 -26 -12   -0.15    0.29
  10  26  12   -0.17    0.21
 -12 -26 -12   -0.13    0.26
  12  26  12    0.22    0.25
 -14 -26 -12    1.69    0.47
  14  26  12    1.40    0.42
  18 -28 -12    0.23    0.37
  16 -28 -12   17.80    1.12
  14 -28 -12   -0.12    0.24
  12 -28 -12   14.53    0.96
  10 -28 -12    0.31    0.29
   8 -28 -12   22.34    1.14
   6 -28 -12   -0.27    0.23
   4 -28 -12   15.95    0.95
   2 -28 -12    0.49    0.31
   2 -28 -12   -0.32    0.23
   0 -28 -12   24.30    1.17
   0 -28 -12   25.15    1.20
  -2 -28 -12    0.66    0.32
  -2 -28 -12    0.29    0.28
  -4 -28 -12   15.71    0.99
  -4 -28 -12   17.20    0.98
  -6 -28 -12   -0.20    0.24
  -6 -28 -12    0.22    0.30
   6  28  12    0.06    0.24
  -8 -28 -12   21.49    1.11
  -8 -28 -12   21.22    1.20
   8  28  12   19.79    1.11
 -10 -28 -12    0.98    0.42
 -10 -28 -12    0.42    0.31
  10  28  12    0.52    0.30
  12  28  12   17.39    1.08
  16 -30 -12    0.41    0.37
  14 -30 -12    0.11    0.33
  12 -30 -12   -0.09    0.28
  10 -30 -12    0.63    0.34
   8 -30 -12    0.11    0.29
   6 -30 -12    0.02    0.28
   4 -30 -12   -0.22    0.22
   2 -30 -12    0.03    0.29
   2 -30 -12    0.01    0.27
   0 -30 -12   -0.16    0.29
  -2 -30 -12    0.23    0.33
  -4 -30 -12    0.30    0.33
   4  30  12    0.00    0.25
   6  30  12   -0.33    0.25
  -7 -29  13    0.12    0.27
  -5 -29  13   -0.08    0.22
  -3 -29  13    0.26    0.28
  -1 -29  13    0.01    0.25
   1 -29  13    0.05    0.24
   3 -29  13   -0.01    0.24
  19  27 -13    0.03    0.37
  17  27 -13    0.23    0.36
  15  27 -13    0.18    0.34
  13  27 -13   -0.04    0.30
 -13 -27  13    0.11    0.26
  11  27 -13    0.36    0.36
 -11 -27  13    0.03    0.24
   9  27 -13    0.02    0.30
  -9 -27  13    0.11    0.23
  -7 -27  13    0.16    0.25
  -5 -27  13    0.10    0.21
  -3 -27  13   -0.21    0.21
  -1 -27  13    0.20    0.25
   1 -27  13   -0.03    0.22
   3 -27  13    0.26    0.25
   5 -27  13   -0.23    0.24
   7 -27  13   -0.18    0.22
   9 -27  13   -0.08    0.27
  11 -27  13    0.17    0.30
  21  25 -13    0.14    0.34
  19  25 -13    0.06    0.35
  17  25 -13   -0.11    0.31
  15  25 -13   -0.10    0.27
  13  25 -13   -0.23    0.25
 -13 -25  13    0.10    0.23
  11  25 -13    0.02    0.27
 -11 -25  13   -0.15    0.19
   9  25 -13    0.29    0.31
  -9 -25  13    0.30    0.22
   7  25 -13   -0.24    0.27
  -7 -25  13    0.02    0.17
   5  25 -13   -0.24    0.25
  -5 -25  13    0.02    0.19
  -3 -25  13   -0.03    0.20
  -1 -25  13    0.08    0.21
   1 -25  13    0.09    0.20
   3 -25  13    0.18    0.21
   5 -25  13   -0.19    0.20
   7 -25  13    0.08    0.25
   9 -25  13    0.39    0.31
  11 -25  13    0.26    0.29
  13 -25  13   -0.03    0.26
  15 -25  13    0.25    0.31
  23  23 -13    0.18    0.34
  21  23 -13   -0.24    0.27
  19  23 -13   -0.21    0.29
  17  23 -13   -0.03    0.28
  15  23 -13    0.26    0.30
  13  23 -13    0.24    0.28
 -13 -23  13   -0.17    0.18
  11  23 -13    0.21    0.29
 -11 -23  13   -0.03    0.16
   9  23 -13    0.16    0.29
  -9 -23  13    0.35    0.21
   7  23 -13   -0.13    0.26
  -7 -23  13    0.24    0.21
   5  23 -13    0.17    0.30
  -5 -23  13    0.37    0.24
   3  23 -13    0.23    0.28
  -3 -23  13   -0.03    0.19
   1  23 -13   -0.23    0.22
  -1 -23  13    0.01    0.18
   1 -23  13   -0.12    0.16
   3 -23  13    0.49    0.25
   5 -23  13    0.35    0.23
   7 -23  13   -0.02    0.21
   9 -23  13    0.03    0.24
  11 -23  13    0.12    0.26
  13 -23  13   -0.09    0.21
  15 -23  13    0.13    0.27
  17 -23  13    0.49    0.34
  19 -23  13   -0.12    0.27
  25  21 -13   -0.01    0.36
  23  21 -13   -0.51    0.25
  21  21 -13    0.19    0.30
  19  21 -13   -0.15    0.25
  17  21 -13   -0.08    0.25
  15  21 -13   -0.10    0.22
  13  21 -13   -0.32    0.21
 -13 -21  13    0.14    0.19
  11  21 -13    0.07    0.22
 -11 -21  13    0.17    0.18
   9  21 -13   -0.06    0.22
  -9 -21  13    0.04    0.16
   7  21 -13    0.44    0.30
  -7 -21  13    0.99    0.27
   5  21 -13   -0.13    0.20
  -5 -21  13   -0.02    0.18
   3  21 -13   -0.11    0.19
  -3 -21  13   -0.03    0.16
   1  21 -13   -0.14    0.20
  -1 -21  13    0.07    0.16
  -1  21 -13    0.13    0.23
   1 -21  13    0.09    0.16
   3 -21  13   -0.08    0.15
   5 -21  13   -0.22    0.16
   7 -21  13    0.52    0.25
   9 -21  13    0.24    0.22
  11 -21  13   -0.04    0.20
  13 -21  13   -0.08    0.22
  15 -21  13   -0.09    0.21
  17 -21  13   -0.07    0.21
  19 -21  13   -0.06    0.24
  21 -21  13    0.19    0.32
  27  19 -13   -0.28    0.34
  25  19 -13    0.21    0.36
  23  19 -13   -0.29    0.29
  21  19 -13    0.03    0.29
  19  19 -13    0.02    0.25
  17  19 -13   -0.24    0.25
  15  19 -13   -0.08    0.23
  13  19 -13   -0.04    0.21
 -13 -19  13    0.26    0.18
  11  19 -13   -0.16    0.16
 -11 -19  13   -0.09    0.13
   9  19 -13   -0.14    0.20
  -9 -19  13   -0.08    0.13
   7  19 -13   -0.01    0.23
  -7 -19  13    0.33    0.19
   5  19 -13    0.43    0.26
  -5 -19  13    0.13    0.17
   3  19 -13   -0.02    0.19
  -3 -19  13    0.04    0.15
   1  19 -13   -0.07    0.22
  -1 -19  13    0.23    0.16
  -1  19 -13   -0.14    0.19
   1 -19  13    0.02    0.15
  -3  19 -13   -0.17    0.21
   3 -19  13   -0.08    0.13
   5 -19  13    0.08    0.15
   7 -19  13    0.82    0.27
   9 -19  13   -0.12    0.19
  11 -19  13   -0.12    0.19
  13 -19  13   -0.35    0.19
  15 -19  13    0.13    0.22
  17 -19  13   -0.06    0.23
  19 -19  13   -0.03    0.21
  21 -19  13   -0.23    0.25
  23 -19  13    0.11    0.30
  27  17 -13   -0.09    0.33
  25  17 -13   -0.05    0.30
  23  17 -13   -0.11    0.25
  21  17 -13    0.48    0.31
  19  17 -13    0.47    0.32
  17  17 -13    0.11    0.25
  15  17 -13    0.41    0.27
  13  17 -13   -0.12    0.18
 -13 -17  13    0.07    0.13
  11  17 -13    0.63    0.27
 -11 -17  13    0.88    0.24
   9  17 -13    0.43    0.24
  -9 -17  13    0.29    0.17
   7  17 -13    1.09    0.31
  -7 -17  13    1.35    0.25
   5  17 -13    0.70    0.27
  -5 -17  13    1.34    0.26
   3  17 -13    0.21    0.20
  -3 -17  13    0.07    0.14
   1  17 -13    0.50    0.22
  -1 -17  13    0.94    0.23
  -1  17 -13    0.16    0.20
   1 -17  13    0.61    0.20
  -3  17 -13    0.57    0.23
   3 -17  13    0.44    0.19
  -5  17 -13    0.99    0.25
   5 -17  13    1.12    0.26
   7 -17  13    1.90    0.33
   9 -17  13    0.00    0.18
  11 -17  13    0.86    0.28
  13 -17  13   -0.05    0.17
  15 -17  13    0.79    0.29
  17 -17  13   -0.15    0.18
  19 -17  13    0.05    0.22
  21 -17  13   -0.06    0.27
  23 -17  13    0.16    0.30
  25 -17  13    0.11    0.31
  27  15 -13    0.22    0.35
  25  15 -13    0.11    0.30
  23  15 -13   -0.22    0.25
  21  15 -13   -0.05    0.26
  19  15 -13   -0.17    0.22
  17  15 -13    0.36    0.26
  15  15 -13    0.23    0.22
  13  15 -13    0.00    0.18
 -13 -15  13    0.02    0.14
  11  15 -13    0.31    0.22
 -11 -15  13    0.38    0.17
   9  15 -13   -0.12    0.19
  -9 -15  13    0.22    0.15
   7  15 -13   -0.21    0.13
  -7 -15  13    0.00    0.12
   5  15 -13    0.72    0.24
  -5 -15  13    0.99    0.23
   3  15 -13    0.48    0.21
  -3 -15  13    0.15    0.15
   1  15 -13   -0.07    0.16
  -1 -15  13   -0.05    0.11
  -1  15 -13   -0.03    0.16
   1 -15  13   -0.05    0.13
  -3  15 -13    0.51    0.20
   3 -15  13    0.57    0.19
  -5  15 -13    0.86    0.22
   5 -15  13    0.82    0.23
   7 -15  13   -0.06    0.11
   9 -15  13    0.29    0.20
  11 -15  13    0.67    0.25
  13 -15  13   -0.48    0.13
  15 -15  13    0.16    0.18
  17 -15  13    0.19    0.23
  19 -15  13    0.23    0.25
  21 -15  13   -0.22    0.22
  23 -15  13   -0.23    0.25
  25 -15  13    0.00    0.26
  27  13 -13   -0.20    0.25
  25  13 -13   -0.47    0.21
  23  13 -13   -0.24    0.19
  21  13 -13    0.09    0.21
  19  13 -13    0.07    0.22
  17  13 -13    0.03    0.20
  15  13 -13   -0.25    0.15
  13  13 -13   -0.16    0.15
  11  13 -13    0.03    0.17
 -11 -13  13    0.01    0.10
   9  13 -13    0.12    0.17
  -9 -13  13    0.14    0.13
   7  13 -13   -0.02    0.14
  -7 -13  13    0.11    0.12
   5  13 -13    0.05    0.14
  -5 -13  13    0.09    0.10
   3  13 -13   -0.17    0.12
  -3 -13  13   -0.03    0.09
   1  13 -13   -0.01    0.13
  -1 -13  13    0.12    0.12
  -1  13 -13    0.04    0.13
   1 -13  13   -0.11    0.10
  -3  13 -13   -0.22    0.12
   3 -13  13   -0.20    0.09
  -5  13 -13   -0.02    0.13
   5 -13  13    0.05    0.13
  -7  13 -13   -0.06    0.14
   7 -13  13    0.03    0.12
   9 -13  13   -0.13    0.12
  11 -13  13   -0.02    0.15
  13 -13  13   -0.09    0.16
  15 -13  13    0.42    0.23
  17 -13  13   -0.11    0.19
  19 -13  13    0.19    0.22
  21 -13  13   -0.14    0.19
  21 -13  13    0.15    0.21
  23 -13  13   -0.10    0.22
  23 -13  13    0.03    0.19
  25 -13  13    0.23    0.25
  25 -13  13   -0.04    0.28
  27 -13  13   -0.12    0.23
  29 -13  13    0.20    0.31
  31 -13  13   -0.05    0.31
  27  11 -13    0.13    0.27
  25  11 -13    0.09    0.23
  23  11 -13   -0.04    0.24
  21  11 -13   -0.21    0.16
  19  11 -13    0.05    0.19
  17  11 -13    0.72    0.28
  15  11 -13    0.13    0.19
  13  11 -13    0.10    0.19
  11  11 -13   -0.02    0.14
 -11 -11  13    0.03    0.10
   9  11 -13    0.50    0.20
  -9 -11  13    0.48    0.15
   7  11 -13    0.47    0.19
  -7 -11  13    0.21    0.13
   5  11 -13    2.66    0.32
  -5 -11  13    2.92    0.28
   3  11 -13    2.30    0.29
  -3 -11  13    2.38    0.26
   1  11 -13   -0.12    0.10
  -1 -11  13    0.01    0.10
  -1  11 -13    0.05    0.10
   1 -11  13    0.05    0.11
  -3  11 -13    2.32    0.27
   3 -11  13    2.36    0.28
  -5  11 -13    1.99    0.24
   5 -11  13    3.00    0.32
  -7  11 -13    0.45    0.16
   7 -11  13    0.33    0.16
   9 -11  13    0.11    0.17
  11 -11  13   -0.04    0.13
  11 -11  13    0.00    0.11
  13 -11  13    0.02    0.12
  13 -11  13   -0.09    0.14
  15 -11  13    0.23    0.21
  15 -11  13    0.41    0.19
  17 -11  13    0.84    0.25
  17 -11  13    0.64    0.27
  19 -11  13    0.02    0.19
  19 -11  13   -0.13    0.14
  21 -11  13   -0.12    0.22
  21 -11  13   -0.15    0.15
  23 -11  13    0.03    0.23
  23 -11  13    0.18    0.27
  25 -11  13    0.03    0.28
  25 -11  13    0.10    0.24
  27 -11  13    0.44    0.29
  29 -11  13   -0.07    0.24
  31 -11  13    0.09    0.31
  27   9 -13    0.28    0.28
  25   9 -13    0.48    0.30
  23   9 -13    0.65    0.29
  21   9 -13   -0.03    0.20
  19   9 -13    0.01    0.20
  17   9 -13    0.38    0.22
  15   9 -13    0.19    0.19
  13   9 -13   -0.03    0.14
  11   9 -13    0.28    0.19
 -11  -9  13    0.16    0.10
   9   9 -13    0.06    0.13
  -9  -9  13   -0.03    0.08
   7   9 -13    0.16    0.14
  -7  -9  13    0.10    0.10
   5   9 -13    0.16    0.14
  -5  -9  13    0.05    0.09
   3   9 -13    0.18    0.13
  -3  -9  13    0.28    0.12
   1   9 -13    0.62    0.18
  -1  -9  13    0.74    0.17
  -1   9 -13    0.49    0.15
   1  -9  13    0.24    0.12
  -3   9 -13    0.26    0.12
   3  -9  13    0.30    0.13
  -5   9 -13    0.21    0.12
   5  -9  13   -0.11    0.07
  -7   9 -13    0.22    0.12
   7  -9  13    0.25    0.14
   7  -9  13    0.22    0.10
   9  -9  13   -0.13    0.08
   9  -9  13   -0.19    0.11
  11  -9  13    0.48    0.15
  11  -9  13    0.36    0.18
  13  -9  13    0.01    0.11
  13  -9  13   -0.03    0.16
  15  -9  13    0.11    0.14
  15  -9  13    0.15    0.18
  17  -9  13    0.06    0.18
  17  -9  13    0.16    0.16
  19  -9  13   -0.01    0.17
  19  -9  13    0.26    0.18
  21  -9  13    0.39    0.21
  21  -9  13   -0.20    0.20
  23  -9  13    0.40    0.28
  23  -9  13    0.28    0.21
  25  -9  13    0.11    0.23
  25  -9  13    0.16    0.29
  27  -9  13   -0.07    0.23
  27  -9  13    0.19    0.30
  29  -9  13    0.19    0.28
  31  -9  13    0.23    0.31
  27   7 -13   -0.01    0.26
  25   7 -13    0.12    0.24
  23   7 -13   -0.09    0.20
  21   7 -13    0.75    0.29
  19   7 -13    0.45    0.24
  17   7 -13    1.14    0.28
  15   7 -13    0.03    0.15
  15   7 -13    0.23    0.17
  13   7 -13    0.15    0.14
  13   7 -13    0.03    0.14
  11   7 -13    0.20    0.13
  11   7 -13    0.51    0.19
 -11  -7  13    0.17    0.11
   9   7 -13    0.10    0.11
   9   7 -13    0.33    0.15
  -9  -7  13    0.33    0.11
   7   7 -13   -0.01    0.12
   7   7 -13    0.00    0.07
  -7  -7  13   -0.14    0.06
   5   7 -13    0.58    0.11
   5   7 -13    0.30    0.14
  -5  -7  13    0.55    0.13
   3   7 -13    1.15    0.20
   3   7 -13    0.82    0.10
  -3  -7  13    1.01    0.17
   1   7 -13    1.55    0.22
   1   7 -13    1.24    0.12
  -1  -7  13    1.16    0.18
  -1   7 -13    1.46    0.20
   1  -7  13    1.21    0.19
  -3   7 -13    1.05    0.17
   3  -7  13    0.81    0.17
  -5   7 -13    0.63    0.14
   5  -7  13    0.31    0.15
  -7   7 -13    0.16    0.10
   7  -7  13    0.00    0.09
   9  -7  13    0.30    0.15
   9  -7  13    0.44    0.13
  11  -7  13    0.25    0.15
  11  -7  13    0.16    0.15
  13  -7  13   -0.12    0.13
  13  -7  13    0.04    0.11
  15  -7  13   -0.04    0.14
  15  -7  13   -0.04    0.12
  17  -7  13    1.91    0.30
  17  -7  13    1.19    0.30
  19  -7  13    0.84    0.26
  19  -7  13    0.32    0.21
  21  -7  13    0.68    0.28
  21  -7  13    0.20    0.21
  23  -7  13    0.23    0.24
  23  -7  13   -0.02    0.20
  25  -7  13   -0.19    0.23
  25  -7  13    0.20    0.24
  27  -7  13    0.07    0.28
  27  -7  13    0.23    0.26
  29  -7  13    0.05    0.29
  31  -7  13   -0.26    0.25
  27   5 -13    0.31    0.27
  25   5 -13   -0.02    0.27
  25   5 -13    0.06    0.22
  23   5 -13    0.03    0.23
  23   5 -13    0.79    0.28
  21   5 -13    0.10    0.20
  21   5 -13   -0.13    0.18
  19   5 -13    0.05    0.17
  19   5 -13    0.05    0.16
  17   5 -13    1.27    0.25
  17   5 -13    1.37    0.30
  15   5 -13    1.39    0.29
  15   5 -13    1.05    0.23
  13   5 -13    0.11    0.14
  13   5 -13   -0.05    0.12
  11   5 -13    2.98    0.26
  11   5 -13    2.14    0.30
   9   5 -13    0.03    0.10
   9   5 -13    0.01    0.10
  -9  -5  13    0.18    0.08
   7   5 -13    0.26    0.14
   7   5 -13    0.60    0.13
  -7  -5  13    0.43    0.11
   5   5 -13    0.04    0.10
   5   5 -13   -0.01    0.07
  -5  -5  13   -0.01    0.06
   3   5 -13    0.05    0.07
   3   5 -13    0.04    0.10
  -3  -5  13    0.12    0.08
   1   5 -13    4.27    0.33
   1   5 -13    3.39    0.21
  -1  -5  13    3.60    0.27
  -1   5 -13    3.16    0.27
   1  -5  13    3.62    0.28
  -3   5 -13    0.14    0.10
   3  -5  13   -0.02    0.08
  -5   5 -13    0.00    0.08
   5  -5  13   -0.03    0.08
  -7   5 -13    0.53    0.11
   7  -5  13    0.32    0.14
   9  -5  13    0.07    0.12
   9  -5  13    0.04    0.08
  11  -5  13    2.72    0.28
  11  -5  13    2.24    0.29
  13  -5  13    0.08    0.12
  13  -5  13   -0.01    0.13
  15  -5  13    1.39    0.26
  15  -5  13    1.33    0.27
  17  -5  13    1.12    0.25
  17  -5  13    1.07    0.27
  19  -5  13   -0.01    0.16
  19  -5  13    0.00    0.16
  21  -5  13   -0.09    0.18
  21  -5  13    0.13    0.19
  23  -5  13    0.39    0.24
  23  -5  13    0.28    0.25
  25  -5  13   -0.14    0.21
  25  -5  13    0.25    0.25
  27  -5  13    0.16    0.26
  27  -5  13    0.12    0.24
  29  -5  13    0.13    0.26
  31  -5  13   -0.18    0.29
  31   3 -13    0.13    0.37
  29   3 -13   -0.02    0.31
  27   3 -13    0.08    0.31
  25   3 -13    0.22    0.27
  25   3 -13    0.17    0.23
  23   3 -13    0.85    0.29
  23   3 -13    0.50    0.31
  21   3 -13   -0.19    0.17
  21   3 -13    0.02    0.20
  19   3 -13   -0.08    0.16
  19   3 -13   -0.08    0.19
  17   3 -13    0.27    0.20
  17   3 -13    0.04    0.16
  15   3 -13    0.42    0.20
  15   3 -13    0.35    0.19
  13   3 -13   -0.08    0.12
  13   3 -13   -0.03    0.12
  11   3 -13    2.69    0.33
  11   3 -13    2.67    0.26
   9   3 -13    0.19    0.14
   9   3 -13    0.26    0.13
  -9  -3  13    0.27    0.08
   7   3 -13    1.12    0.22
   7   3 -13    0.96    0.15
  -7  -3  13    0.69    0.12
   5   3 -13   -0.04    0.09
   5   3 -13    0.09    0.08
  -5  -3  13    0.03    0.06
   3   3 -13   -0.10    0.06
   3   3 -13   -0.04    0.08
  -3  -3  13   -0.08    0.06
   1   3 -13    0.70    0.15
   1   3 -13    0.70    0.13
  -1  -3  13    1.08    0.16
  -1   3 -13    1.02    0.17
   1  -3  13    0.69    0.15
  -3   3 -13    0.07    0.09
   3  -3  13    0.02    0.08
  -5   3 -13    0.00    0.08
   5  -3  13    0.05    0.08
  -7   3 -13    0.85    0.13
   7  -3  13    1.09    0.20
   9  -3  13    0.15    0.12
  11  -3  13    2.91    0.33
  11  -3  13    2.56    0.28
  13  -3  13   -0.11    0.11
  13  -3  13    0.06    0.12
  15  -3  13    0.28    0.19
  15  -3  13    0.47    0.22
  17  -3  13    0.21    0.18
  17  -3  13    0.48    0.21
  19  -3  13   -0.02    0.15
  19  -3  13    0.02    0.17
  21  -3  13    0.36    0.21
  21  -3  13   -0.02    0.18
  23  -3  13    0.59    0.27
  23  -3  13   -0.03    0.20
  25  -3  13   -0.05    0.19
  25  -3  13    0.18    0.25
 -27   3 -13    0.09    0.23
  27  -3  13    0.13    0.24
  29  -3  13    0.12    0.26
  31  -3  13   -0.26    0.28
  33   1 -13    0.53    0.43
  31   1 -13    0.26    0.39
  29   1 -13    0.37    0.37
  27   1 -13   -0.13    0.24
  25   1 -13    0.07    0.22
  25   1 -13   -0.06    0.23
  23   1 -13    0.04    0.19
  23   1 -13    0.01    0.23
  21   1 -13   -0.07    0.18
  21   1 -13   -0.15    0.20
  19   1 -13    0.05    0.16
  19   1 -13   -0.30    0.18
  17   1 -13    0.73    0.25
  17   1 -13    0.54    0.20
  15   1 -13    0.03    0.14
  15   1 -13   -0.01    0.13
  13   1 -13    0.03    0.13
  13   1 -13   -0.02    0.12
  11   1 -13    0.10    0.12
  11   1 -13   -0.07    0.10
   9   1 -13    0.45    0.16
   9   1 -13    0.57    0.15
  -9  -1  13    0.32    0.08
   7   1 -13    1.05    0.20
   7   1 -13    1.16    0.17
  -7  -1  13    1.08    0.12
   5   1 -13    3.59    0.26
  -5  -1  13    3.52    0.22
   3   1 -13    0.63    0.13
  -3  -1  13    0.69    0.12
   1   1 -13   -0.20    0.07
  -1  -1  13    0.00    0.06
   1  -1  13   -0.06    0.06
  -3   1 -13    0.74    0.14
   3  -1  13    0.54    0.14
  -5   1 -13    3.94    0.26
   5  -1  13    3.66    0.30
  -7   1 -13    1.21    0.14
   7  -1  13    1.08    0.19
  -9   1 -13    0.45    0.10
   9  -1  13    0.21    0.13
  11  -1  13    0.20    0.14
  13  -1  13   -0.01    0.12
  13  -1  13   -0.15    0.08
  15  -1  13    0.06    0.15
  15  -1  13   -0.05    0.12
  17  -1  13    0.78    0.24
  17  -1  13    0.66    0.22
  19  -1  13   -0.14    0.14
  19  -1  13    0.06    0.16
  21  -1  13    0.02    0.16
  21  -1  13    0.02    0.18
 -23   1 -13    0.27    0.17
  23  -1  13    0.12    0.21
  23  -1  13   -0.28    0.15
 -25   1 -13    0.28    0.22
  25  -1  13    0.39    0.24
 -27   1 -13    0.20    0.23
  27  -1  13    0.33    0.27
 -29   1 -13    0.07    0.26
  29  -1  13    0.24    0.26
  31  -1  13    0.26    0.31
  33  -1 -13    0.16    0.43
  31  -1 -13   -0.16    0.33
  29  -1 -13    0.04    0.31
  27  -1 -13    0.07    0.28
  25  -1 -13   -0.23    0.21
  25  -1 -13    0.15    0.28
  23  -1 -13   -0.14    0.18
  23  -1 -13   -0.06    0.22
  21  -1 -13    0.01    0.17
  21  -1 -13    0.16    0.25
  19  -1 -13   -0.02    0.18
  19  -1 -13   -0.21    0.19
  17  -1 -13    0.57    0.23
  17  -1 -13    0.69    0.23
  15  -1 -13   -0.01    0.16
  15  -1 -13    0.24    0.16
  13  -1 -13   -0.01    0.13
  11  -1 -13   -0.09    0.11
   9  -1 -13    0.37    0.14
   7  -1 -13    1.29    0.19
  -7   1  13    1.39    0.12
   5  -1 -13    2.80    0.26
  -5   1  13    3.51    0.21
   3  -1 -13    0.67    0.14
  -3   1  13    1.00    0.14
   1  -1 -13   -0.03    0.09
  -1   1  13    0.04    0.07
   1   1  13    0.04    0.08
   3   1  13    1.01    0.18
   5   1  13    3.93    0.32
   7   1  13    1.17    0.20
   9   1  13    0.18    0.12
  11   1  13   -0.07    0.11
  13   1  13    0.10    0.14
  15   1  13    0.02    0.14
  15   1  13   -0.03    0.13
  17   1  13    0.76    0.23
  17   1  13    0.61    0.23
 -19  -1 -13   -0.01    0.12
  19   1  13   -0.15    0.13
  19   1  13    0.05    0.17
 -21  -1 -13   -0.04    0.17
  21   1  13    0.04    0.17
 -23  -1 -13   -0.06    0.16
  23   1  13   -0.14    0.18
 -25  -1 -13    0.04    0.20
  25   1  13   -0.32    0.16
 -27  -1 -13    0.28    0.23
  27   1  13   -0.39    0.18
 -29  -1 -13    0.06    0.25
  29   1  13    0.05    0.27
  31   1  13    0.09    0.30
  33  -3 -13    0.10    0.39
  31  -3 -13    0.03    0.32
  29  -3 -13   -0.08    0.31
  27  -3 -13    0.18    0.32
  25  -3 -13    0.36    0.30
  25  -3 -13    0.04    0.22
  23  -3 -13    0.33    0.28
  23  -3 -13    0.43    0.24
  21  -3 -13    0.07    0.18
  21  -3 -13    0.10    0.22
  19  -3 -13    0.13    0.21
  17  -3 -13    0.25    0.21
  15  -3 -13    0.47    0.21
  13  -3 -13    0.09    0.15
  11  -3 -13    2.87    0.31
   9  -3 -13    0.35    0.15
   7  -3 -13    1.07    0.19
   7  -3 -13    0.89    0.11
   5  -3 -13    0.01    0.09
   5  -3 -13    0.06    0.07
   3  -3 -13   -0.08    0.07
   3  -3 -13   -0.06    0.05
   1  -3 -13    0.61    0.15
  -1   3  13    1.06    0.15
   1   3  13    0.88    0.16
   3   3  13   -0.05    0.07
   5   3  13    0.07    0.09
   7   3  13    0.51    0.16
   9   3  13    0.08    0.10
  11   3  13    2.98    0.32
 -13  -3 -13    0.01    0.12
  13   3  13    0.00    0.13
 -15  -3 -13    0.55    0.20
 -17  -3 -13    0.22    0.16
  17   3  13    0.80    0.23
 -19  -3 -13   -0.01    0.13
  19   3  13    0.10    0.16
 -21  -3 -13    0.28    0.20
  21   3  13   -0.15    0.16
 -23  -3 -13    0.77    0.26
  23   3  13    0.61    0.25
 -25  -3 -13    0.03    0.18
  25   3  13    0.20    0.22
 -27  -3 -13    0.34    0.25
  27   3  13    0.12    0.22
 -29  -3 -13   -0.04    0.23
  29   3  13    0.21    0.26
  31   3  13   -0.12    0.26
  33  -5 -13    0.11    0.40
  31  -5 -13    0.43    0.43
  29  -5 -13    0.11    0.33
  27  -5 -13   -0.14    0.28
  25  -5 -13    0.17    0.28
  25  -5 -13    0.06    0.22
  23  -5 -13    0.71    0.27
  23  -5 -13    0.16    0.26
  21  -5 -13    0.14    0.24
  19  -5 -13   -0.08    0.21
  17  -5 -13    1.16    0.28
  15  -5 -13    0.74    0.24
  13  -5 -13   -0.04    0.12
  11  -5 -13    2.20    0.28
   9  -5 -13   -0.01    0.10
   7  -5 -13    0.44    0.15
   7  -5 -13    0.42    0.09
   5  -5 -13   -0.02    0.07
   5  -5 -13    0.11    0.10
   3  -5 -13   -0.05    0.08
   3  -5 -13    0.00    0.07
   1  -5 -13    2.96    0.28
   1  -5 -13    4.19    0.27
  -1  -5 -13    3.17    0.26
  -3  -5 -13    0.16    0.10
  -5  -5 -13   -0.03    0.08
  -7  -5 -13    0.27    0.14
  -9  -5 -13   -0.07    0.10
 -11  -5 -13    1.90    0.28
 -13  -5 -13   -0.06    0.10
 -15  -5 -13    1.03    0.25
 -17  -5 -13    1.34    0.29
 -19  -5 -13    0.07    0.16
 -21  -5 -13   -0.08    0.18
  21   5  13   -0.15    0.18
 -23  -5 -13    0.69    0.25
  23   5  13    0.16    0.22
 -25  -5 -13    0.12    0.22
  25   5  13    0.05    0.22
 -27  -5 -13    0.08    0.23
  27   5  13    0.33    0.25
 -29  -5 -13    0.12    0.26
  29   5  13   -0.13    0.21
  31   5  13   -0.11    0.28
  31  -7 -13   -0.15    0.36
  29  -7 -13    0.47    0.40
  27  -7 -13   -0.22    0.28
  25  -7 -13   -0.04    0.25
  23  -7 -13   -0.07    0.25
  21  -7 -13    0.31    0.26
  19  -7 -13    0.84    0.31
  17  -7 -13    2.07    0.37
  15  -7 -13    0.00    0.17
  13  -7 -13   -0.08    0.13
  11  -7 -13    0.30    0.16
   9  -7 -13    0.35    0.17
   7  -7 -13    0.08    0.07
   7  -7 -13   -0.18    0.09
   5  -7 -13    0.59    0.11
   5  -7 -13    0.52    0.17
   3  -7 -13    0.94    0.19
   3  -7 -13    0.56    0.13
   1  -7 -13    1.16    0.17
   1  -7 -13    0.85    0.19
  -1  -7 -13    1.17    0.18
  -3  -7 -13    0.75    0.17
  -5  -7 -13    0.25    0.13
  -7  -7 -13   -0.12    0.09
  -9  -7 -13    0.11    0.14
 -11  -7 -13    0.23    0.17
 -13  -7 -13    0.19    0.15
 -15  -7 -13    0.06    0.14
 -17  -7 -13    1.54    0.30
 -19  -7 -13    1.06    0.27
 -21  -7 -13    0.51    0.25
 -23  -7 -13    0.19    0.22
 -25  -7 -13   -0.07    0.18
 -27  -7 -13    0.04    0.25
 -29  -7 -13    0.05    0.25
  31  -9 -13   -0.55    0.35
  29  -9 -13   -0.31    0.30
  27  -9 -13   -0.43    0.28
  25  -9 -13    0.26    0.31
  23  -9 -13    0.19    0.28
  21  -9 -13    0.11    0.25
  19  -9 -13   -0.20    0.19
  17  -9 -13    0.05    0.20
  15  -9 -13   -0.22    0.17
  13  -9 -13    0.03    0.15
  11  -9 -13    0.44    0.21
   9  -9 -13   -0.13    0.10
   7  -9 -13    0.26    0.10
   7  -9 -13    0.50    0.17
   5  -9 -13    0.25    0.14
   5  -9 -13    0.21    0.10
   3  -9 -13    0.30    0.12
   3  -9 -13    0.36    0.15
   1  -9 -13    0.18    0.13
   1  -9 -13    0.48    0.14
  -1  -9 -13    0.41    0.15
  -3  -9 -13    0.23    0.12
  -5  -9 -13    0.13    0.12
  -7  -9 -13    0.42    0.18
  -9  -9 -13   -0.14    0.11
 -11  -9 -13    0.36    0.19
 -13  -9 -13    0.04    0.15
 -15  -9 -13   -0.02    0.15
 -17  -9 -13    0.00    0.16
 -19  -9 -13    0.12    0.17
 -21  -9 -13    0.31    0.20
 -23  -9 -13    0.28    0.25
 -25  -9 -13    0.19    0.24
 -27  -9 -13   -0.06    0.21
 -29  -9 -13    0.03    0.29
  31 -11 -13    0.96    0.46
  29 -11 -13    0.40    0.41
  27 -11 -13   -0.28    0.31
  25 -11 -13   -0.09    0.30
  23 -11 -13    0.13    0.26
  21 -11 -13   -0.05    0.22
  19 -11 -13   -0.01    0.21
  17 -11 -13    0.86    0.31
  15 -11 -13    0.39    0.24
  13 -11 -13   -0.14    0.16
  11 -11 -13    0.09    0.15
   9 -11 -13    0.22    0.16
   7 -11 -13    0.31    0.13
   7 -11 -13    0.23    0.14
  -7  11  13    0.00    0.11
   5 -11 -13    1.96    0.22
   5 -11 -13    1.87    0.28
  -5  11  13    2.59    0.23
   3 -11 -13    2.46    0.31
   3 -11 -13    2.79    0.26
  -3  11  13    2.79    0.25
   1 -11 -13    0.16    0.13
   1 -11 -13    0.04    0.12
  -1  11  13    0.08    0.11
  -1 -11 -13    0.15    0.12
  -3 -11 -13    2.99    0.31
  -5 -11 -13    2.44    0.29
  -7 -11 -13    0.38    0.19
  -9 -11 -13    0.42    0.19
 -11 -11 -13    0.11    0.16
 -13 -11 -13    0.19    0.16
 -15 -11 -13    0.83    0.26
 -17 -11 -13    0.47    0.22
 -19 -11 -13    0.16    0.19
 -21 -11 -13   -0.02    0.18
 -23 -11 -13    0.07    0.20
 -25 -11 -13   -0.04    0.23
 -27 -11 -13   -0.09    0.22
  29 -13 -13    0.24    0.40
  27 -13 -13   -0.36    0.30
  25 -13 -13   -0.20    0.24
  23 -13 -13   -0.28    0.22
  21 -13 -13    0.03    0.25
  19 -13 -13   -0.39    0.18
  17 -13 -13   -0.02    0.20
  15 -13 -13    0.05    0.20
  13 -13 -13   -0.10    0.13
  11 -13 -13   -0.01    0.15
   9 -13 -13    0.05    0.15
   7 -13 -13    0.03    0.13
   7 -13 -13   -0.10    0.11
   5 -13 -13    0.02    0.12
   5 -13 -13    0.14    0.13
  -5  13  13    0.06    0.08
   3 -13 -13    0.00    0.12
   3 -13 -13   -0.03    0.13
  -3  13  13    0.00    0.11
   1 -13 -13    0.20    0.15
   1 -13 -13    0.05    0.13
  -1  13  13    0.05    0.11
  -1 -13 -13   -0.06    0.12
   1  13  13    0.00    0.10
  -3 -13 -13    0.23    0.15
   3  13  13    0.16    0.12
  -5 -13 -13   -0.09    0.12
  -7 -13 -13   -0.11    0.16
  -9 -13 -13    0.00    0.16
 -11 -13 -13   -0.03    0.16
 -13 -13 -13   -0.03    0.18
 -15 -13 -13   -0.22    0.15
 -17 -13 -13   -0.05    0.17
 -19 -13 -13   -0.06    0.19
 -21 -13 -13   -0.14    0.19
 -23 -13 -13    0.01    0.22
 -25 -13 -13   -0.07    0.22
 -27 -13 -13   -0.23    0.25
  29 -15 -13    0.55    0.41
  27 -15 -13    0.22    0.39
  25 -15 -13   -0.16    0.29
  23 -15 -13    0.47    0.29
  21 -15 -13    0.04    0.27
  19 -15 -13    0.30    0.28
  17 -15 -13    0.79    0.29
  15 -15 -13   -0.28    0.15
  13 -15 -13   -0.15    0.16
  11 -15 -13    0.42    0.25
   9 -15 -13    0.21    0.17
   7 -15 -13    0.05    0.14
   5 -15 -13    0.81    0.25
   5 -15 -13    0.78    0.19
  -5  15  13    1.05    0.19
   3 -15 -13    0.24    0.17
   3 -15 -13    0.22    0.17
  -3  15  13    0.37    0.16
   1 -15 -13   -0.10    0.13
   1 -15 -13    0.17    0.15
  -1  15  13    0.05    0.12
  -1 -15 -13    0.01    0.16
  -1 -15 -13    0.01    0.12
   1  15  13   -0.07    0.12
  -3 -15 -13    0.23    0.17
   3  15  13    0.30    0.17
  -5 -15 -13    0.82    0.24
   5  15  13    0.58    0.21
  -7 -15 -13    0.30    0.19
   7  15  13    0.01    0.14
  -9 -15 -13   -0.08    0.17
 -11 -15 -13    1.02    0.28
 -13 -15 -13    0.31    0.24
 -15 -15 -13    0.12    0.18
 -17 -15 -13    0.29    0.23
 -19 -15 -13    0.04    0.19
 -21 -15 -13   -0.15    0.18
 -23 -15 -13    0.19    0.24
 -25 -15 -13   -0.16    0.25
  27 -17 -13   -0.03    0.33
  25 -17 -13   -0.09    0.26
  23 -17 -13    0.20    0.29
  21 -17 -13   -0.03    0.25
  19 -17 -13   -0.12    0.23
  17 -17 -13    0.03    0.21
  15 -17 -13    0.13    0.23
  13 -17 -13   -0.28    0.16
  11 -17 -13    0.56    0.25
   9 -17 -13    0.14    0.18
   7 -17 -13    0.61    0.23
   5 -17 -13    1.62    0.31
   5 -17 -13    0.71    0.20
   3 -17 -13    0.06    0.16
   3 -17 -13    0.60    0.21
  -3  17  13    0.27    0.15
   1 -17 -13    0.54    0.21
   1 -17 -13    0.89    0.23
  -1  17  13    0.26    0.17
  -1 -17 -13    0.51    0.21
  -1 -17 -13    0.74    0.25
   1  17  13    0.85    0.22
  -3 -17 -13    0.40    0.22
   3  17  13    0.17    0.16
  -5 -17 -13    0.92    0.26
   5  17  13    1.02    0.26
  -7 -17 -13    2.25    0.35
   7  17  13    1.15    0.27
  -9 -17 -13   -0.04    0.20
   9  17  13    0.14    0.17
 -11 -17 -13    0.90    0.30
 -13 -17 -13   -0.03    0.18
 -15 -17 -13    0.44    0.24
 -17 -17 -13    0.09    0.20
 -19 -17 -13    0.10    0.24
 -21 -17 -13    0.07    0.22
 -23 -17 -13    0.07    0.24
  25 -19 -13   -0.09    0.31
  23 -19 -13    0.11    0.27
  21 -19 -13    0.20    0.28
  19 -19 -13   -0.11    0.21
  17 -19 -13    0.00    0.23
  15 -19 -13    0.05    0.21
  13 -19 -13   -0.18    0.16
  11 -19 -13    0.04    0.20
   9 -19 -13   -0.03    0.15
   7 -19 -13    0.23    0.20
   5 -19 -13    0.18    0.18
   5 -19 -13    0.10    0.18
   3 -19 -13   -0.18    0.16
   3 -19 -13   -0.06    0.14
   1 -19 -13   -0.07    0.18
   1 -19 -13    0.22    0.19
  -1  19  13    0.09    0.15
  -1 -19 -13   -0.03    0.16
  -1 -19 -13   -0.23    0.18
   1  19  13   -0.16    0.14
  -3 -19 -13   -0.06    0.16
  -3 -19 -13   -0.11    0.18
   3  19  13    0.16    0.15
  -5 -19 -13   -0.11    0.17
   5  19  13   -0.15    0.15
  -7 -19 -13    0.37    0.23
   7  19  13    0.08    0.18
  -9 -19 -13   -0.19    0.18
   9  19  13   -0.17    0.17
 -11 -19 -13   -0.22    0.18
  11  19  13    0.00    0.16
 -13 -19 -13    0.34    0.28
 -15 -19 -13   -0.01    0.20
 -17 -19 -13   -0.22    0.23
 -19 -19 -13   -0.10    0.22
 -21 -19 -13   -0.09    0.26
  25 -21 -13    0.34    0.35
  23 -21 -13   -0.27    0.25
  21 -21 -13    0.44    0.33
  19 -21 -13    0.38    0.30
  17 -21 -13   -0.12    0.23
  15 -21 -13   -0.36    0.20
  13 -21 -13   -0.11    0.20
  11 -21 -13   -0.10    0.20
   9 -21 -13   -0.07    0.16
   7 -21 -13    0.59    0.26
   5 -21 -13    0.04    0.19
   5 -21 -13   -0.02    0.16
   3 -21 -13   -0.06    0.19
   3 -21 -13   -0.01    0.17
   1 -21 -13    0.04    0.18
   1 -21 -13    0.12    0.20
  -1 -21 -13   -0.01    0.16
  -1 -21 -13   -0.27    0.18
   1  21  13   -0.22    0.15
  -3 -21 -13    0.17    0.16
  -3 -21 -13    0.07    0.21
   3  21  13   -0.01    0.17
  -5 -21 -13    0.05    0.22
   5  21  13   -0.14    0.13
  -7 -21 -13    0.56    0.30
   7  21  13    0.85    0.28
  -9 -21 -13    0.21    0.24
   9  21  13    0.09    0.20
 -11 -21 -13   -0.09    0.24
  11  21  13    0.14    0.20
 -13 -21 -13   -0.25    0.22
 -15 -21 -13   -0.24    0.22
 -17 -21 -13   -0.11    0.21
 -19 -21 -13    0.26    0.28
  23 -23 -13    0.35    0.34
  21 -23 -13   -0.16    0.27
  19 -23 -13    0.07    0.30
  17 -23 -13    0.09    0.26
  15 -23 -13   -0.02    0.23
  13 -23 -13   -0.32    0.19
  11 -23 -13    0.33    0.28
   9 -23 -13    0.30    0.24
   7 -23 -13    0.23    0.23
   5 -23 -13    0.54    0.25
   3 -23 -13    0.49    0.26
   3 -23 -13    0.32    0.24
   1 -23 -13    0.12    0.21
   1 -23 -13    0.03    0.22
  -1 -23 -13    0.44    0.26
  -1 -23 -13   -0.24    0.18
   1  23  13   -0.29    0.17
  -3 -23 -13    0.27    0.21
  -3 -23 -13    0.38    0.28
   3  23  13    0.53    0.24
  -5 -23 -13    0.24    0.29
  -5 -23 -13    0.13    0.21
   5  23  13    0.12    0.23
  -7 -23 -13    0.28    0.29
   7  23  13   -0.01    0.19
  -9 -23 -13   -0.19    0.22
   9  23  13    0.44    0.27
 -11 -23 -13   -0.29    0.23
  11  23  13    0.02    0.19
 -13 -23 -13   -0.09    0.25
  13  23  13    0.11    0.25
 -15 -23 -13   -0.02    0.26
 -17 -23 -13   -0.18    0.22
  21 -25 -13   -0.22    0.33
  19 -25 -13   -0.09    0.31
  17 -25 -13    0.16    0.30
  15 -25 -13   -0.23    0.26
  13 -25 -13    0.00    0.26
  11 -25 -13   -0.07    0.24
   9 -25 -13   -0.16    0.21
   7 -25 -13    0.11    0.21
   5 -25 -13    0.15    0.22
   3 -25 -13    0.01    0.21
   3 -25 -13   -0.19    0.22
   1 -25 -13    0.17    0.21
   1 -25 -13    0.17    0.25
  -1 -25 -13    0.04    0.21
  -1 -25 -13   -0.06    0.22
  -3 -25 -13    0.10    0.26
  -3 -25 -13    0.26    0.23
   3  25  13    0.08    0.23
  -5 -25 -13    0.42    0.28
  -5 -25 -13   -0.02    0.22
   5  25  13    0.23    0.23
  -7 -25 -13    0.01    0.24
  -7 -25 -13   -0.06    0.22
   7  25  13    0.14    0.20
  -9 -25 -13   -0.14    0.26
   9  25  13    0.24    0.25
 -11 -25 -13   -0.26    0.23
  11  25  13   -0.06    0.22
 -13 -25 -13    0.11    0.31
  13  25  13    0.08    0.22
 -15 -25 -13    0.23    0.31
  19 -27 -13    0.20    0.32
  17 -27 -13   -0.11    0.33
  15 -27 -13    0.40    0.35
  13 -27 -13    0.08    0.28
  11 -27 -13   -0.13    0.23
   9 -27 -13    0.13    0.23
   7 -27 -13    0.27    0.24
   5 -27 -13    0.39    0.30
   3 -27 -13   -0.08    0.22
   3 -27 -13   -0.10    0.25
   1 -27 -13   -0.13    0.24
   1 -27 -13    0.03    0.23
  -1 -27 -13    0.47    0.32
  -1 -27 -13    0.01    0.24
  -3 -27 -13    0.21    0.29
  -3 -27 -13    0.22    0.26
   3  27  13   -0.11    0.20
  -5 -27 -13    0.68    0.35
  -5 -27 -13    0.26    0.24
   5  27  13   -0.35    0.22
  -7 -27 -13   -0.23    0.22
  -7 -27 -13   -0.14    0.24
   7  27  13   -0.09    0.23
  -9 -27 -13    0.14    0.26
  -9 -27 -13    0.33    0.37
   9  27  13   -0.31    0.22
 -11 -27 -13   -0.36    0.27
  11  27  13    0.01    0.23
  13  27  13    0.02    0.25
  17 -29 -13   -0.04    0.32
  15 -29 -13    0.22    0.34
  13 -29 -13   -0.15    0.27
  11 -29 -13   -0.29    0.26
   9 -29 -13    0.01    0.25
   7 -29 -13    0.67    0.34
   5 -29 -13    0.09    0.26
   3 -29 -13    0.08    0.27
   1 -29 -13   -0.27    0.23
   1 -29 -13    0.00    0.30
  -1 -29 -13   -0.14    0.25
  -1 -29 -13    0.14    0.31
  -3 -29 -13    0.32    0.33
  -3 -29 -13    0.15    0.25
   3  29  13   -0.06    0.26
  -5 -29 -13    0.11    0.25
  -5 -29 -13    0.15    0.32
   5  29  13   -0.26    0.24
  -7 -29 -13    0.63    0.33
   7  29  13   -0.04    0.26
  -9 -29 -13   -0.05    0.25
   9  29  13    0.26    0.30
  13 -31 -13   -0.10    0.33
  11 -31 -13    0.03    0.33
   9 -31 -13    0.29    0.33
   7 -31 -13    0.25    0.30
   5 -31 -13    0.18    0.31
   1 -31 -13    0.16    0.34
   3  31  13    0.03    0.27
  16  28 -14    0.74    0.45
  14  28 -14    0.00    0.33
  12  28 -14   -0.22    0.35
 -10 -28  14    0.07    0.26
  -8 -28  14    0.32    0.27
  -6 -28  14   -0.20    0.25
  -4 -28  14   -0.14    0.22
  -2 -28  14    0.14    0.24
   0 -28  14    0.16    0.23
   2 -28  14    0.08    0.24
   4 -28  14   -0.09    0.21
   6 -28  14    0.23    0.27
  18  26 -14    4.00    0.65
  16  26 -14    0.08    0.35
  14  26 -14    5.82    0.70
  12  26 -14    1.09    0.41
 -12 -26  14    1.60    0.39
  10  26 -14    3.99    0.61
 -10 -26  14    5.45    0.58
   8  26 -14   -0.10    0.31
  -8 -26  14   -0.15    0.21
   6  26 -14    5.13    0.67
  -6 -26  14    6.59    0.64
  -4 -26  14    1.76    0.39
  -2 -26  14    7.46    0.67
   0 -26  14    0.08    0.22
   2 -26  14    6.80    0.64
   4 -26  14    1.78    0.41
   6 -26  14    5.47    0.62
   8 -26  14    0.27    0.27
  10 -26  14    4.77    0.60
  12 -26  14    1.78    0.46
  22  24 -14    0.18    0.34
  20  24 -14    0.37    0.37
  18  24 -14   -0.14    0.32
  16  24 -14    0.43    0.33
  14  24 -14    0.48    0.32
  12  24 -14    0.28    0.30
 -12 -24  14    0.21    0.23
  10  24 -14    0.92    0.37
 -10 -24  14    0.86    0.30
   8  24 -14    0.84    0.37
  -8 -24  14    0.84    0.29
   6  24 -14    0.07    0.28
  -6 -24  14    0.35    0.23
   4  24 -14    0.51    0.31
  -4 -24  14    0.44    0.23
   2  24 -14   -0.04    0.24
  -2 -24  14    0.05    0.20
   0 -24  14    0.09    0.17
   2 -24  14   -0.08    0.16
   4 -24  14    0.19    0.20
   6 -24  14    0.09    0.24
   8 -24  14    0.30    0.26
  10 -24  14    0.56    0.31
  12 -24  14    0.20    0.28
  14 -24  14    0.14    0.29
  16 -24  14    0.46    0.32
  24  22 -14   -0.23    0.33
  22  22 -14    3.46    0.61
  20  22 -14    0.27    0.36
  18  22 -14    3.00    0.54
  16  22 -14    0.65    0.35
  14  22 -14    6.01    0.65
  12  22 -14   -0.13    0.23
 -12 -22  14    0.00    0.17
  10  22 -14    6.00    0.63
 -10 -22  14    5.11    0.50
   8  22 -14    1.61    0.40
  -8 -22  14    1.52    0.33
   6  22 -14   10.31    0.76
  -6 -22  14   10.33    0.69
   4  22 -14    0.33    0.30
  -4 -22  14    0.17    0.18
   2  22 -14    8.32    0.68
  -2 -22  14    8.92    0.66
   0  22 -14    0.74    0.33
   0 -22  14    1.71    0.35
   2 -22  14    9.11    0.66
   4 -22  14    0.45    0.23
   6 -22  14   10.23    0.72
   8 -22  14    0.87    0.32
  10 -22  14    6.15    0.62
  12 -22  14    0.28    0.27
  14 -22  14    6.43    0.63
  16 -22  14    0.96    0.37
  18 -22  14    4.41    0.60
  20 -22  14    0.04    0.29
  26  20 -14    0.43    0.41
  24  20 -14    0.39    0.37
  22  20 -14   -0.14    0.29
  20  20 -14    0.37    0.31
  18  20 -14    1.54    0.43
  16  20 -14   -0.17    0.25
  14  20 -14    0.25    0.26
  12  20 -14    0.25    0.23
 -12 -20  14    0.00    0.17
  10  20 -14    1.30    0.35
 -10 -20  14    1.21    0.28
   8  20 -14    0.40    0.25
  -8 -20  14    0.13    0.19
   6  20 -14    0.20    0.25
  -6 -20  14    0.49    0.22
   4  20 -14    0.41    0.28
  -4 -20  14    0.08    0.17
   2  20 -14    1.87    0.37
  -2 -20  14    1.41    0.30
   0  20 -14    0.15    0.21
   0 -20  14    0.00    0.15
  -2  20 -14    3.27    0.42
   2 -20  14    2.77    0.40
   4 -20  14   -0.05    0.14
   6 -20  14    0.40    0.23
   8 -20  14    0.25    0.22
  10 -20  14    1.55    0.36
  12 -20  14    0.22    0.21
  14 -20  14    0.34    0.25
  16 -20  14    0.29    0.28
  18 -20  14    0.88    0.36
  20 -20  14   -0.03    0.26
  22 -20  14    0.29    0.35
  28  18 -14   -0.31    0.34
  26  18 -14    2.77    0.58
  24  18 -14   -0.01    0.30
  22  18 -14    4.12    0.61
  20  18 -14    1.17    0.41
  18  18 -14    8.25    0.74
  16  18 -14    0.18    0.26
  14  18 -14   11.37    0.80
  12  18 -14    2.09    0.39
 -12 -18  14    2.21    0.32
  10  18 -14    9.38    0.70
 -10 -18  14   10.04    0.60
   8  18 -14    0.55    0.28
  -8 -18  14    1.22    0.27
   6  18 -14   12.80    0.77
  -6 -18  14   13.34    0.72
   4  18 -14    4.09    0.46
  -4 -18  14    4.91    0.45
   2  18 -14   16.89    0.87
  -2 -18  14   15.67    0.79
   0  18 -14    0.81    0.27
   0 -18  14    0.13    0.15
  -2  18 -14   15.04    0.78
   2 -18  14   15.97    0.80
  -4  18 -14    4.00    0.43
   4 -18  14    4.44    0.44
   6 -18  14   13.94    0.77
   8 -18  14    1.12    0.30
  10 -18  14   10.56    0.70
  12 -18  14    1.22    0.32
  14 -18  14   12.74    0.82
  16 -18  14    0.32    0.27
  18 -18  14    9.42    0.74
  20 -18  14    1.68    0.42
  22 -18  14    3.70    0.56
  24 -18  14   -0.12    0.29
  28  16 -14    0.64    0.40
  26  16 -14    0.26    0.36
  24  16 -14    0.69    0.37
  22  16 -14    0.90    0.36
  20  16 -14    0.35    0.30
  18  16 -14    0.23    0.28
  16  16 -14    0.91    0.31
  14  16 -14    4.78    0.53
  12  16 -14    1.17    0.31
 -12 -16  14    1.16    0.25
  10  16 -14    0.24    0.22
 -10 -16  14   -0.18    0.12
   8  16 -14    0.35    0.23
  -8 -16  14    0.36    0.18
   6  16 -14    3.57    0.43
  -6 -16  14    3.97    0.38
   4  16 -14   -0.07    0.18
  -4 -16  14    0.08    0.13
   2  16 -14   -0.14    0.15
  -2 -16  14    0.13    0.14
   0  16 -14    0.00    0.17
   0 -16  14    0.33    0.16
  -2  16 -14   -0.09    0.16
   2 -16  14    0.13    0.14
  -4  16 -14    0.31    0.21
   4 -16  14    0.12    0.16
  -6  16 -14    2.67    0.34
   6 -16  14    3.39    0.39
   8 -16  14    0.56    0.23
  10 -16  14    0.18    0.20
  12 -16  14    0.38    0.24
  14 -16  14    3.37    0.44
  16 -16  14    0.66    0.28
  18 -16  14    0.21    0.23
  20 -16  14    0.84    0.32
  22 -16  14    0.72    0.33
  24 -16  14    0.34    0.31
  26 -16  14    0.14    0.31
  28  14 -14    0.48    0.36
  26  14 -14    5.02    0.63
  24  14 -14   -0.06    0.27
  22  14 -14    5.74    0.63
  20  14 -14    0.03    0.22
  18  14 -14   12.45    0.83
  16  14 -14    3.10    0.44
  14  14 -14   21.59    1.03
  12  14 -14    0.81    0.27
 -12 -14  14    0.52    0.18
  10  14 -14   14.21    0.81
 -10 -14  14   14.19    0.67
   8  14 -14    7.05    0.55
  -8 -14  14    6.69    0.46
   6  14 -14   19.81    0.89
  -6 -14  14   20.05    0.80
   4  14 -14    0.18    0.17
  -4 -14  14    0.11    0.14
   2  14 -14   22.43    0.91
  -2 -14  14   23.46    0.89
   0  14 -14    2.97    0.35
   0 -14  14    3.67    0.36
  -2  14 -14   23.53    0.90
   2 -14  14   23.04    0.91
  -4  14 -14    0.13    0.17
   4 -14  14    0.28    0.16
  -6  14 -14   22.09    0.83
   6 -14  14   20.64    0.90
   8 -14  14    4.74    0.44
  10 -14  14   13.23    0.72
  12 -14  14    0.72    0.26
  14 -14  14   20.24    0.96
  16 -14  14    4.02    0.47
  18 -14  14   13.66    0.85
  20 -14  14    0.01    0.20
  22 -14  14    5.93    0.61
  24 -14  14    0.47    0.30
  26 -14  14    6.94    0.68
  28  12 -14    0.21    0.31
  26  12 -14    1.59    0.40
  24  12 -14    0.30    0.30
  22  12 -14    0.21    0.25
  20  12 -14    0.25    0.24
  18  12 -14    1.74    0.38
  16  12 -14    0.26    0.23
  14  12 -14    0.41    0.23
  12  12 -14    1.37    0.31
  10  12 -14    2.43    0.36
 -10 -12  14    1.43    0.23
   8  12 -14    0.20    0.19
  -8 -12  14    0.16    0.13
   6  12 -14    0.76    0.23
  -6 -12  14    0.94    0.20
   4  12 -14    0.78    0.22
  -4 -12  14    0.77    0.18
   2  12 -14    8.04    0.52
  -2 -12  14    6.92    0.44
   0  12 -14   -0.03    0.11
   0 -12  14    0.20    0.14
  -2  12 -14    6.98    0.46
   2 -12  14    7.72    0.48
  -4  12 -14    1.13    0.22
   4 -12  14    1.29    0.25
  -6  12 -14    0.95    0.20
   6 -12  14    1.18    0.24
  -8  12 -14    0.22    0.15
   8 -12  14    0.40    0.17
  10 -12  14    1.64    0.30
  12 -12  14    1.28    0.28
  14 -12  14    0.50    0.22
  16 -12  14    0.84    0.29
  18 -12  14    1.46    0.35
  20 -12  14    0.17    0.20
  20 -12  14    0.01    0.20
  22 -12  14    0.10    0.19
  22 -12  14    0.10    0.23
  24 -12  14    0.34    0.26
  24 -12  14    0.21    0.28
  26 -12  14    1.23    0.42
  26 -12  14    2.13    0.44
  28 -12  14   -0.01    0.30
  30 -12  14    0.08    0.34
  28  10 -14    0.13    0.30
  26  10 -14    5.37    0.63
  24  10 -14    1.09    0.35
  22  10 -14    6.30    0.62
  20  10 -14    1.36    0.35
  18  10 -14   11.17    0.75
  16  10 -14    0.40    0.25
  14  10 -14   14.14    0.80
  12  10 -14    1.93    0.34
  10  10 -14    9.48    0.61
 -10 -10  14    9.25    0.47
   8  10 -14    0.09    0.15
  -8 -10  14    0.14    0.11
   6  10 -14   17.53    0.79
  -6 -10  14   17.12    0.66
   4  10 -14   14.33    0.69
  -4 -10  14   13.94    0.58
   2  10 -14   15.13    0.69
  -2 -10  14   15.46    0.64
   0  10 -14    7.53    0.47
   0 -10  14    9.28    0.49
  -2  10 -14   15.36    0.64
   2 -10  14   15.07    0.68
  -4  10 -14   13.98    0.59
   4 -10  14   14.37    0.65
  -6  10 -14   18.69    0.68
   6 -10  14   18.26    0.76
  -8  10 -14   -0.03    0.11
   8 -10  14    0.26    0.16
  10 -10  14    8.91    0.57
  10 -10  14    8.98    0.45
  12 -10  14    2.07    0.31
  12 -10  14    2.00    0.26
  14 -10  14   13.31    0.63
  14 -10  14   12.75    0.73
  16 -10  14    0.25    0.22
  16 -10  14    0.06    0.16
  18 -10  14    9.27    0.61
  18 -10  14   10.86    0.70
  20 -10  14    1.21    0.32
  20 -10  14    1.55    0.32
  22 -10  14    6.09    0.61
  22 -10  14    6.56    0.58
  24 -10  14    0.77    0.31
  24 -10  14    1.11    0.35
  26 -10  14    5.85    0.65
  28 -10  14    0.15    0.30
  30 -10  14    5.13    0.67
  32 -10  14    0.37    0.38
  26   8 -14    0.47    0.29
  24   8 -14    0.14    0.26
  22   8 -14    1.51    0.36
  20   8 -14    0.02    0.22
  18   8 -14    0.70    0.28
  16   8 -14    0.65    0.27
  14   8 -14    6.03    0.51
  12   8 -14    0.40    0.20
  10   8 -14   -0.06    0.11
 -10  -8  14    0.18    0.11
   8   8 -14    0.26    0.16
  -8  -8  14    0.00    0.09
   6   8 -14    8.88    0.54
  -6  -8  14    8.42    0.42
   4   8 -14    0.12    0.12
  -4  -8  14    0.11    0.10
   2   8 -14   -0.01    0.11
  -2  -8  14    0.15    0.10
   0   8 -14   -0.03    0.10
   0  -8  14    0.02    0.09
  -2   8 -14    0.13    0.12
   2  -8  14    0.12    0.11
  -4   8 -14    0.04    0.10
   4  -8  14    0.14    0.11
  -6   8 -14    8.51    0.42
   6  -8  14    7.59    0.48
  -8   8 -14    0.03    0.10
   8  -8  14    0.06    0.11
  10  -8  14   -0.01    0.13
  10  -8  14    0.02    0.11
  12  -8  14    0.33    0.18
  12  -8  14    0.30    0.14
  14  -8  14    6.90    0.52
  14  -8  14    5.71    0.43
  16  -8  14    0.75    0.23
  16  -8  14    0.27    0.21
  18  -8  14    0.93    0.28
  18  -8  14    1.41    0.29
  20  -8  14    0.01    0.19
  20  -8  14    0.07    0.21
  22  -8  14    1.78    0.37
  22  -8  14    1.55    0.39
  24  -8  14    0.65    0.30
  24  -8  14    0.73    0.31
  26  -8  14   -0.15    0.26
  26  -8  14   -0.12    0.20
  28  -8  14    0.22    0.31
  28  -8  14    0.10    0.25
  30  -8  14    0.15    0.30
  32  -8  14    0.33    0.34
  26   6 -14    5.87    0.61
  24   6 -14   -0.22    0.21
  22   6 -14   10.29    0.73
  20   6 -14    0.06    0.21
  18   6 -14   13.91    0.81
  16   6 -14    3.66    0.36
  16   6 -14    3.59    0.43
  14   6 -14   20.76    0.79
  14   6 -14   23.12    0.99
  12   6 -14    0.99    0.24
  12   6 -14    0.90    0.19
  10   6 -14   18.41    0.62
  10   6 -14   17.32    0.80
 -10  -6  14   18.10    0.58
   8   6 -14    9.05    0.40
   8   6 -14    8.35    0.53
  -8  -6  14    8.83    0.39
   6   6 -14   27.33    0.95
   6   6 -14   23.98    0.67
  -6  -6  14   25.67    0.75
   4   6 -14    0.74    0.18
   4   6 -14    0.74    0.12
  -4  -6  14    0.88    0.16
   2   6 -14   17.43    0.70
   2   6 -14   16.48    0.49
  -2  -6  14   16.52    0.61
   0   6 -14    7.59    0.44
   0  -6  14    7.46    0.41
  -2   6 -14   16.20    0.62
   2  -6  14   15.99    0.63
  -4   6 -14    1.01    0.17
   4  -6  14    1.29    0.21
  -6   6 -14   25.71    0.75
  -8   6 -14    8.34    0.37
  10  -6  14   18.90    0.69
  10  -6  14   17.07    0.76
  12  -6  14    1.03    0.21
  12  -6  14    1.22    0.26
  14  -6  14   20.31    0.81
  14  -6  14   19.44    0.87
  16  -6  14    3.32    0.36
  16  -6  14    3.63    0.41
  18  -6  14   13.58    0.73
  18  -6  14   14.76    0.79
  20  -6  14    0.06    0.20
  20  -6  14    0.21    0.19
  22  -6  14    9.24    0.66
  22  -6  14    9.69    0.70
  24  -6  14    0.31    0.21
  24  -6  14    0.18    0.27
  26  -6  14    5.50    0.60
  26  -6  14    5.16    0.59
  28  -6  14   -0.02    0.29
  28  -6  14   -0.04    0.27
  30  -6  14    4.04    0.61
  32  -6  14    0.08    0.31
  26   4 -14    1.30    0.40
  26   4 -14    1.49    0.38
  24   4 -14    0.40    0.27
  24   4 -14   -0.06    0.25
  22   4 -14   -0.10    0.20
  22   4 -14    0.60    0.28
  20   4 -14    0.37    0.22
  20   4 -14    0.10    0.20
  18   4 -14    4.84    0.50
  18   4 -14    3.74    0.41
  16   4 -14    0.04    0.17
  16   4 -14   -0.08    0.17
  14   4 -14    0.23    0.16
  14   4 -14   -0.26    0.13
  12   4 -14    0.40    0.20
  12   4 -14    1.18    0.21
  10   4 -14   14.25    0.56
  10   4 -14   13.43    0.69
   8   4 -14   -0.02    0.09
   8   4 -14    0.00    0.10
  -8  -4  14    0.15    0.08
   6   4 -14    0.85    0.15
   6   4 -14    1.04    0.21
  -6  -4  14    0.94    0.14
   4   4 -14   -0.01    0.07
   4   4 -14   -0.05    0.09
  -4  -4  14    0.14    0.08
   2   4 -14   13.73    0.60
   2   4 -14   12.77    0.46
  -2  -4  14   12.81    0.51
   0   4 -14   -0.02    0.09
   0  -4  14    0.05    0.09
  -2   4 -14   13.05    0.54
   2  -4  14   13.45    0.56
  -4   4 -14   -0.02    0.08
   4  -4  14    0.01    0.08
  -6   4 -14    0.71    0.14
   6  -4  14    0.83    0.19
  -8   4 -14    0.07    0.08
   8  -4  14    0.14    0.12
  10  -4  14   14.74    0.69
  12  -4  14    1.18    0.22
  12  -4  14    0.89    0.23
  14  -4  14    0.03    0.15
  14  -4  14    0.30    0.16
  16  -4  14    0.00    0.16
  16  -4  14    0.11    0.15
  18  -4  14    4.51    0.44
  18  -4  14    3.12    0.40
  20  -4  14    0.16    0.21
  20  -4  14    0.30    0.19
  22  -4  14    0.12    0.22
  22  -4  14    0.11    0.19
  24  -4  14   -0.12    0.22
  24  -4  14    0.13    0.20
  26  -4  14    1.31    0.39
  26  -4  14    1.27    0.36
 -28   4 -14    0.20    0.24
  28  -4  14    0.17    0.26
  30  -4  14    0.06    0.26
  32  -4  14    0.46    0.35
  32   2 -14   -0.22    0.37
  30   2 -14   10.24    0.90
  28   2 -14    0.33    0.34
  26   2 -14    8.56    0.75
  26   2 -14    7.95    0.68
  24   2 -14    0.34    0.30
  24   2 -14    0.43    0.27
  22   2 -14    8.66    0.66
  22   2 -14    8.84    0.67
  20   2 -14    2.45    0.40
  20   2 -14    2.70    0.40
  18   2 -14   15.35    0.77
  18   2 -14   17.33    0.87
  16   2 -14   -0.08    0.15
  16   2 -14   -0.03    0.16
  14   2 -14   24.04    0.99
  14   2 -14   24.06    0.87
  12   2 -14    7.35    0.53
  12   2 -14    7.52    0.45
  10   2 -14   15.15    0.60
  10   2 -14   15.17    0.73
   8   2 -14    0.02    0.09
   8   2 -14    0.00    0.12
  -8  -2  14    0.05    0.06
   6   2 -14   16.22    0.71
   6   2 -14   15.61    0.57
  -6  -2  14   15.85    0.51
   4   2 -14   13.43    0.62
   4   2 -14   13.88    0.51
  -4  -2  14   13.05    0.48
   2   2 -14   27.40    0.77
   2   2 -14   27.43    0.90
  -2  -2  14   27.03    0.78
   0   2 -14    6.00    0.38
   0  -2  14    6.51    0.36
  -2   2 -14   27.18    0.83
   2  -2  14   27.85    0.85
  -4   2 -14   12.84    0.50
   4  -2  14   13.35    0.58
  -6   2 -14   15.96    0.54
   6  -2  14   16.20    0.67
  -8   2 -14   -0.02    0.07
   8  -2  14   -0.01    0.09
  10  -2  14   15.38    0.70
  12  -2  14    7.90    0.53
  12  -2  14    8.13    0.49
  14  -2  14   23.00    0.95
  14  -2  14   22.49    0.89
  16  -2  14   -0.01    0.15
  16  -2  14   -0.02    0.13
  18  -2  14   14.52    0.77
  18  -2  14   16.36    0.83
  20  -2  14    2.32    0.36
  20  -2  14    2.02    0.36
  22  -2  14    9.77    0.69
  22  -2  14    9.54    0.68
  24  -2  14   -0.09    0.22
  24  -2  14    0.37    0.22
 -26   2 -14    7.32    0.63
  26  -2  14    7.95    0.69
 -28   2 -14   -0.01    0.25
  28  -2  14    0.13    0.28
  30  -2  14    6.83    0.73
  32  -2  14   -0.09    0.31
  32   0 -14   -0.13    0.40
  30   0 -14    1.17    0.44
  28   0 -14   -0.21    0.29
  26   0 -14    0.08    0.24
  26   0 -14    0.06    0.28
  24   0 -14   -0.19    0.23
  24   0 -14   -0.23    0.19
  22   0 -14    1.64    0.38
  22   0 -14    2.31    0.39
  20   0 -14   -0.20    0.18
  20   0 -14    0.07    0.20
  18   0 -14    0.53    0.24
  18   0 -14    0.48    0.24
  16   0 -14    0.41    0.19
  16   0 -14   -0.03    0.17
  14   0 -14    2.64    0.36
  14   0 -14    3.35    0.35
  12   0 -14    0.13    0.14
  12   0 -14   -0.14    0.12
  10   0 -14    8.45    0.46
   8   0 -14   -0.08    0.09
  -8   0  14   -0.02    0.06
   6   0 -14    7.28    0.39
  -6   0  14    7.53    0.32
   4   0 -14   -0.05    0.08
  -4   0  14   -0.01    0.06
   2   0 -14    6.51    0.37
  -2   0  14    6.57    0.34
   0   0  14   -0.04    0.07
   2   0  14    5.57    0.35
   4   0  14   -0.06    0.07
   6   0  14    7.72    0.46
  -8   0 -14    0.05    0.08
   8   0  14    0.19    0.12
  10   0  14    8.76    0.53
  12   0  14    0.02    0.13
  14   0  14    3.11    0.37
  14   0  14    3.60    0.36
  16   0  14    0.15    0.16
  16   0  14    0.16    0.18
  18   0  14    0.39    0.19
  18   0  14    0.07    0.20
  20   0  14    0.15    0.17
  20   0  14    0.03    0.18
 -22   0 -14    1.65    0.32
  22   0  14    1.24    0.33
 -24   0 -14   -0.19    0.19
  24   0  14    0.25    0.22
 -26   0 -14   -0.03    0.19
  26   0  14   -0.05    0.23
 -28   0 -14    0.24    0.26
  28   0  14    0.04    0.24
  30   0  14    0.49    0.33
  32   0  14    0.23    0.33
  32  -2 -14    0.12    0.41
  30  -2 -14    6.87    0.78
  28  -2 -14   -0.26    0.31
  26  -2 -14    8.09    0.68
  26  -2 -14    7.07    0.70
  24  -2 -14    0.52    0.32
  24  -2 -14    0.38    0.25
  22  -2 -14   10.19    0.71
  22  -2 -14    8.05    0.66
  20  -2 -14    3.02    0.42
  20  -2 -14    2.07    0.38
  18  -2 -14   14.25    0.76
  18  -2 -14   13.94    0.77
  16  -2 -14   -0.10    0.16
  14  -2 -14   23.39    0.89
  12  -2 -14    7.65    0.49
  10  -2 -14   15.63    0.66
   8  -2 -14    0.18    0.12
   6  -2 -14   16.35    0.62
  -6   2  14   15.46    0.47
   4  -2 -14   13.47    0.56
  -4   2  14   13.06    0.46
   2  -2 -14   25.74    0.83
  -2   2  14   27.41    0.76
   0   2  14    6.74    0.37
   2   2  14   27.36    0.84
   4   2  14   12.51    0.55
   6   2  14   16.65    0.67
   8   2  14    0.27    0.13
  10   2  14   15.02    0.69
  12   2  14    6.26    0.47
  14   2  14   23.11    0.94
 -16  -2 -14    0.03    0.14
  16   2  14   -0.12    0.13
 -18  -2 -14   15.28    0.78
  18   2  14   16.10    0.82
 -20  -2 -14    2.45    0.37
  20   2  14    2.32    0.37
 -22  -2 -14    8.00    0.61
  22   2  14    8.03    0.65
 -24  -2 -14    0.72    0.27
  24   2  14    0.00    0.20
 -26  -2 -14    7.92    0.66
  26   2  14    7.70    0.71
 -28  -2 -14    0.07    0.26
  28   2  14    0.02    0.24
 -30  -2 -14    6.41    0.66
  30   2  14    7.06    0.77
  32   2  14    0.37    0.33
  32  -4 -14   -0.17    0.36
  30  -4 -14    0.65    0.39
  28  -4 -14    0.10    0.33
  26  -4 -14    1.00    0.33
  26  -4 -14    1.47    0.41
  24  -4 -14    0.59    0.26
  24  -4 -14    0.43    0.31
  22  -4 -14    0.30    0.30
  22  -4 -14    0.26    0.22
  20  -4 -14    0.13    0.21
  18  -4 -14    4.64    0.47
  16  -4 -14    0.17    0.20
  14  -4 -14    0.04    0.16
  12  -4 -14    1.21    0.24
  10  -4 -14   13.45    0.63
   8  -4 -14    0.08    0.12
   6  -4 -14    0.91    0.18
   6  -4 -14    0.99    0.13
   4  -4 -14    0.21    0.09
   4  -4 -14   -0.06    0.10
   2  -4 -14   13.40    0.58
   2  -4 -14   12.78    0.48
   0  -4 -14   -0.11    0.08
  -2  -4 -14   12.94    0.54
  -4  -4 -14    0.13    0.12
  -6  -4 -14    0.75    0.17
   6   4  14    0.73    0.17
  -8  -4 -14    0.08    0.11
 -10  -4 -14   13.41    0.65
 -12  -4 -14    1.09    0.24
 -14  -4 -14    0.27    0.17
 -16  -4 -14    0.17    0.17
 -18  -4 -14    4.57    0.45
 -20  -4 -14   -0.03    0.15
 -22  -4 -14    0.26    0.21
  22   4  14    0.06    0.16
 -24  -4 -14    0.50    0.26
  24   4  14    0.27    0.23
 -26  -4 -14    2.21    0.41
  26   4  14    0.95    0.33
 -28  -4 -14    0.10    0.25
  28   4  14    0.09    0.25
 -30  -4 -14    0.24    0.30
  30   4  14   -0.47    0.21
  32   4  14    0.01    0.31
  32  -6 -14   -0.16    0.38
  30  -6 -14    5.53    0.72
  28  -6 -14    0.48    0.36
  26  -6 -14    6.04    0.61
  26  -6 -14    5.70    0.68
  24  -6 -14    0.22    0.22
  24  -6 -14    0.58    0.33
  22  -6 -14    9.78    0.73
  20  -6 -14    0.10    0.23
  18  -6 -14   11.81    0.73
  16  -6 -14    3.36    0.40
  14  -6 -14   20.88    0.89
  12  -6 -14    1.11    0.24
  10  -6 -14   18.09    0.77
   8  -6 -14    8.60    0.51
   6  -6 -14   24.19    0.87
   6  -6 -14   24.48    0.64
   4  -6 -14    1.07    0.21
   4  -6 -14    0.91    0.14
   2  -6 -14   16.06    0.57
   2  -6 -14   16.71    0.69
   0  -6 -14    7.97    0.41
  -2  -6 -14   15.70    0.61
  -4  -6 -14    0.62    0.16
  -6  -6 -14   25.84    0.89
  -8  -6 -14    7.92    0.49
 -10  -6 -14   17.15    0.77
 -12  -6 -14    1.47    0.28
 -14  -6 -14   19.57    0.85
 -16  -6 -14    2.81    0.36
 -18  -6 -14   13.53    0.76
 -20  -6 -14   -0.14    0.16
 -22  -6 -14    9.48    0.69
 -24  -6 -14    0.30    0.24
 -26  -6 -14    6.11    0.62
 -28  -6 -14   -0.29    0.22
  30  -8 -14    0.42    0.42
  28  -8 -14    0.25    0.34
  26  -8 -14    0.19    0.33
  24  -8 -14    0.14    0.27
  22  -8 -14    2.08    0.41
  20  -8 -14   -0.16    0.18
  18  -8 -14    1.03    0.32
  16  -8 -14    0.35    0.23
  14  -8 -14    5.01    0.46
  12  -8 -14    0.39    0.19
  10  -8 -14    0.23    0.17
   8  -8 -14    0.13    0.15
   6  -8 -14    7.88    0.50
   6  -8 -14    8.43    0.36
   4  -8 -14    0.19    0.16
   4  -8 -14    0.05    0.10
   2  -8 -14    0.08    0.12
   2  -8 -14    0.11    0.10
   0  -8 -14    0.03    0.10
  -2  -8 -14    0.11    0.12
  -4  -8 -14    0.13    0.13
  -6  -8 -14    7.53    0.47
  -8  -8 -14    0.08    0.14
 -10  -8 -14    0.26    0.17
 -12  -8 -14    0.47    0.20
 -14  -8 -14    6.12    0.50
 -16  -8 -14    0.11    0.18
 -18  -8 -14    0.76    0.25
 -20  -8 -14   -0.07    0.17
 -22  -8 -14    1.82    0.37
 -24  -8 -14    0.20    0.23
 -26  -8 -14    0.31    0.27
 -28  -8 -14   -0.07    0.26
  30 -10 -14    4.90    0.73
  28 -10 -14   -0.38    0.28
  26 -10 -14    4.73    0.63
  24 -10 -14    1.04    0.39
  22 -10 -14    5.88    0.61
  20 -10 -14    1.28    0.36
  18 -10 -14   10.16    0.71
  16 -10 -14    0.51    0.25
  14 -10 -14   13.88    0.76
  12 -10 -14    1.95    0.34
  10 -10 -14    8.24    0.55
   8 -10 -14   -0.03    0.12
   6 -10 -14   17.46    0.58
   6 -10 -14   17.59    0.79
   4 -10 -14   14.22    0.69
   4 -10 -14   14.28    0.54
   2 -10 -14   14.40    0.69
   2 -10 -14   14.75    0.57
   0 -10 -14    8.66    0.46
   0 -10 -14    8.07    0.52
  -2 -10 -14   15.95    0.66
  -4 -10 -14   13.89    0.62
  -6 -10 -14   18.23    0.77
  -8 -10 -14    0.23    0.18
 -10 -10 -14    7.86    0.54
 -12 -10 -14    1.60    0.30
 -14 -10 -14   13.91    0.74
 -16 -10 -14   -0.12    0.17
 -18 -10 -14   11.97    0.74
 -20 -10 -14    1.27    0.32
 -22 -10 -14    4.82    0.52
 -24 -10 -14    0.56    0.31
 -26 -10 -14    4.52    0.56
 -28 -10 -14   -0.02    0.30
  30 -12 -14   -0.05    0.38
  28 -12 -14    0.53    0.41
  26 -12 -14    0.60    0.39
  24 -12 -14    0.27    0.30
  22 -12 -14    0.09    0.27
  20 -12 -14    0.89    0.33
  18 -12 -14    1.72    0.37
  16 -12 -14    1.35    0.33
  14 -12 -14    0.48    0.24
  12 -12 -14    1.16    0.29
  10 -12 -14    1.96    0.33
   8 -12 -14    0.18    0.15
   6 -12 -14    0.86    0.17
   6 -12 -14    1.18    0.26
  -6  12  14    0.73    0.16
   4 -12 -14    1.36    0.27
   4 -12 -14    0.97    0.19
   2 -12 -14    7.12    0.50
   2 -12 -14    7.70    0.43
   0 -12 -14   -0.07    0.11
   0 -12 -14   -0.08    0.14
  -2 -12 -14    7.21    0.45
  -4 -12 -14    0.96    0.23
  -6 -12 -14    1.16    0.25
  -8 -12 -14    0.22    0.18
 -10 -12 -14    1.37    0.30
 -12 -12 -14    1.61    0.33
 -14 -12 -14    0.18    0.19
 -16 -12 -14    0.99    0.29
 -18 -12 -14    1.82    0.35
 -20 -12 -14    0.12    0.20
 -22 -12 -14   -0.09    0.19
 -24 -12 -14   -0.21    0.22
 -26 -12 -14    1.28    0.40
  28 -14 -14   -0.15    0.33
  26 -14 -14    6.26    0.75
  24 -14 -14    0.22    0.33
  22 -14 -14    5.19    0.62
  20 -14 -14    0.64    0.34
  18 -14 -14   12.54    0.82
  16 -14 -14    4.44    0.51
  14 -14 -14   18.10    0.92
  12 -14 -14    0.41    0.22
   8 -14 -14    6.32    0.51
   6 -14 -14   20.06    0.89
   6 -14 -14   18.87    0.69
   4 -14 -14   -0.05    0.15
   4 -14 -14   -0.03    0.12
  -4  14  14    0.18    0.14
   2 -14 -14   23.70    0.83
   2 -14 -14   23.87    0.98
  -2  14  14   23.93    0.84
   0 -14 -14    2.09    0.32
   0 -14 -14    3.75    0.34
   0  14  14    2.95    0.31
  -2 -14 -14   22.52    0.86
   2  14  14   24.19    0.88
  -4 -14 -14    0.24    0.18
  -6 -14 -14   20.76    0.88
  -8 -14 -14    5.77    0.48
 -10 -14 -14   15.92    0.81
 -12 -14 -14    0.45    0.26
 -14 -14 -14   19.95    0.97
 -16 -14 -14    3.40    0.46
 -18 -14 -14   12.48    0.80
 -20 -14 -14    0.43    0.27
 -22 -14 -14    4.62    0.54
 -24 -14 -14   -0.15    0.24
  28 -16 -14   -0.06    0.41
  26 -16 -14    0.66    0.39
  24 -16 -14    1.01    0.39
  22 -16 -14    0.92    0.34
  20 -16 -14    0.13    0.26
  18 -16 -14    0.28    0.27
  16 -16 -14    1.21    0.33
  14 -16 -14    3.56    0.47
  12 -16 -14    0.59    0.25
  10 -16 -14    0.04    0.16
   8 -16 -14    0.30    0.21
   6 -16 -14    3.42    0.42
   4 -16 -14    0.16    0.16
   4 -16 -14   -0.05    0.16
  -4  16  14    0.04    0.12
   2 -16 -14   -0.08    0.14
   2 -16 -14   -0.08    0.15
  -2  16  14    0.10    0.13
   0 -16 -14   -0.03    0.15
   0 -16 -14    0.29    0.19
   0  16  14    0.12    0.14
  -2 -16 -14    0.19    0.20
  -2 -16 -14    0.10    0.17
   2  16  14    0.10    0.13
  -4 -16 -14    0.08    0.18
   4  16  14    0.28    0.16
  -6 -16 -14    3.75    0.41
   6  16  14    3.48    0.39
  -8 -16 -14    0.90    0.28
 -10 -16 -14    0.34    0.22
 -12 -16 -14    0.42    0.23
 -14 -16 -14    2.87    0.43
 -16 -16 -14    0.41    0.26
 -18 -16 -14    0.13    0.23
 -20 -16 -14    0.32    0.24
 -22 -16 -14    0.70    0.32
 -24 -16 -14    0.51    0.31
  26 -18 -14    4.62    0.68
  24 -18 -14    0.11    0.31
  22 -18 -14    3.90    0.58
  20 -18 -14    0.99    0.36
  18 -18 -14    9.00    0.75
  16 -18 -14    0.18    0.25
  14 -18 -14   11.79    0.79
  12 -18 -14    1.78    0.37
  10 -18 -14   10.12    0.69
   8 -18 -14    0.58    0.26
   6 -18 -14   12.45    0.74
   4 -18 -14    3.84    0.38
   4 -18 -14    5.11    0.49
  -4  18  14    4.21    0.38
   2 -18 -14   14.53    0.71
   2 -18 -14   15.93    0.83
  -2  18  14   16.28    0.75
   0 -18 -14    0.33    0.21
   0 -18 -14    0.18    0.19
   0  18  14    0.45    0.20
  -2 -18 -14   16.39    0.81
  -2 -18 -14   15.86    0.84
   2  18  14   17.21    0.80
  -4 -18 -14    4.60    0.46
   4  18  14    4.66    0.45
  -6 -18 -14   14.26    0.79
   6  18  14   14.88    0.78
  -8 -18 -14    0.71    0.27
   8  18  14    1.01    0.28
 -10 -18 -14   11.18    0.73
 -12 -18 -14    1.61    0.36
 -14 -18 -14   12.76    0.82
 -16 -18 -14   -0.08    0.20
 -18 -18 -14    9.98    0.75
 -20 -18 -14    1.72    0.41
 -22 -18 -14    2.84    0.51
  24 -20 -14    0.37    0.33
  22 -20 -14    0.19    0.30
  20 -20 -14    0.10    0.28
  18 -20 -14    1.36    0.42
  16 -20 -14    0.23    0.25
  14 -20 -14    0.28    0.24
  12 -20 -14    0.34    0.26
  10 -20 -14    1.23    0.34
   8 -20 -14   -0.11    0.18
   6 -20 -14    0.17    0.20
   4 -20 -14   -0.16    0.14
   4 -20 -14   -0.10    0.18
  -4  20  14    0.47    0.20
   2 -20 -14    2.39    0.38
   2 -20 -14    2.10    0.33
  -2  20  14    2.48    0.33
   0 -20 -14   -0.03    0.17
   0 -20 -14    0.07    0.20
   0  20  14    0.26    0.18
  -2 -20 -14    2.24    0.38
  -2 -20 -14    2.28    0.36
   2  20  14    2.52    0.36
  -4 -20 -14    0.17    0.19
  -4 -20 -14    0.23    0.23
   4  20  14    0.09    0.18
  -6 -20 -14   -0.02    0.20
   6  20  14    0.39    0.20
  -8 -20 -14    0.41    0.26
   8  20  14    0.58    0.23
 -10 -20 -14    1.39    0.36
  10  20  14    1.76    0.36
 -12 -20 -14    0.21    0.26
 -14 -20 -14   -0.19    0.22
 -16 -20 -14    0.39    0.26
 -18 -20 -14    1.03    0.36
 -20 -20 -14   -0.06    0.25
  24 -22 -14    0.14    0.33
  22 -22 -14    2.22    0.52
  20 -22 -14    0.23    0.30
  18 -22 -14    2.47    0.49
  16 -22 -14    0.91    0.36
  14 -22 -14    4.70    0.56
  12 -22 -14    0.33    0.25
  10 -22 -14    5.60    0.57
   8 -22 -14    1.17    0.32
   6 -22 -14    9.65    0.69
   4 -22 -14    0.14    0.23
   4 -22 -14    0.08    0.21
   2 -22 -14    8.56    0.64
   2 -22 -14    8.28    0.60
  -2  22  14    7.86    0.59
   0 -22 -14    1.51    0.35
   0 -22 -14    1.51    0.35
   0  22  14    1.51    0.32
  -2 -22 -14    8.58    0.64
  -2 -22 -14    8.01    0.64
   2  22  14    8.87    0.63
  -4 -22 -14    0.42    0.26
  -4 -22 -14    0.34    0.24
   4  22  14    0.47    0.24
  -6 -22 -14    9.91    0.73
   6  22  14    8.54    0.66
  -8 -22 -14    1.42    0.37
   8  22  14    1.24    0.33
 -10 -22 -14    6.14    0.62
  10  22  14    6.30    0.60
 -12 -22 -14   -0.03    0.27
 -14 -22 -14    6.12    0.65
 -16 -22 -14    0.81    0.36
 -18 -22 -14    3.03    0.51
  22 -24 -14    0.10    0.36
  20 -24 -14    0.82    0.41
  18 -24 -14   -0.18    0.27
  16 -24 -14    0.07    0.28
  14 -24 -14    0.21    0.27
  12 -24 -14    0.51    0.33
  10 -24 -14    0.42    0.27
   8 -24 -14    0.94    0.36
   6 -24 -14    0.11    0.22
   4 -24 -14   -0.01    0.22
   2 -24 -14    0.27    0.25
   2 -24 -14    0.04    0.25
  -2  24  14    0.15    0.21
   0 -24 -14    0.18    0.26
   0 -24 -14    0.29    0.24
   0  24  14    0.25    0.21
  -2 -24 -14    0.17    0.21
  -2 -24 -14   -0.12    0.23
   2  24  14    0.82    0.29
  -4 -24 -14    0.11    0.27
  -4 -24 -14    0.17    0.24
   4  24  14    0.21    0.21
  -6 -24 -14    0.54    0.25
  -6 -24 -14    0.29    0.27
   6  24  14    0.46    0.26
  -8 -24 -14    0.37    0.31
   8  24  14    0.52    0.27
 -10 -24 -14    1.05    0.38
  10  24  14    0.44    0.26
 -12 -24 -14    0.13    0.29
  12  24  14    0.37    0.28
 -14 -24 -14   -0.05    0.29
  20 -26 -14    0.65    0.42
  18 -26 -14    2.89    0.55
  16 -26 -14   -0.05    0.29
  14 -26 -14    5.72    0.66
  12 -26 -14    0.89    0.37
  10 -26 -14    5.52    0.63
   8 -26 -14   -0.05    0.24
   6 -26 -14    5.00    0.58
   4 -26 -14    1.34    0.36
   2 -26 -14    6.59    0.63
   2 -26 -14    8.34    0.67
   0 -26 -14    0.14    0.23
   0 -26 -14    0.13    0.28
   0  26  14    0.12    0.23
  -2 -26 -14    8.02    0.69
  -2 -26 -14    8.31    0.71
   2  26  14    7.59    0.65
  -4 -26 -14    1.90    0.43
  -4 -26 -14    1.24    0.35
   4  26  14    0.40    0.27
  -6 -26 -14    6.04    0.66
  -6 -26 -14    6.31    0.63
   6  26  14    5.65    0.61
  -8 -26 -14    0.55    0.34
  -8 -26 -14    0.50    0.30
   8  26  14    0.17    0.27
 -10 -26 -14    4.87    0.63
  10  26  14    5.17    0.61
 -12 -26 -14    1.58    0.47
  12  26  14    1.43    0.40
  16 -28 -14    0.12    0.34
  14 -28 -14    0.50    0.35
  12 -28 -14    0.40    0.32
  10 -28 -14    0.59    0.34
   8 -28 -14    0.27    0.28
   6 -28 -14   -0.01    0.24
   4 -28 -14    0.13    0.27
   2 -28 -14    0.01    0.24
   0 -28 -14   -0.12    0.25
   0 -28 -14    0.01    0.27
   0  28  14    0.06    0.24
  -2 -28 -14    0.54    0.34
  -2 -28 -14    0.06    0.26
   2  28  14   -0.18    0.20
  -4 -28 -14   -0.12    0.29
  -4 -28 -14   -0.15    0.25
   4  28  14   -0.07    0.25
  -6 -28 -14   -0.22    0.30
  -6 -28 -14   -0.01    0.27
   6  28  14   -0.02    0.22
  -8 -28 -14    0.28    0.33
  -8 -28 -14   -0.10    0.22
   8  28  14    0.32    0.29
 -10 -28 -14   -0.24    0.25
  10  28  14    0.29    0.30
  14 -30 -14    4.01    0.61
  12 -30 -14    0.32    0.34
  10 -30 -14    5.10    0.65
   8 -30 -14   -0.05    0.25
   6 -30 -14    4.33    0.60
   4 -30 -14    0.16    0.30
   2 -30 -14    7.73    0.72
   0 -30 -14    0.57    0.33
   0 -30 -14    0.68    0.37
   0  30  14    0.34    0.31
  -2 -30 -14    6.18    0.66
  -2 -30 -14    8.54    0.79
   2  30  14    6.58    0.68
  -4 -30 -14    0.11    0.29
   4  30  14    0.12    0.28
  -6 -30 -14    3.87    0.58
  10 -32 -14    0.11    0.34
   8 -32 -14   -0.24    0.30
  13  29 -15    0.09    0.40
  17  27 -15   -0.09    0.31
  15  27 -15    0.09    0.34
  13  27 -15    0.15    0.32
  11  27 -15    0.31    0.36
 -11 -27  15    0.06    0.25
   9  27 -15    0.22    0.35
  -9 -27  15    0.18    0.26
   7  27 -15    0.30    0.36
  -7 -27  15    0.08    0.25
  -5 -27  15    0.33    0.28
  -3 -27  15    0.30    0.25
  -1 -27  15    0.17    0.21
   1 -27  15   -0.04    0.23
   3 -27  15    0.15    0.24
   5 -27  15   -0.01    0.21
   7 -27  15   -0.17    0.21
  19  25 -15   -0.05    0.34
  17  25 -15    0.10    0.32
  15  25 -15   -0.28    0.30
  13  25 -15   -0.03    0.28
  11  25 -15    0.45    0.34
 -11 -25  15    1.00    0.32
   9  25 -15   -0.13    0.27
  -9 -25  15    0.12    0.22
   7  25 -15   -0.02    0.32
  -7 -25  15    0.15    0.24
   5  25 -15    0.13    0.31
  -5 -25  15    0.13    0.22
   3  25 -15    0.09    0.31
  -3 -25  15    0.16    0.22
  -1 -25  15    0.30    0.22
   1 -25  15    0.36    0.23
   3 -25  15    0.03    0.21
   5 -25  15    0.04    0.22
   7 -25  15   -0.10    0.23
   9 -25  15   -0.23    0.24
  11 -25  15    0.29    0.31
  13 -25  15    0.03    0.27
  21  23 -15   -0.33    0.31
  19  23 -15   -0.07    0.30
  17  23 -15    0.00    0.27
  15  23 -15    0.01    0.29
  13  23 -15    0.43    0.34
  11  23 -15    0.12    0.26
 -11 -23  15    0.01    0.19
   9  23 -15    0.09    0.29
  -9 -23  15    0.14    0.21
   7  23 -15   -0.14    0.24
  -7 -23  15   -0.09    0.19
   5  23 -15    0.11    0.28
  -5 -23  15    0.08    0.22
   3  23 -15    0.35    0.26
  -3 -23  15    0.14    0.20
   1  23 -15    0.11    0.28
  -1 -23  15   -0.06    0.18
   1 -23  15   -0.03    0.17
   3 -23  15   -0.08    0.18
   5 -23  15    0.52    0.25
   7 -23  15    0.13    0.25
   9 -23  15   -0.23    0.19
  11 -23  15    0.03    0.25
  13 -23  15    0.32    0.27
  15 -23  15    0.28    0.32
  17 -23  15   -0.22    0.27
  25  21 -15   -0.18    0.33
  23  21 -15    0.23    0.38
  21  21 -15   -0.04    0.30
  19  21 -15   -0.31    0.23
  17  21 -15    0.40    0.30
  15  21 -15   -0.30    0.21
  13  21 -15   -0.20    0.24
  11  21 -15    0.25    0.30
 -11 -21  15    0.73    0.25
   9  21 -15    0.60    0.31
  -9 -21  15    0.83    0.28
   7  21 -15   -0.07    0.26
  -7 -21  15    0.51    0.23
   5  21 -15    0.13    0.27
  -5 -21  15    0.05    0.17
   3  21 -15    0.45    0.30
  -3 -21  15    0.49    0.22
   1  21 -15   -0.07    0.22
  -1 -21  15   -0.06    0.16
  -1  21 -15    0.05    0.25
   1 -21  15   -0.21    0.13
  -3  21 -15    0.55    0.28
   3 -21  15    0.75    0.27
   5 -21  15   -0.06    0.19
   7 -21  15    0.40    0.28
   9 -21  15    0.62    0.31
  11 -21  15    0.28    0.30
  13 -21  15   -0.01    0.23
  15 -21  15    0.04    0.26
  17 -21  15    0.34    0.28
  19 -21  15   -0.12    0.30
  27  19 -15   -0.04    0.38
  25  19 -15    0.18    0.35
  23  19 -15   -0.17    0.29
  21  19 -15    0.36    0.32
  19  19 -15    0.22    0.29
  17  19 -15   -0.01    0.26
  15  19 -15   -0.37    0.19
  13  19 -15    0.06    0.24
  11  19 -15   -0.05    0.22
 -11 -19  15    0.13    0.17
   9  19 -15   -0.13    0.22
  -9 -19  15   -0.18    0.14
   7  19 -15    0.05    0.23
  -7 -19  15    0.16    0.16
   5  19 -15    0.47    0.26
  -5 -19  15    0.52    0.21
   3  19 -15   -0.11    0.19
  -3 -19  15    0.27    0.17
   1  19 -15   -0.06    0.21
  -1 -19  15    0.21    0.16
  -1  19 -15    0.01    0.21
   1 -19  15   -0.24    0.10
  -3  19 -15   -0.05    0.18
   3 -19  15   -0.13    0.14
  -5  19 -15    0.65    0.27
   5 -19  15    0.77    0.25
   7 -19  15   -0.16    0.15
   9 -19  15    0.07    0.18
  11 -19  15    0.17    0.23
  13 -19  15    0.10    0.21
  15 -19  15    0.20    0.26
  17 -19  15    0.01    0.23
  19 -19  15   -0.03    0.26
  21 -19  15    0.06    0.34
  27  17 -15   -0.21    0.33
  25  17 -15    0.21    0.37
  23  17 -15   -0.03    0.30
  21  17 -15    0.48    0.32
  19  17 -15    0.15    0.28
  17  17 -15    0.07    0.23
  15  17 -15   -0.24    0.22
  13  17 -15    0.33    0.22
  11  17 -15    0.59    0.29
 -11 -17  15    0.23    0.17
   9  17 -15   -0.27    0.16
  -9 -17  15   -0.12    0.12
   7  17 -15   -0.26    0.18
  -7 -17  15    0.13    0.15
   5  17 -15    0.16    0.22
  -5 -17  15    0.17    0.17
   3  17 -15    0.01    0.21
  -3 -17  15   -0.03    0.13
   1  17 -15    0.04    0.19
  -1 -17  15    0.00    0.15
  -1  17 -15   -0.21    0.21
   1 -17  15   -0.07    0.13
  -3  17 -15    0.37    0.23
   3 -17  15    0.24    0.18
  -5  17 -15   -0.08    0.19
   5 -17  15    0.05    0.15
   7 -17  15   -0.18    0.15
   9 -17  15    0.22    0.19
  11 -17  15    0.43    0.27
  13 -17  15    0.51    0.26
  15 -17  15   -0.47    0.21
  17 -17  15   -0.17    0.20
  19 -17  15   -0.13    0.22
  21 -17  15    0.11    0.29
  23 -17  15   -0.09    0.29
  27  15 -15   -0.26    0.30
  25  15 -15   -0.16    0.24
  23  15 -15    0.14    0.28
  21  15 -15   -0.03    0.25
  19  15 -15    0.17    0.24
  17  15 -15   -0.02    0.20
  15  15 -15    0.05    0.18
  13  15 -15   -0.11    0.16
  11  15 -15    0.18    0.22
 -11 -15  15   -0.16    0.12
   9  15 -15    0.13    0.22
  -9 -15  15   -0.17    0.12
   7  15 -15   -0.06    0.19
  -7 -15  15    0.03    0.13
   5  15 -15    0.07    0.19
  -5 -15  15    0.12    0.15
   3  15 -15    0.15    0.19
  -3 -15  15    0.01    0.12
   1  15 -15   -0.21    0.13
  -1 -15  15    0.22    0.15
  -1  15 -15    0.05    0.15
   1 -15  15    0.07    0.12
  -3  15 -15   -0.03    0.16
   3 -15  15    0.01    0.12
  -5  15 -15    0.32    0.20
   5 -15  15   -0.04    0.13
  -7  15 -15    0.12    0.17
   7 -15  15    0.06    0.14
   9 -15  15    0.07    0.16
  11 -15  15   -0.20    0.13
  13 -15  15   -0.02    0.17
  15 -15  15   -0.13    0.19
  17 -15  15    0.07    0.22
  19 -15  15   -0.07    0.21
  21 -15  15    0.14    0.26
  23 -15  15    0.20    0.29
  25 -15  15    0.27    0.31
  27  13 -15    0.04    0.34
  25  13 -15    0.30    0.26
  23  13 -15    0.12    0.27
  21  13 -15   -0.02    0.23
  19  13 -15   -0.25    0.20
  17  13 -15    0.38    0.26
  15  13 -15   -0.17    0.19
  13  13 -15   -0.06    0.18
  11  13 -15    0.54    0.25
 -11 -13  15    0.13    0.13
   9  13 -15   -0.08    0.15
  -9 -13  15    0.03    0.12
   7  13 -15   -0.01    0.16
  -7 -13  15    0.15    0.13
   5  13 -15    0.80    0.24
  -5 -13  15    1.21    0.23
   3  13 -15    0.19    0.20
  -3 -13  15    0.50    0.18
   1  13 -15   -0.19    0.12
  -1 -13  15   -0.19    0.10
  -1  13 -15   -0.22    0.13
   1 -13  15    0.02    0.11
  -3  13 -15    0.40    0.19
   3 -13  15    0.29    0.17
  -5  13 -15    0.52    0.22
   5 -13  15    0.81    0.23
  -7  13 -15    0.10    0.16
   7 -13  15   -0.28    0.11
   9 -13  15   -0.02    0.16
  11 -13  15    0.14    0.19
  13 -13  15    0.04    0.18
  15 -13  15   -0.06    0.19
  17 -13  15    0.40    0.26
  19 -13  15   -0.11    0.22
  21 -13  15    0.11    0.22
  23 -13  15    0.35    0.31
  25 -13  15    0.26    0.32
  27 -13  15    0.09    0.33
  27  11 -15    0.26    0.32
  25  11 -15    0.94    0.35
  23  11 -15   -0.08    0.26
  21  11 -15    0.55    0.28
  19  11 -15   -0.02    0.21
  17  11 -15    0.95    0.30
  15  11 -15    0.16    0.21
  13  11 -15    0.11    0.20
  11  11 -15    0.05    0.19
   9  11 -15    0.22    0.21
  -9 -11  15    0.17    0.12
   7  11 -15    0.13    0.16
  -7 -11  15   -0.07    0.11
   5  11 -15    0.96    0.25
  -5 -11  15    1.26    0.21
   3  11 -15   -0.03    0.14
  -3 -11  15   -0.06    0.08
   1  11 -15    1.46    0.25
  -1 -11  15    1.38    0.23
  -1  11 -15    1.30    0.23
   1 -11  15    1.31    0.24
  -3  11 -15   -0.07    0.11
   3 -11  15   -0.09    0.11
  -5  11 -15    0.67    0.19
   5 -11  15    1.46    0.26
  -7  11 -15   -0.08    0.13
   7 -11  15    0.06    0.13
   9 -11  15    0.19    0.16
  11 -11  15   -0.05    0.14
  13 -11  15    0.48    0.22
  15 -11  15   -0.01    0.19
  17 -11  15    1.13    0.31
  19 -11  15    0.41    0.21
  19 -11  15    0.14    0.24
  21 -11  15    0.52    0.25
  21 -11  15    0.45    0.27
  23 -11  15    0.20    0.23
  23 -11  15   -0.16    0.25
  25 -11  15    1.04    0.34
  25 -11  15    0.59    0.35
  27 -11  15    0.32    0.33
  27 -11  15   -0.07    0.26
  29 -11  15    0.14    0.30
  31 -11  15    0.36    0.36
  27   9 -15    0.32    0.31
  25   9 -15    0.29    0.29
  23   9 -15    0.19    0.25
  21   9 -15    0.72    0.31
  19   9 -15   -0.01    0.19
  17   9 -15    0.56    0.22
  15   9 -15    0.02    0.18
  13   9 -15    0.11    0.17
  11   9 -15   -0.01    0.18
   9   9 -15    0.29    0.17
  -9  -9  15   -0.09    0.08
   7   9 -15    0.97    0.24
  -7  -9  15    0.81    0.17
   5   9 -15   -0.04    0.11
  -5  -9  15   -0.05    0.09
   3   9 -15    0.22    0.16
  -3  -9  15    0.70    0.17
   1   9 -15    4.02    0.36
  -1  -9  15    3.48    0.32
  -1   9 -15    3.75    0.34
   1  -9  15    4.24    0.35
  -3   9 -15    0.39    0.16
   3  -9  15    0.65    0.18
  -5   9 -15   -0.07    0.11
   5  -9  15    0.00    0.11
  -7   9 -15    0.67    0.17
   7  -9  15    0.30    0.17
   9  -9  15    0.01    0.11
  11  -9  15    0.17    0.17
  11  -9  15    0.23    0.13
  13  -9  15    0.10    0.12
  13  -9  15    0.00    0.15
  15  -9  15   -0.12    0.17
  15  -9  15   -0.11    0.13
  17  -9  15    0.02    0.16
  17  -9  15   -0.09    0.15
  19  -9  15    0.11    0.22
  19  -9  15    0.08    0.18
  21  -9  15    0.17    0.25
  21  -9  15    0.59    0.26
  23  -9  15   -0.06    0.24
  23  -9  15    0.00    0.21
  25  -9  15   -0.03    0.27
  25  -9  15    0.09    0.23
  27  -9  15   -0.22    0.28
  27  -9  15    0.27    0.29
  29  -9  15   -0.04    0.26
  31  -9  15    0.33    0.32
  27   7 -15    0.04    0.25
  25   7 -15   -0.02    0.24
  23   7 -15    0.25    0.22
  21   7 -15    0.25    0.23
  19   7 -15   -0.07    0.20
  17   7 -15    0.28    0.22
  15   7 -15    0.02    0.15
  13   7 -15    0.12    0.16
  11   7 -15   -0.02    0.15
   9   7 -15    0.34    0.19
  -9  -7  15    0.53    0.14
   7   7 -15   -0.10    0.12
  -7  -7  15   -0.03    0.08
   5   7 -15    1.51    0.26
  -5  -7  15    2.10    0.23
   3   7 -15    0.30    0.16
  -3  -7  15    0.27    0.11
   1   7 -15    0.11    0.12
  -1  -7  15    0.23    0.11
  -1   7 -15    0.14    0.13
   1  -7  15    0.14    0.10
  -3   7 -15    0.37    0.14
   3  -7  15    0.35    0.15
  -5   7 -15    2.15    0.23
   5  -7  15    1.73    0.25
  -7   7 -15   -0.06    0.09
   7  -7  15    0.17    0.12
   9  -7  15    0.65    0.21
  11  -7  15    0.06    0.16
  11  -7  15    0.01    0.11
  13  -7  15   -0.01    0.15
  13  -7  15   -0.05    0.12
  15  -7  15    0.03    0.15
  15  -7  15    0.00    0.13
  17  -7  15   -0.02    0.18
  17  -7  15    0.14    0.16
  19  -7  15    0.21    0.20
  19  -7  15   -0.10    0.16
  21  -7  15   -0.06    0.21
  21  -7  15    0.36    0.22
  23  -7  15    0.14    0.22
  23  -7  15    0.10    0.20
  25  -7  15    0.06    0.22
  25  -7  15   -0.13    0.24
  27  -7  15    0.13    0.25
  27  -7  15   -0.01    0.26
  29  -7  15    0.03    0.32
  29  -7  15   -0.01    0.26
  31  -7  15    0.06    0.30
  27   5 -15    0.10    0.26
  25   5 -15    0.15    0.25
  23   5 -15    0.38    0.24
  21   5 -15    0.08    0.21
  19   5 -15    0.69    0.27
  17   5 -15   -0.02    0.19
  17   5 -15    0.04    0.17
  15   5 -15   -0.16    0.14
  15   5 -15   -0.15    0.15
  13   5 -15    0.70    0.25
  13   5 -15    0.50    0.20
  11   5 -15    1.20    0.20
  11   5 -15    1.26    0.27
   9   5 -15   -0.10    0.10
   9   5 -15   -0.05    0.12
  -9  -5  15   -0.01    0.08
   7   5 -15    1.76    0.19
   7   5 -15    1.72    0.28
  -7  -5  15    1.87    0.19
   5   5 -15    0.02    0.11
   5   5 -15    0.15    0.09
  -5  -5  15    0.03    0.07
   3   5 -15    0.34    0.11
   3   5 -15    0.20    0.14
  -3  -5  15    0.52    0.13
   1   5 -15    2.71    0.28
   1   5 -15    2.88    0.22
  -1  -5  15    2.59    0.25
  -1   5 -15    2.86    0.28
   1  -5  15    2.68    0.26
  -3   5 -15    0.16    0.12
   3  -5  15    0.35    0.13
  -5   5 -15   -0.05    0.08
   5  -5  15   -0.05    0.09
  -7   5 -15    2.14    0.21
   7  -5  15    1.94    0.27
   9  -5  15    0.21    0.14
  11  -5  15    0.94    0.24
  13  -5  15    1.50    0.25
  13  -5  15    0.81    0.24
  15  -5  15    0.01    0.14
  15  -5  15    0.04    0.15
  17  -5  15    0.04    0.17
  17  -5  15    0.07    0.15
  19  -5  15    0.87    0.29
  19  -5  15    0.15    0.20
  21  -5  15    0.36    0.25
  21  -5  15    0.13    0.19
  23  -5  15    0.78    0.32
  23  -5  15    0.07    0.22
  25  -5  15    0.18    0.26
  25  -5  15   -0.02    0.19
  27  -5  15   -0.06    0.26
  27  -5  15    0.00    0.28
 -29   5 -15    0.01    0.23
  29  -5  15    0.00    0.31
  29  -5  15    0.13    0.27
  31  -5  15   -0.17    0.30
  27   3 -15    0.05    0.30
  27   3 -15   -0.07    0.25
  25   3 -15   -0.05    0.22
  25   3 -15   -0.14    0.26
  23   3 -15   -0.16    0.19
  23   3 -15    0.10    0.26
  21   3 -15    0.49    0.26
  21   3 -15    0.43    0.26
  19   3 -15   -0.10    0.18
  19   3 -15   -0.08    0.18
  17   3 -15    0.31    0.22
  17   3 -15    0.05    0.18
  15   3 -15   -0.10    0.16
  15   3 -15    0.23    0.19
  13   3 -15    0.54    0.21
  13   3 -15    0.24    0.16
  11   3 -15    0.00    0.11
  11   3 -15   -0.05    0.13
   9   3 -15    0.40    0.14
   9   3 -15    0.54    0.20
   7   3 -15    0.34    0.17
   7   3 -15    0.23    0.12
  -7  -3  15    0.30    0.10
   5   3 -15    0.42    0.16
   5   3 -15    0.15    0.10
  -5  -3  15    0.37    0.11
   3   3 -15    0.01    0.11
   3   3 -15    0.14    0.09
  -3  -3  15   -0.07    0.06
   1   3 -15    3.75    0.27
   1   3 -15    3.26    0.30
  -1  -3  15    3.81    0.29
  -1   3 -15    2.88    0.28
   1  -3  15    4.00    0.30
  -3   3 -15    0.10    0.10
   3  -3  15    0.06    0.10
  -5   3 -15    0.29    0.12
   5  -3  15    0.49    0.16
  -7   3 -15    0.10    0.10
   7  -3  15    0.17    0.12
   9  -3  15    0.47    0.17
  11  -3  15   -0.01    0.10
  13  -3  15    0.34    0.16
  13  -3  15    0.54    0.20
  15  -3  15   -0.05    0.15
  15  -3  15   -0.12    0.12
  17  -3  15    0.48    0.22
  17  -3  15    0.38    0.22
  19  -3  15   -0.03    0.16
  19  -3  15   -0.02    0.16
  21  -3  15    0.31    0.23
  21  -3  15    0.41    0.25
  23  -3  15   -0.06    0.19
  23  -3  15   -0.16    0.23
  25  -3  15   -0.04    0.25
  25  -3  15   -0.08    0.21
 -27   3 -15    0.23    0.23
  27  -3  15    0.65    0.30
 -29   3 -15   -0.20    0.25
  29  -3  15   -0.15    0.26
  31  -3  15   -0.02    0.28
  31   1 -15    0.20    0.41
  29   1 -15   -0.23    0.33
  27   1 -15    0.02    0.26
  27   1 -15   -0.13    0.28
  25   1 -15    0.52    0.30
  25   1 -15    0.28    0.32
  23   1 -15   -0.15    0.24
  23   1 -15    0.27    0.23
  21   1 -15    0.12    0.21
  21   1 -15   -0.31    0.20
  19   1 -15    0.02    0.21
  19   1 -15    0.10    0.19
  17   1 -15    0.12    0.16
  17   1 -15   -0.21    0.16
  15   1 -15    0.14    0.17
  15   1 -15    0.05    0.14
  13   1 -15   -0.10    0.11
  13   1 -15   -0.06    0.15
  11   1 -15    1.34    0.26
  11   1 -15    0.94    0.21
   9   1 -15    3.93    0.39
   9   1 -15    3.96    0.32
   7   1 -15    0.28    0.15
   7   1 -15    0.21    0.12
  -7  -1  15    0.18    0.08
   5   1 -15    1.99    0.22
   5   1 -15    2.36    0.28
  -5  -1  15    2.58    0.21
   3   1 -15    3.26    0.27
  -3  -1  15    3.52    0.26
   1   1 -15    0.10    0.10
  -1  -1  15    0.05    0.08
  -1   1 -15   -0.04    0.09
   1  -1  15    0.01    0.08
  -3   1 -15    3.87    0.30
   3  -1  15    2.83    0.28
  -5   1 -15    2.94    0.25
   5  -1  15    2.70    0.28
  -7   1 -15    0.28    0.11
   7  -1  15    0.16    0.12
   9  -1  15    3.86    0.36
  11  -1  15    0.87    0.22
  13  -1  15   -0.08    0.12
  15  -1  15    0.03    0.14
  15  -1  15   -0.03    0.13
  17  -1  15   -0.04    0.18
  17  -1  15   -0.10    0.16
  19  -1  15    0.08    0.17
  19  -1  15   -0.08    0.16
  21  -1  15   -0.13    0.15
  21  -1  15    0.06    0.22
 -23   1 -15    0.10    0.19
  23  -1  15    0.12    0.24
  23  -1  15   -0.08    0.20
 -25   1 -15    1.11    0.33
  25  -1  15    0.05    0.21
 -27   1 -15    0.31    0.26
  27  -1  15    0.34    0.26
 -29   1 -15    0.02    0.26
  29  -1  15   -0.01    0.27
  31  -1  15   -0.16    0.26
  33  -1 -15   -0.19    0.39
  31  -1 -15    0.10    0.35
  29  -1 -15   -0.01    0.33
  27  -1 -15    0.48    0.37
  27  -1 -15    0.21    0.27
  25  -1 -15    0.05    0.23
  25  -1 -15    0.34    0.31
  23  -1 -15    0.07    0.19
  23  -1 -15   -0.10    0.22
  21  -1 -15    0.17    0.23
  21  -1 -15   -0.03    0.22
  19  -1 -15    0.05    0.21
  19  -1 -15    0.13    0.17
  17  -1 -15    0.08    0.19
  17  -1 -15    0.26    0.20
  15  -1 -15    0.07    0.15
  15  -1 -15   -0.12    0.14
  13  -1 -15   -0.04    0.14
  11  -1 -15    1.08    0.22
   9  -1 -15    3.61    0.32
   7  -1 -15   -0.02    0.10
  -7   1  15    0.34    0.09
   5  -1 -15    2.88    0.28
  -5   1  15    2.46    0.20
   3  -1 -15    3.35    0.29
  -3   1  15    3.64    0.26
   1  -1 -15    0.56    0.15
  -1   1  15    0.04    0.08
   1   1  15    0.06    0.09
   3   1  15    3.47    0.31
   5   1  15    3.19    0.30
   7   1  15    0.33    0.16
   9   1  15    3.61    0.36
  11   1  15    0.81    0.21
  13   1  15   -0.17    0.13
  15   1  15    0.25    0.18
  17   1  15    0.28    0.22
 -19  -1 -15    0.24    0.17
  19   1  15    0.01    0.16
  19   1  15   -0.09    0.17
 -21  -1 -15   -0.15    0.14
  21   1  15   -0.08    0.16
 -23  -1 -15   -0.21    0.15
  23   1  15   -0.10    0.19
 -25  -1 -15    0.06    0.21
  25   1  15    0.62    0.30
 -27  -1 -15    0.33    0.24
  27   1  15    0.38    0.28
 -29  -1 -15    0.02    0.24
  29   1  15    0.15    0.28
  31   1  15    0.03    0.27
  31  -3 -15    0.17    0.35
  29  -3 -15   -0.37    0.33
  27  -3 -15    0.06    0.24
  27  -3 -15    0.20    0.33
  25  -3 -15   -0.01    0.30
  25  -3 -15    0.20    0.24
  23  -3 -15   -0.21    0.23
  23  -3 -15    0.18    0.22
  21  -3 -15    0.76    0.29
  21  -3 -15    0.26    0.29
  19  -3 -15    0.06    0.18
  19  -3 -15    0.20    0.23
  17  -3 -15   -0.15    0.17
  15  -3 -15   -0.08    0.16
  13  -3 -15    0.34    0.19
  11  -3 -15   -0.09    0.12
   9  -3 -15    0.27    0.16
   7  -3 -15    0.25    0.09
   7  -3 -15    0.35    0.14
   5  -3 -15    0.12    0.13
   5  -3 -15    0.31    0.10
   3  -3 -15   -0.04    0.07
   3  -3 -15   -0.11    0.09
  -3   3  15    0.05    0.07
   1  -3 -15    3.51    0.31
  -1   3  15    3.39    0.27
   1   3  15    3.09    0.27
   3   3  15   -0.06    0.07
   5   3  15    0.40    0.15
   7   3  15    0.22    0.14
   9   3  15    0.20    0.15
  11   3  15   -0.04    0.12
 -13  -3 -15    0.40    0.18
  13   3  15    0.32    0.18
 -15  -3 -15    0.13    0.16
 -17  -3 -15    0.32    0.19
 -19  -3 -15   -0.04    0.14
 -21  -3 -15    0.59    0.25
 -23  -3 -15   -0.11    0.18
  23   3  15   -0.05    0.15
 -25  -3 -15   -0.22    0.20
  25   3  15    0.01    0.21
 -27  -3 -15    0.24    0.29
  27   3  15    0.13    0.25
 -29  -3 -15    0.34    0.27
  29   3  15   -0.25    0.25
  31   3  15    0.06    0.27
  31  -5 -15    0.14    0.38
  29  -5 -15    0.13    0.37
  27  -5 -15    0.11    0.27
  27  -5 -15   -0.23    0.29
  25  -5 -15   -0.08    0.29
  25  -5 -15    0.15    0.24
  23  -5 -15   -0.09    0.25
  23  -5 -15    0.60    0.25
  21  -5 -15   -0.07    0.25
  19  -5 -15    0.74    0.28
  17  -5 -15   -0.08    0.19
  15  -5 -15    0.09    0.18
  13  -5 -15    0.66    0.23
  11  -5 -15    1.08    0.25
   9  -5 -15    0.06    0.13
   7  -5 -15    1.84    0.26
   5  -5 -15    0.07    0.08
   5  -5 -15    0.03    0.12
   3  -5 -15    0.05    0.10
   3  -5 -15    0.33    0.12
   1  -5 -15    3.09    0.30
   1  -5 -15    2.22    0.23
  -1  -5 -15    2.81    0.26
  -3  -5 -15    0.20    0.13
  -5  -5 -15    0.13    0.12
  -7  -5 -15    2.33    0.29
  -9  -5 -15   -0.02    0.13
 -11  -5 -15    0.85    0.23
 -13  -5 -15    0.84    0.24
 -15  -5 -15    0.25    0.18
 -17  -5 -15   -0.09    0.15
 -19  -5 -15    0.57    0.23
 -21  -5 -15    0.20    0.18
 -23  -5 -15    0.53    0.25
 -25  -5 -15    0.28    0.27
 -27  -5 -15   -0.14    0.21
 -29  -5 -15    0.11    0.29
  31  -7 -15   -0.05    0.36
  29  -7 -15   -0.18    0.35
  27  -7 -15   -0.14    0.33
  25  -7 -15    0.01    0.31
  25  -7 -15    0.01    0.22
  23  -7 -15   -0.17    0.22
  21  -7 -15    0.08    0.27
  19  -7 -15   -0.15    0.19
  17  -7 -15   -0.35    0.16
  15  -7 -15   -0.03    0.17
  13  -7 -15   -0.12    0.17
  11  -7 -15   -0.06    0.14
   9  -7 -15    0.46    0.20
   7  -7 -15    0.00    0.13
   5  -7 -15    1.61    0.26
   5  -7 -15    2.14    0.20
   3  -7 -15    0.03    0.10
   3  -7 -15    0.40    0.16
   1  -7 -15    0.21    0.12
   1  -7 -15    0.37    0.16
  -1  -7 -15    0.22    0.12
  -3  -7 -15    0.09    0.12
  -5  -7 -15    2.32    0.29
  -7  -7 -15    0.08    0.13
  -9  -7 -15    0.35    0.18
 -11  -7 -15   -0.15    0.13
 -13  -7 -15    0.05    0.16
 -15  -7 -15   -0.14    0.12
 -17  -7 -15   -0.20    0.13
 -19  -7 -15   -0.01    0.17
 -21  -7 -15    0.07    0.20
 -23  -7 -15    0.13    0.23
 -25  -7 -15    0.03    0.24
 -27  -7 -15    0.17    0.24
  31  -9 -15    0.43    0.46
  29  -9 -15   -0.25    0.31
  27  -9 -15   -0.29    0.35
  25  -9 -15   -0.11    0.30
  23  -9 -15    0.18    0.27
  21  -9 -15    0.57    0.29
  19  -9 -15   -0.23    0.20
  17  -9 -15    0.14    0.23
  15  -9 -15   -0.19    0.17
  13  -9 -15    0.11    0.18
  11  -9 -15    0.05    0.18
   9  -9 -15    0.05    0.14
   7  -9 -15    0.27    0.18
   5  -9 -15    0.08    0.11
   5  -9 -15   -0.05    0.13
   3  -9 -15    0.65    0.20
   3  -9 -15    0.39    0.14
   1  -9 -15    4.08    0.32
   1  -9 -15    4.32    0.39
  -1  -9 -15    3.43    0.30
  -3  -9 -15    0.82    0.19
  -5  -9 -15    0.22    0.15
  -7  -9 -15    0.44    0.19
  -9  -9 -15   -0.09    0.13
 -11  -9 -15    0.15    0.17
 -13  -9 -15    0.15    0.19
 -15  -9 -15   -0.22    0.13
 -17  -9 -15   -0.15    0.15
 -19  -9 -15    0.02    0.19
 -21  -9 -15    0.35    0.23
 -23  -9 -15    0.09    0.20
 -25  -9 -15   -0.10    0.21
 -27  -9 -15    0.07    0.28
  29 -11 -15    0.19    0.42
  27 -11 -15   -0.19    0.33
  25 -11 -15    0.29    0.34
  23 -11 -15    0.28    0.31
  21 -11 -15    0.22    0.29
  19 -11 -15    0.22    0.25
  17 -11 -15    0.61    0.29
  15 -11 -15   -0.04    0.19
  13 -11 -15    0.35    0.25
  11 -11 -15    0.00    0.18
   9 -11 -15   -0.10    0.15
   7 -11 -15   -0.07    0.13
   5 -11 -15    0.34    0.18
   5 -11 -15    1.01    0.18
   3 -11 -15    0.11    0.12
   3 -11 -15   -0.10    0.13
   1 -11 -15    1.42    0.22
   1 -11 -15    1.64    0.28
  -1 -11 -15    1.55    0.24
  -3 -11 -15   -0.11    0.13
  -5 -11 -15    0.83    0.23
  -7 -11 -15    0.08    0.16
  -9 -11 -15    0.26    0.18
 -11 -11 -15   -0.07    0.17
 -13 -11 -15    0.54    0.24
 -15 -11 -15   -0.04    0.16
 -17 -11 -15    0.24    0.21
 -19 -11 -15   -0.17    0.15
 -21 -11 -15    0.24    0.22
 -23 -11 -15    0.29    0.25
 -25 -11 -15    0.41    0.31
  29 -13 -15   -0.12    0.37
  27 -13 -15    0.87    0.45
  25 -13 -15   -0.20    0.28
  23 -13 -15    0.02    0.31
  21 -13 -15   -0.15    0.23
  19 -13 -15    0.30    0.27
  17 -13 -15    0.51    0.29
  15 -13 -15    0.11    0.22
  13 -13 -15   -0.07    0.18
  11 -13 -15    0.24    0.21
   9 -13 -15    0.00    0.18
   7 -13 -15   -0.15    0.15
   5 -13 -15    0.62    0.24
   5 -13 -15    0.96    0.21
   3 -13 -15    0.42    0.17
   3 -13 -15    0.59    0.22
   1 -13 -15   -0.10    0.12
   1 -13 -15    0.10    0.15
  -1 -13 -15    0.14    0.14
  -1 -13 -15    0.00    0.14
  -3 -13 -15    0.64    0.21
  -5 -13 -15    1.07    0.27
  -7 -13 -15   -0.04    0.18
  -9 -13 -15    0.22    0.19
 -11 -13 -15    0.23    0.22
 -13 -13 -15    0.03    0.19
 -15 -13 -15    0.10    0.20
 -17 -13 -15    0.40    0.23
 -19 -13 -15   -0.15    0.19
 -21 -13 -15    0.10    0.21
 -23 -13 -15    0.20    0.25
 -25 -13 -15   -0.22    0.25
  27 -15 -15   -0.15    0.35
  25 -15 -15   -0.07    0.33
  23 -15 -15   -0.01    0.28
  21 -15 -15   -0.04    0.28
  19 -15 -15   -0.31    0.25
  17 -15 -15   -0.01    0.26
  15 -15 -15    0.01    0.21
  13 -15 -15    0.02    0.19
  11 -15 -15   -0.13    0.16
   9 -15 -15    0.01    0.16
   7 -15 -15    0.14    0.18
   5 -15 -15   -0.07    0.14
   5 -15 -15   -0.16    0.15
   3 -15 -15    0.08    0.18
   3 -15 -15    0.00    0.14
  -3  15  15    0.12    0.13
   1 -15 -15   -0.26    0.14
   1 -15 -15   -0.12    0.12
  -1  15  15    0.12    0.13
  -1 -15 -15   -0.05    0.14
  -1 -15 -15    0.11    0.17
   1  15  15   -0.10    0.11
  -3 -15 -15    0.01    0.17
  -5 -15 -15    0.09    0.18
  -7 -15 -15   -0.07    0.17
  -9 -15 -15   -0.16    0.17
 -11 -15 -15   -0.08    0.20
 -13 -15 -15    0.08    0.20
 -15 -15 -15   -0.15    0.21
 -17 -15 -15    0.28    0.25
 -19 -15 -15    0.15    0.22
 -21 -15 -15   -0.32    0.17
 -23 -15 -15    0.17    0.27
  27 -17 -15   -0.40    0.31
  25 -17 -15   -0.19    0.28
  23 -17 -15    0.21    0.30
  21 -17 -15    0.00    0.27
  19 -17 -15    0.01    0.25
  17 -17 -15    0.05    0.23
  15 -17 -15   -0.08    0.16
  13 -17 -15    0.63    0.27
  11 -17 -15    0.66    0.30
   9 -17 -15    0.14    0.16
   7 -17 -15    0.30    0.20
   5 -17 -15    0.18    0.21
   3 -17 -15    0.11    0.19
   3 -17 -15    0.07    0.18
  -3  17  15    0.36    0.18
   1 -17 -15   -0.25    0.18
   1 -17 -15    0.06    0.17
  -1  17  15   -0.43    0.13
  -1 -17 -15    0.07    0.19
  -1 -17 -15    0.02    0.16
   1  17  15    0.08    0.15
  -3 -17 -15    0.59    0.26
   3  17  15    0.49    0.21
  -5 -17 -15   -0.03    0.18
   5  17  15    0.20    0.18
  -7 -17 -15   -0.15    0.19
  -9 -17 -15    0.11    0.20
 -11 -17 -15    1.01    0.32
 -13 -17 -15    1.31    0.36
 -15 -17 -15   -0.28    0.23
 -17 -17 -15   -0.22    0.19
 -19 -17 -15   -0.02    0.23
 -21 -17 -15    0.31    0.25
  25 -19 -15    0.31    0.36
  23 -19 -15    0.18    0.29
  21 -19 -15   -0.03    0.25
  19 -19 -15    0.01    0.25
  17 -19 -15    0.07    0.24
  15 -19 -15   -0.16    0.19
  13 -19 -15   -0.04    0.20
  11 -19 -15    0.11    0.23
   9 -19 -15    0.06    0.19
   7 -19 -15    0.24    0.22
   5 -19 -15    0.63    0.25
   3 -19 -15   -0.16    0.18
   3 -19 -15   -0.05    0.15
  -3  19  15    0.00    0.14
   1 -19 -15   -0.04    0.18
   1 -19 -15   -0.10    0.18
  -1  19  15    0.10    0.16
  -1 -19 -15   -0.03    0.15
  -1 -19 -15    0.02    0.18
   1  19  15   -0.08    0.15
  -3 -19 -15   -0.11    0.17
  -3 -19 -15    0.14    0.16
   3  19  15    0.01    0.17
  -5 -19 -15    0.46    0.24
   5  19  15    0.64    0.24
  -7 -19 -15    0.21    0.23
   7  19  15    0.01    0.16
  -9 -19 -15   -0.06    0.20
 -11 -19 -15    0.08    0.25
 -13 -19 -15    0.03    0.24
 -15 -19 -15   -0.23    0.21
 -17 -19 -15    0.17    0.27
 -19 -19 -15    0.17    0.26
  23 -21 -15    0.15    0.33
  21 -21 -15   -0.23    0.25
  19 -21 -15    0.31    0.30
  17 -21 -15    0.24    0.26
  15 -21 -15   -0.03    0.25
  13 -21 -15    0.14    0.22
  11 -21 -15    0.61    0.29
   9 -21 -15    0.68    0.28
   7 -21 -15    0.72    0.28
   5 -21 -15    0.39    0.23
   3 -21 -15    0.84    0.30
   3 -21 -15    0.47    0.25
  -3  21  15    0.98    0.26
   1 -21 -15    0.29    0.24
   1 -21 -15    0.08    0.22
  -1  21  15   -0.05    0.18
  -1 -21 -15    0.12    0.20
  -1 -21 -15    0.03    0.19
   1  21  15    0.00    0.17
  -3 -21 -15    0.99    0.29
  -3 -21 -15    0.77    0.31
   3  21  15    0.28    0.21
  -5 -21 -15    0.21    0.21
  -5 -21 -15    0.43    0.29
   5  21  15   -0.15    0.16
  -7 -21 -15    0.22    0.29
   7  21  15    0.06    0.18
  -9 -21 -15    1.41    0.38
   9  21  15    0.89    0.30
 -11 -21 -15    0.44    0.30
 -13 -21 -15    0.04    0.25
 -15 -21 -15   -0.15    0.26
 -17 -21 -15   -0.16    0.21
  21 -23 -15   -0.03    0.29
  19 -23 -15    0.29    0.30
  17 -23 -15   -0.25    0.24
  15 -23 -15    0.09    0.28
  13 -23 -15   -0.29    0.22
  11 -23 -15   -0.35    0.20
   9 -23 -15   -0.13    0.20
   7 -23 -15   -0.12    0.21
   5 -23 -15    0.48    0.27
   3 -23 -15    0.04    0.21
   1 -23 -15    0.35    0.25
   1 -23 -15   -0.07    0.22
  -1  23  15    0.44    0.23
  -1 -23 -15    0.07    0.19
  -1 -23 -15    0.10    0.24
   1  23  15    0.55    0.23
  -3 -23 -15   -0.17    0.22
  -3 -23 -15   -0.03    0.21
   3  23  15    0.05    0.20
  -5 -23 -15    0.23    0.24
  -5 -23 -15    0.65    0.33
   5  23  15    0.23    0.23
  -7 -23 -15   -0.04    0.24
   7  23  15    0.08    0.21
  -9 -23 -15    0.21    0.30
   9  23  15    0.03    0.19
 -11 -23 -15   -0.05    0.24
 -13 -23 -15    0.00    0.29
 -15 -23 -15    0.09    0.31
  19 -25 -15    0.19    0.33
  17 -25 -15   -0.22    0.28
  15 -25 -15    0.08    0.29
  13 -25 -15    0.01    0.25
  11 -25 -15    0.52    0.31
   9 -25 -15   -0.03    0.24
   7 -25 -15    0.17    0.23
   5 -25 -15    0.35    0.26
   3 -25 -15    0.27    0.25
   1 -25 -15    0.78    0.32
   1 -25 -15   -0.01    0.27
  -1  25  15    0.48    0.27
  -1 -25 -15   -0.06    0.23
  -1 -25 -15    0.47    0.31
   1  25  15    0.15    0.24
  -3 -25 -15    0.02    0.27
  -3 -25 -15    0.23    0.26
   3  25  15   -0.13    0.22
  -5 -25 -15   -0.07    0.21
  -5 -25 -15    0.11    0.26
   5  25  15    0.38    0.25
  -7 -25 -15   -0.18    0.27
  -7 -25 -15    0.20    0.25
   7  25  15   -0.17    0.22
  -9 -25 -15    0.12    0.29
   9  25  15    0.26    0.25
 -11 -25 -15    0.71    0.39
  11  25  15    0.09    0.25
 -13 -25 -15    0.03    0.33
  17 -27 -15   -0.29    0.29
  15 -27 -15    0.20    0.32
  13 -27 -15    0.30    0.31
  11 -27 -15   -0.28    0.25
   9 -27 -15   -0.49    0.18
   7 -27 -15   -0.04    0.25
   5 -27 -15    0.00    0.25
   3 -27 -15    0.03    0.27
   1 -27 -15   -0.24    0.25
   1 -27 -15    0.04    0.25
  -1  27  15    0.09    0.22
  -1 -27 -15    0.04    0.29
  -1 -27 -15   -0.17    0.19
   1  27  15    0.08    0.24
  -3 -27 -15    0.33    0.33
  -3 -27 -15    0.38    0.30
   3  27  15    0.16    0.25
  -5 -27 -15    0.16    0.28
  -5 -27 -15   -0.26    0.27
   5  27  15    0.28    0.29
  -7 -27 -15    0.16    0.33
  -7 -27 -15    0.53    0.33
   7  27  15    0.20    0.27
  -9 -27 -15    0.21    0.26
  -9 -27 -15    0.10    0.31
   9  27  15    0.03    0.23
  11  27  15    0.18    0.24
  15 -29 -15    0.06    0.29
  13 -29 -15    0.20    0.32
  11 -29 -15    0.67    0.36
   9 -29 -15    0.21    0.29
   7 -29 -15    0.04    0.28
   5 -29 -15   -0.40    0.22
   3 -29 -15   -0.07    0.25
   1 -29 -15   -0.13    0.25
  -1 -29 -15    0.04    0.31
  -1 -29 -15    0.10    0.26
   1  29  15   -0.22    0.23
  -3 -29 -15    0.10    0.36
  -3 -29 -15   -0.40    0.23
   3  29  15   -0.15    0.23
  -5 -29 -15   -0.01    0.28
  -5 -29 -15    0.12    0.35
   5  29  15   -0.03    0.23
  -7 -29 -15    0.07    0.29
   7  29  15   -0.08    0.26
  -9 -29 -15    0.23    0.30
 -11 -29 -15    0.15    0.32
  11 -31 -15   -0.25    0.33
   9 -31 -15   -0.34    0.28
   7 -31 -15   -0.14    0.29
   5 -31 -15   -0.27    0.25
   3 -31 -15   -0.04    0.30
   1 -31 -15    0.09    0.29
  -1 -31 -15   -0.13    0.27
   1  31  15   -0.03    0.29
  -3 -31 -15   -0.17    0.25
  -5 -31 -15    0.25    0.35
  14  28 -16    0.57    0.39
  12  28 -16   17.05    1.20
  10  28 -16    0.30    0.38
   8  28 -16   14.31    1.04
  -2 -28  16    0.60    0.32
  16  26 -16    0.19    0.34
  14  26 -16    0.14    0.30
  12  26 -16   -0.18    0.33
 -12 -26  16   -0.08    0.26
  10  26 -16   -0.32    0.26
 -10 -26  16    0.16    0.27
   8  26 -16    0.12    0.29
  -8 -26  16    0.48    0.28
   6  26 -16   -0.14    0.26
  -6 -26  16    0.02    0.23
   4  26 -16    0.02    0.30
  -4 -26  16    0.12    0.21
  -2 -26  16    0.60    0.28
   0 -26  16   -0.20    0.19
   2 -26  16    0.00    0.22
   4 -26  16    0.05    0.22
   6 -26  16    0.18    0.23
   8 -26  16    0.05    0.24
  20  24 -16   10.68    0.96
  18  24 -16    0.32    0.36
  16  24 -16   18.50    1.18
  14  24 -16    0.79    0.38
  12  24 -16   14.20    1.00
 -12 -24  16   14.42    0.88
  10  24 -16    0.18    0.32
 -10 -24  16    0.92    0.33
   8  24 -16   31.40    1.43
  -8 -24  16   29.73    1.29
   6  24 -16    0.45    0.34
  -6 -24  16    0.53    0.28
   4  24 -16   22.81    1.15
  -4 -24  16   21.73    1.08
   2  24 -16    0.75    0.35
  -2 -24  16    0.47    0.24
   0  24 -16   38.75    1.53
   0 -24  16   39.78    1.51
   2 -24  16    1.03    0.29
   4 -24  16   24.45    1.18
   6 -24  16    0.13    0.21
   8 -24  16   32.63    1.45
  10 -24  16    0.26    0.30
  12 -24  16   15.47    0.99
  14 -24  16    0.49    0.33
  22  22 -16    0.30    0.36
  20  22 -16    0.41    0.36
  18  22 -16    0.12    0.29
  16  22 -16    0.25    0.29
  14  22 -16    0.43    0.30
  12  22 -16    0.06    0.30
  10  22 -16    0.64    0.33
 -10 -22  16    0.21    0.25
   8  22 -16    0.14    0.28
  -8 -22  16    0.20    0.20
   6  22 -16    1.34    0.38
  -6 -22  16    0.62    0.26
   4  22 -16    0.25    0.27
  -4 -22  16    0.07    0.19
   2  22 -16    0.22    0.26
  -2 -22  16    0.18    0.19
   0  22 -16   -0.10    0.22
   0 -22  16   -0.30    0.17
  -2  22 -16    0.14    0.25
   2 -22  16    0.26    0.21
   4 -22  16    0.08    0.20
   6 -22  16    0.77    0.29
   8 -22  16    0.10    0.25
  10 -22  16    0.05    0.23
  12 -22  16    0.17    0.26
  14 -22  16    1.34    0.40
  16 -22  16    0.33    0.30
  24  20 -16   10.95    0.94
  22  20 -16    0.18    0.35
  20  20 -16   16.11    1.06
  18  20 -16    0.22    0.30
  16  20 -16   22.97    1.23
  14  20 -16    0.30    0.29
  12  20 -16   29.72    1.34
  10  20 -16    0.11    0.25
 -10 -20  16    0.36    0.21
   8  20 -16   37.92    1.48
  -8 -20  16   38.46    1.36
   6  20 -16    0.26    0.27
  -6 -20  16    0.33    0.20
   4  20 -16   47.43    1.64
  -4 -20  16   46.54    1.54
   2  20 -16    2.08    0.41
  -2 -20  16    1.70    0.34
   0  20 -16   39.16    1.42
   0 -20  16   37.51    1.37
  -2  20 -16    1.22    0.33
   2 -20  16    1.31    0.32
  -4  20 -16   43.36    1.48
   4 -20  16   43.11    1.51
   6 -20  16    0.04    0.19
   8 -20  16   40.42    1.52
  10 -20  16    0.83    0.31
  12 -20  16   30.09    1.29
  14 -20  16    0.06    0.24
  16 -20  16   28.67    1.34
  18 -20  16    0.31    0.30
  20 -20  16   17.27    1.08
  26  18 -16   -0.15    0.37
  24  18 -16   -0.29    0.34
  22  18 -16   -0.04    0.30
  20  18 -16    0.13    0.25
  18  18 -16    0.81    0.35
  16  18 -16    0.02    0.25
  14  18 -16    0.09    0.25
  12  18 -16    0.28    0.27
  10  18 -16    0.62    0.30
 -10 -18  16    0.35    0.22
   8  18 -16    0.04    0.23
  -8 -18  16   -0.10    0.14
   6  18 -16    0.07    0.20
  -6 -18  16    0.02    0.14
   4  18 -16    0.00    0.21
  -4 -18  16    0.11    0.16
   2  18 -16    0.29    0.24
  -2 -18  16    0.21    0.16
   0  18 -16    0.03    0.21
   0 -18  16    0.20    0.17
  -2  18 -16   -0.01    0.18
   2 -18  16    0.13    0.15
  -4  18 -16    0.11    0.20
   4 -18  16    0.06    0.16
  -6  18 -16    0.11    0.20
   6 -18  16    0.06    0.17
   8 -18  16    0.04    0.17
  10 -18  16    0.33    0.23
  12 -18  16    0.01    0.22
  14 -18  16    0.43    0.28
  16 -18  16    0.25    0.27
  18 -18  16    0.48    0.31
  20 -18  16   -0.01    0.27
  22 -18  16    0.11    0.32
  28  16 -16   10.39    0.94
  26  16 -16    0.00    0.32
  24  16 -16   21.65    1.24
  22  16 -16   -0.01    0.27
  20  16 -16   24.95    1.28
  18  16 -16    0.03    0.24
  16  16 -16   67.84    2.15
  14  16 -16    0.40    0.24
  12  16 -16   43.15    1.58
  10  16 -16    0.28    0.24
 -10 -16  16    0.38    0.19
   8  16 -16   88.94    2.38
  -8 -16  16   86.71    2.14
   6  16 -16    0.03    0.20
  -6 -16  16    0.11    0.13
   4  16 -16   76.16    2.08
  -4 -16  16   75.02    1.94
   2  16 -16    1.56    0.32
  -2 -16  16    1.63    0.29
   0  16 -16  132.18    3.00
   0 -16  16  134.64    2.97
  -2  16 -16    1.41    0.29
   2 -16  16    0.53    0.21
  -4  16 -16   78.11    2.00
   4 -16  16   80.10    2.11
  -6  16 -16    0.21    0.18
   6 -16  16    0.44    0.20
   8 -16  16   88.79    2.31
  10 -16  16    0.40    0.23
  12 -16  16   47.15    1.60
  14 -16  16    0.54    0.26
  16 -16  16   73.92    2.18
  18 -16  16    0.27    0.27
  20 -16  16   27.07    1.29
  22 -16  16    0.00    0.26
  24 -16  16   22.44    1.22
  28  14 -16   -0.03    0.35
  26  14 -16    0.30    0.34
  24  14 -16    0.07    0.31
  22  14 -16    0.80    0.35
  20  14 -16    0.27    0.26
  18  14 -16    0.50    0.28
  16  14 -16    0.62    0.28
  14  14 -16    2.72    0.43
  12  14 -16    1.13    0.31
  10  14 -16    0.07    0.19
 -10 -14  16    0.28    0.16
   8  14 -16    0.56    0.26
  -8 -14  16    0.43    0.18
   6  14 -16    3.34    0.41
  -6 -14  16    4.04    0.37
   4  14 -16    0.01    0.17
  -4 -14  16    0.10    0.13
   2  14 -16    0.13    0.18
  -2 -14  16    0.10    0.13
   0  14 -16    0.07    0.16
   0 -14  16    0.05    0.14
  -2  14 -16   -0.06    0.14
   2 -14  16    0.09    0.13
  -4  14 -16    0.01    0.15
   4 -14  16    0.31    0.18
  -6  14 -16    3.57    0.36
   6 -14  16    3.53    0.39
   8 -14  16    0.89    0.25
  10 -14  16    0.16    0.19
  12 -14  16    1.14    0.30
  14 -14  16    2.89    0.41
  16 -14  16    0.83    0.34
  18 -14  16    0.64    0.29
  20 -14  16    0.51    0.30
  22 -14  16    0.96    0.37
  24 -14  16    0.47    0.38
  28  12 -16   17.19    1.13
  26  12 -16   -0.08    0.29
  24  12 -16   17.55    1.09
  22  12 -16    0.07    0.26
  20  12 -16   32.73    1.42
  18  12 -16    0.09    0.21
  16  12 -16   48.45    1.70
  14  12 -16    0.80    0.28
  12  12 -16   61.96    1.90
  10  12 -16    0.28    0.22
 -10 -12  16    0.68    0.18
   8  12 -16   59.90    1.78
  -8 -12  16   60.59    1.53
   6  12 -16    0.23    0.18
  -6 -12  16    0.29    0.15
   4  12 -16   89.65    2.26
  -4 -12  16   94.02    2.11
   2  12 -16    1.06    0.25
  -2 -12  16    1.42    0.24
   0  12 -16   62.60    1.66
   0 -12  16   62.35    1.65
  -2  12 -16    1.34    0.25
   2 -12  16    1.36    0.26
  -4  12 -16   93.72    2.15
   4 -12  16   93.41    2.22
  -6  12 -16    0.31    0.16
   6 -12  16    0.26    0.16
   8 -12  16   56.23    1.63
  10 -12  16    0.78    0.23
  12 -12  16   57.60    1.71
  14 -12  16    0.90    0.29
  16 -12  16   48.32    1.63
  18 -12  16   -0.13    0.19
  20 -12  16   31.28    1.33
  22 -12  16    0.10    0.27
  24 -12  16   15.01    0.97
  26 -12  16    0.21    0.33
  28  10 -16    0.48    0.38
  26  10 -16    0.14    0.28
  24  10 -16    0.32    0.32
  22  10 -16    0.38    0.27
  20  10 -16    0.59    0.32
  18  10 -16    0.24    0.23
  16  10 -16    0.38    0.25
  14  10 -16    0.13    0.21
  12  10 -16    0.23    0.20
  10  10 -16   -0.06    0.17
   8  10 -16    0.05    0.17
  -8 -10  16    0.30    0.14
   6  10 -16    0.48    0.22
  -6 -10  16    0.64    0.18
   4  10 -16   -0.01    0.13
  -4 -10  16    0.18    0.11
   2  10 -16    3.86    0.38
  -2 -10  16    4.73    0.37
   0  10 -16    0.19    0.16
   0 -10  16    0.23    0.13
  -2  10 -16    4.06    0.35
   2 -10  16    4.20    0.37
  -4  10 -16   -0.05    0.11
   4 -10  16   -0.01    0.13
  -6  10 -16    0.55    0.18
   6 -10  16    0.72    0.21
   8 -10  16    0.12    0.14
  10 -10  16    0.07    0.14
  12 -10  16    0.18    0.20
  14 -10  16    0.25    0.21
  16 -10  16   -0.05    0.19
  18 -10  16    0.39    0.26
  18 -10  16    0.43    0.20
  20 -10  16    0.44    0.22
  20 -10  16    0.24    0.27
  22 -10  16    0.17    0.22
  22 -10  16    0.70    0.31
  24 -10  16    0.12    0.33
  24 -10  16    0.45    0.27
  26 -10  16    0.03    0.27
  26 -10  16    0.47    0.26
  28 -10  16    0.74    0.36
  30 -10  16    0.01    0.32
  28   8 -16   11.57    0.92
  26   8 -16    0.09    0.28
  24   8 -16   30.29    1.38
  22   8 -16    0.00    0.21
  20   8 -16   39.59    1.54
  18   8 -16   -0.03    0.19
  16   8 -16   89.29    2.44
  14   8 -16    0.26    0.21
  12   8 -16   55.74    1.72
  10   8 -16    0.16    0.18
   8   8 -16  124.50    2.86
  -8  -8  16  123.37    2.46
   6   8 -16    0.24    0.17
  -6  -8  16    0.12    0.11
   4   8 -16  109.85    2.50
  -4  -8  16  105.85    2.25
   2   8 -16    1.30    0.25
  -2  -8  16    1.09    0.19
   0   8 -16  166.09    3.35
   0  -8  16  163.56    3.22
  -2   8 -16    1.56    0.24
   2  -8  16    1.37    0.23
  -4   8 -16  107.84    2.33
   4  -8  16  112.50    2.44
  -6   8 -16    0.24    0.13
   6  -8  16    0.27    0.15
   8  -8  16  124.63    2.75
  10  -8  16    0.12    0.15
  12  -8  16   55.03    1.66
  12  -8  16   59.53    1.51
  14  -8  16    0.41    0.19
  14  -8  16    0.37    0.21
  16  -8  16   90.06    2.19
  16  -8  16   85.30    2.29
  18  -8  16    0.22    0.21
  18  -8  16    0.17    0.18
  20  -8  16   41.54    1.42
  20  -8  16   38.66    1.46
  22  -8  16    0.10    0.24
  22  -8  16    0.24    0.22
  24  -8  16   30.06    1.30
  24  -8  16   30.36    1.35
  26  -8  16   -0.03    0.26
  26  -8  16   -0.26    0.22
  28  -8  16   12.48    0.91
  28  -8  16   12.06    0.91
  30  -8  16    0.04    0.28
  28   6 -16    0.13    0.30
  26   6 -16    0.22    0.28
  24   6 -16   -0.30    0.22
  22   6 -16    0.64    0.29
  20   6 -16    0.29    0.27
  18   6 -16    0.14    0.21
  16   6 -16   -0.25    0.20
  14   6 -16    3.80    0.45
  12   6 -16   -0.07    0.15
  10   6 -16    0.61    0.23
   8   6 -16    0.05    0.15
  -8  -6  16    0.18    0.11
   6   6 -16    1.30    0.25
  -6  -6  16    1.20    0.17
   4   6 -16    0.09    0.15
  -4  -6  16   -0.03    0.08
   2   6 -16    0.30    0.16
  -2  -6  16    0.06    0.09
   0   6 -16    0.06    0.09
   0   6 -16    0.07    0.13
   0  -6  16    0.02    0.09
  -2   6 -16    0.16    0.13
   2  -6  16    0.16    0.12
  -4   6 -16    0.07    0.12
   4  -6  16   -0.08    0.10
  -6   6 -16    1.06    0.18
   6  -6  16    1.29    0.24
   8  -6  16    0.25    0.16
  10  -6  16    0.73    0.21
  12  -6  16    0.03    0.17
  14  -6  16    4.73    0.40
  14  -6  16    3.34    0.41
  16  -6  16   -0.04    0.20
  16  -6  16    0.19    0.18
  18  -6  16    0.32    0.20
  18  -6  16   -0.24    0.15
  20  -6  16    0.00    0.24
  20  -6  16    0.36    0.23
  22  -6  16    1.19    0.36
  22  -6  16    0.21    0.21
  24  -6  16    0.36    0.25
  24  -6  16    0.26    0.28
  26  -6  16   -0.35    0.25
  26  -6  16    0.29    0.27
  28  -6  16    0.32    0.30
  28  -6  16    0.38    0.37
  30  -6  16   -0.11    0.26
  28   4 -16   15.75    1.02
  26   4 -16   -0.07    0.22
  24   4 -16   22.84    1.18
  22   4 -16    0.04    0.20
  20   4 -16   38.78    1.48
  18   4 -16    0.32    0.21
  18   4 -16    0.06    0.19
  16   4 -16   73.97    2.14
  16   4 -16   78.37    1.92
  14   4 -16   -0.12    0.15
  14   4 -16    0.19    0.17
  12   4 -16   96.40    2.10
  12   4 -16   92.36    2.39
  10   4 -16    0.14    0.16
  10   4 -16    0.17    0.13
   8   4 -16  105.95    2.17
   8   4 -16  103.69    2.49
  -8  -4  16  109.68    2.08
   6   4 -16    0.06    0.10
   6   4 -16    0.03    0.14
  -6  -4  16    0.12    0.10
   4   4 -16  110.05    2.16
   4   4 -16  106.67    2.45
  -4  -4  16  110.23    2.18
   2   4 -16   -0.15    0.10
   2   4 -16    0.32    0.15
  -2  -4  16    0.10    0.09
   0   4 -16  109.39    2.40
   0  -4  16  109.85    2.30
  -2   4 -16    0.10    0.11
   2  -4  16    0.09    0.11
  -4   4 -16  114.08    2.38
   4  -4  16  116.97    2.48
  -6   4 -16    0.22    0.12
   6  -4  16    0.02    0.11
   8  -4  16  116.71    2.58
  10  -4  16   -0.11    0.10
  12  -4  16   94.15    2.30
  14  -4  16   -0.03    0.16
  14  -4  16    0.11    0.14
  16  -4  16   78.84    2.02
  16  -4  16   76.63    2.10
  18  -4  16   -0.07    0.15
  18  -4  16   -0.07    0.17
  20  -4  16   42.80    1.54
  20  -4  16   44.82    1.51
  22  -4  16    0.28    0.20
  22  -4  16    0.10    0.22
  24  -4  16   26.16    1.21
  24  -4  16   21.47    1.10
  26  -4  16    0.03    0.28
  26  -4  16    0.20    0.25
 -28   4 -16   15.59    0.94
  28  -4  16   14.21    0.96
  28  -4  16   16.54    1.04
  30  -4  16    0.03    0.26
  28   2 -16    0.19    0.33
  26   2 -16    0.28    0.27
  26   2 -16    0.36    0.29
  24   2 -16    0.70    0.37
  24   2 -16    0.78    0.33
  22   2 -16   -0.07    0.23
  22   2 -16    0.15    0.22
  20   2 -16    0.94    0.30
  20   2 -16    0.92    0.34
  18   2 -16   -0.04    0.17
  18   2 -16   -0.04    0.20
  16   2 -16    1.50    0.28
  16   2 -16    0.77    0.31
  14   2 -16    0.11    0.18
  14   2 -16    0.12    0.16
  12   2 -16    1.25    0.30
  12   2 -16    1.76    0.26
  10   2 -16    3.68    0.32
  10   2 -16    3.65    0.40
   8   2 -16    1.58    0.22
   8   2 -16    1.69    0.29
   6   2 -16    0.21    0.15
   6   2 -16    0.06    0.10
  -6  -2  16    0.19    0.09
   4   2 -16   -0.14    0.10
   4   2 -16    0.08    0.10
  -4  -2  16    0.01    0.09
   2   2 -16    1.84    0.21
   2   2 -16    1.86    0.26
  -2  -2  16    1.55    0.20
   0   2 -16    0.24    0.15
   0  -2  16    0.22    0.12
  -2   2 -16    1.43    0.22
   2  -2  16    1.60    0.23
  -4   2 -16    0.15    0.13
   4  -2  16    0.03    0.10
  -6   2 -16    0.07    0.10
   6  -2  16    0.04    0.12
   8  -2  16    1.12    0.24
  10  -2  16    3.43    0.36
  12  -2  16    1.37    0.29
  14  -2  16   -0.13    0.13
  16  -2  16    1.16    0.27
  16  -2  16    0.89    0.30
  18  -2  16    0.19    0.23
  18  -2  16    0.28    0.19
  20  -2  16    0.76    0.31
  20  -2  16    1.17    0.31
  22  -2  16    0.09    0.22
  22  -2  16   -0.04    0.22
  24  -2  16    0.16    0.26
  24  -2  16    0.91    0.32
 -26   2 -16    0.13    0.21
  26  -2  16    0.52    0.28
 -28   2 -16   -0.14    0.25
  28  -2  16    0.27    0.28
  30  -2  16   -0.25    0.30
  32   0 -16   19.89    1.29
  30   0 -16    0.30    0.39
  28   0 -16   15.42    1.01
  28   0 -16   17.22    1.08
  26   0 -16    0.32    0.32
  26   0 -16    0.12    0.28
  24   0 -16   38.95    1.56
  24   0 -16   40.03    1.51
  22   0 -16   -0.12    0.24
  22   0 -16    0.08    0.20
  20   0 -16   37.22    1.43
  20   0 -16   37.96    1.35
  18   0 -16   -0.01    0.18
  18   0 -16   -0.09    0.19
  16   0 -16  125.80    3.07
  16   0 -16  134.29    2.91
  14   0 -16    0.11    0.16
  14   0 -16    0.08    0.18
  12   0 -16   62.08    1.74
  12   0 -16   59.60    1.57
  10   0 -16    0.03    0.11
   8   0 -16  166.92    3.28
   6   0 -16    0.08    0.11
  -6   0  16    0.03    0.08
   4   0 -16  108.73    2.27
  -4   0  16  107.21    2.13
   2   0 -16   -0.05    0.11
  -2   0  16    0.19    0.11
   0   0  16  360.59    6.24
   2   0  16   -0.07    0.09
   4   0  16  106.42    2.31
   6   0  16   -0.12    0.09
   8   0  16  162.56    3.32
  10   0  16   -0.13    0.12
  12   0  16   65.41    1.79
  14   0  16   -0.13    0.13
  16   0  16  131.15    3.01
  18   0  16   -0.01    0.19
  20   0  16   35.66    1.37
  20   0  16   36.85    1.36
 -22   0 -16    0.07    0.18
  22   0  16    0.11    0.21
 -24   0 -16   37.37    1.46
  24   0  16   38.27    1.50
 -26   0 -16    0.09    0.22
  26   0  16    0.05    0.23
 -28   0 -16   14.45    0.95
  28   0  16   16.82    1.04
  30   0  16    0.15    0.25
  32  -2 -16    0.63    0.44
  30  -2 -16    0.08    0.37
  28  -2 -16    0.96    0.40
  26  -2 -16    0.25    0.31
  26  -2 -16    0.34    0.26
  24  -2 -16    0.54    0.33
  24  -2 -16    0.27    0.30
  22  -2 -16    0.40    0.27
  22  -2 -16    0.00    0.25
  20  -2 -16    0.95    0.32
  20  -2 -16    1.02    0.32
  18  -2 -16   -0.14    0.17
  18  -2 -16    0.47    0.23
  16  -2 -16    1.20    0.29
  14  -2 -16    0.19    0.17
  12  -2 -16    1.73    0.28
  10  -2 -16    3.82    0.36
   8  -2 -16    1.45    0.24
   6  -2 -16    0.23    0.13
  -6   2  16    0.13    0.09
   4  -2 -16    0.09    0.13
  -4   2  16   -0.06    0.09
   2  -2 -16    1.80    0.24
  -2   2  16    1.28    0.18
   0   2  16   -0.19    0.11
   2   2  16    1.47    0.22
   4   2  16   -0.07    0.11
   6   2  16   -0.05    0.10
   8   2  16    1.21    0.25
  10   2  16    3.38    0.37
  12   2  16    1.39    0.28
  14   2  16   -0.10    0.15
 -16  -2 -16    1.19    0.27
  16   2  16    0.69    0.27
 -18  -2 -16    0.04    0.17
 -20  -2 -16    0.73    0.28
 -22  -2 -16    0.30    0.21
 -24  -2 -16    0.14    0.25
  24   2  16    0.62    0.26
 -26  -2 -16    0.27    0.26
  26   2  16    0.37    0.25
 -28  -2 -16    0.06    0.31
  28   2  16    0.87    0.35
  30   2  16   -0.09    0.27
  32  -4 -16    9.54    0.94
  30  -4 -16    0.01    0.38
  28  -4 -16   19.50    1.17
  26  -4 -16    0.04    0.30
  26  -4 -16    0.19    0.24
  24  -4 -16   24.14    1.19
  24  -4 -16   24.57    1.22
  22  -4 -16   -0.05    0.24
  22  -4 -16    0.36    0.25
  20  -4 -16   42.00    1.47
  18  -4 -16   -0.08    0.19
  16  -4 -16   75.22    2.00
  14  -4 -16    0.09    0.16
  12  -4 -16   90.46    2.18
  10  -4 -16    0.10    0.15
   8  -4 -16  110.50    2.44
   6  -4 -16    0.06    0.09
   6  -4 -16    0.07    0.13
   4  -4 -16  114.25    2.51
   4  -4 -16  117.37    2.24
   2  -4 -16    0.17    0.11
   2  -4 -16    0.02    0.13
   0  -4 -16  108.08    2.22
  -2  -4 -16   -0.07    0.09
  -4  -4 -16  103.94    2.22
   4   4  16  104.79    2.25
  -6  -4 -16    0.06    0.12
   6   4  16    0.12    0.12
  -8  -4 -16  100.41    2.26
 -10  -4 -16    0.02    0.13
 -12  -4 -16   90.55    2.22
 -14  -4 -16    0.24    0.17
 -16  -4 -16   74.69    2.02
 -18  -4 -16    0.06    0.16
 -20  -4 -16   38.98    1.43
 -22  -4 -16    0.07    0.19
 -24  -4 -16   23.50    1.13
 -26  -4 -16    0.16    0.23
 -28  -4 -16   16.41    1.01
  30  -6 -16    0.04    0.37
  28  -6 -16    0.90    0.42
  26  -6 -16    0.09    0.25
  26  -6 -16   -0.02    0.34
  24  -6 -16   -0.04    0.29
  24  -6 -16    0.15    0.23
  22  -6 -16    0.67    0.33
  20  -6 -16    0.42    0.27
  18  -6 -16   -0.03    0.21
  16  -6 -16    0.16    0.22
  14  -6 -16    3.59    0.41
  12  -6 -16    0.15    0.16
  10  -6 -16    0.45    0.20
   8  -6 -16    0.10    0.15
   6  -6 -16    1.31    0.24
   4  -6 -16   -0.05    0.11
   4  -6 -16    0.05    0.10
   2  -6 -16    0.12    0.11
   2  -6 -16    0.06    0.11
   0  -6 -16    0.12    0.12
  -2  -6 -16    0.06    0.12
  -4  -6 -16    0.11    0.14
  -6  -6 -16    1.07    0.23
  -8  -6 -16    0.18    0.17
 -10  -6 -16    0.19    0.18
 -12  -6 -16    0.02    0.17
 -14  -6 -16    4.15    0.44
 -16  -6 -16    0.14    0.20
 -18  -6 -16   -0.06    0.14
 -20  -6 -16   -0.09    0.20
 -22  -6 -16    0.56    0.26
 -24  -6 -16    0.06    0.27
 -26  -6 -16    0.18    0.29
 -28  -6 -16    0.04    0.27
  30  -8 -16   -0.23    0.37
  28  -8 -16   14.40    1.05
  26  -8 -16   -0.06    0.28
  26  -8 -16    0.43    0.27
  24  -8 -16   31.93    1.42
  22  -8 -16    0.26    0.28
  20  -8 -16   42.31    1.55
  18  -8 -16    0.00    0.20
  16  -8 -16   87.05    2.30
  14  -8 -16    0.09    0.19
  12  -8 -16   58.60    1.70
  10  -8 -16   -0.17    0.14
   8  -8 -16  122.54    2.74
   6  -8 -16   -0.01    0.14
   4  -8 -16  108.83    2.16
   4  -8 -16  109.35    2.51
   2  -8 -16    1.06    0.25
   2  -8 -16    1.49    0.20
   0  -8 -16  169.17    3.22
   0  -8 -16  166.20    3.47
  -2  -8 -16    1.13    0.22
  -4  -8 -16  110.08    2.39
  -6  -8 -16    0.22    0.17
  -8  -8 -16  124.96    2.74
 -10  -8 -16    0.28    0.18
 -12  -8 -16   57.93    1.68
 -14  -8 -16    0.23    0.20
 -16  -8 -16   86.93    2.29
 -18  -8 -16   -0.11    0.16
 -20  -8 -16   37.78    1.43
 -22  -8 -16   -0.04    0.20
 -24  -8 -16   30.80    1.35
 -26  -8 -16    0.34    0.29
  30 -10 -16    0.19    0.43
  28 -10 -16    0.57    0.41
  26 -10 -16    0.52    0.37
  24 -10 -16    0.62    0.37
  22 -10 -16    0.67    0.31
  20 -10 -16    0.75    0.31
  18 -10 -16    0.28    0.24
  16 -10 -16    0.30    0.24
  14 -10 -16    0.40    0.24
  12 -10 -16    0.59    0.25
  10 -10 -16    0.32    0.20
   8 -10 -16    0.02    0.15
   6 -10 -16    0.71    0.22
   4 -10 -16   -0.14    0.12
   4 -10 -16   -0.06    0.10
   2 -10 -16    4.34    0.42
   2 -10 -16    4.35    0.34
   0 -10 -16    0.10    0.14
   0 -10 -16    0.16    0.13
  -2 -10 -16    3.99    0.35
  -4 -10 -16    0.02    0.15
  -6 -10 -16    0.73    0.23
  -8 -10 -16    0.18    0.18
 -10 -10 -16    0.13    0.18
 -12 -10 -16    0.55    0.23
 -14 -10 -16    0.25    0.22
 -16 -10 -16    0.18    0.20
 -18 -10 -16    0.18    0.21
 -20 -10 -16    0.22    0.22
 -22 -10 -16    0.04    0.22
 -24 -10 -16    0.25    0.28
 -26 -10 -16   -0.01    0.23
  28 -12 -16   17.03    1.19
  26 -12 -16    0.31    0.37
  24 -12 -16   14.21    0.97
  22 -12 -16    0.53    0.33
  20 -12 -16   31.04    1.36
  18 -12 -16    0.02    0.24
  16 -12 -16   43.15    1.53
  14 -12 -16    0.71    0.30
  12 -12 -16   60.22    1.82
  10 -12 -16   -0.05    0.17
   8 -12 -16   50.08    1.54
   6 -12 -16    0.18    0.20
   4 -12 -16   92.71    1.98
   4 -12 -16   92.45    2.32
   2 -12 -16    0.87    0.26
   2 -12 -16    1.18    0.22
   0 -12 -16   60.73    1.71
   0 -12 -16   58.72    1.50
  -2 -12 -16    1.43    0.26
  -4 -12 -16   91.66    2.15
  -6 -12 -16    0.31    0.20
  -8 -12 -16   58.04    1.66
 -10 -12 -16    0.78    0.26
 -12 -12 -16   58.61    1.74
 -14 -12 -16    1.30    0.32
 -16 -12 -16   44.01    1.52
 -18 -12 -16    0.10    0.20
 -20 -12 -16   26.26    1.21
 -22 -12 -16    0.10    0.25
 -24 -12 -16   17.20    1.03
  28 -14 -16    0.55    0.48
  26 -14 -16    0.07    0.36
  24 -14 -16    0.65    0.37
  22 -14 -16    0.08    0.31
  20 -14 -16    0.30    0.28
  18 -14 -16   -0.08    0.24
  16 -14 -16    0.65    0.30
  14 -14 -16    3.12    0.45
  12 -14 -16    0.88    0.29
  10 -14 -16    0.29    0.22
   8 -14 -16    0.67    0.26
   6 -14 -16    3.44    0.42
   4 -14 -16    0.23    0.17
   4 -14 -16   -0.03    0.14
   2 -14 -16    0.03    0.15
   2 -14 -16   -0.01    0.15
   0 -14 -16    0.04    0.17
   0 -14 -16    0.04    0.15
  -2 -14 -16    0.06    0.17
  -4 -14 -16    0.08    0.18
  -6 -14 -16    3.46    0.41
  -8 -14 -16    0.80    0.26
 -10 -14 -16    0.23    0.22
 -12 -14 -16    0.54    0.27
 -14 -14 -16    3.36    0.45
 -16 -14 -16    0.51    0.25
 -18 -14 -16   -0.03    0.19
 -20 -14 -16    0.16    0.24
 -22 -14 -16    0.79    0.36
 -24 -14 -16    0.21    0.28
  26 -16 -16    0.68    0.41
  24 -16 -16   22.27    1.26
  22 -16 -16   -0.46    0.25
  20 -16 -16   25.15    1.27
  18 -16 -16    0.19    0.29
  16 -16 -16   69.94    2.15
  14 -16 -16    0.63    0.27
  12 -16 -16   44.47    1.57
  10 -16 -16    0.24    0.24
   8 -16 -16   87.26    2.33
   6 -16 -16    0.05    0.24
   4 -16 -16   71.60    1.72
   4 -16 -16   69.19    1.99
   2 -16 -16    0.89    0.32
   2 -16 -16    1.87    0.30
  -2  16  16    1.48    0.26
   0 -16 -16  128.69    3.06
   0 -16 -16  133.89    2.83
  -2 -16 -16    1.27    0.28
  -2 -16 -16    1.10    0.32
  -4 -16 -16   73.83    1.94
  -6 -16 -16    0.40    0.22
  -8 -16 -16   85.31    2.22
 -10 -16 -16    0.13    0.21
 -12 -16 -16   45.81    1.56
 -14 -16 -16    0.80    0.30
 -16 -16 -16   68.67    2.09
 -18 -16 -16    0.04    0.20
 -20 -16 -16   24.66    1.22
 -22 -16 -16   -0.19    0.23
  24 -18 -16    0.45    0.31
  22 -18 -16    0.05    0.29
  20 -18 -16    0.01    0.24
  18 -18 -16    0.14    0.25
  16 -18 -16    0.07    0.23
  14 -18 -16    0.07    0.24
  12 -18 -16   -0.06    0.20
  10 -18 -16    0.08    0.19
   8 -18 -16    0.11    0.20
   6 -18 -16   -0.03    0.16
   4 -18 -16   -0.01    0.17
   2 -18 -16    0.18    0.19
   2 -18 -16    0.26    0.19
  -2  18  16    0.24    0.18
   0 -18 -16   -0.11    0.17
   0 -18 -16    0.13    0.20
   0  18  16    0.09    0.16
  -2 -18 -16    0.21    0.20
  -2 -18 -16    0.09    0.19
   2  18  16    0.06    0.15
  -4 -18 -16   -0.02    0.18
  -6 -18 -16    0.02    0.21
  -8 -18 -16   -0.04    0.22
 -10 -18 -16    0.38    0.26
 -12 -18 -16    0.09    0.23
 -14 -18 -16    0.49    0.29
 -16 -18 -16    0.40    0.28
 -18 -18 -16    0.42    0.26
 -20 -18 -16    0.19    0.24
  22 -20 -16    0.17    0.31
  20 -20 -16   16.26    1.05
  18 -20 -16    0.30    0.28
  16 -20 -16   23.28    1.20
  14 -20 -16    0.35    0.25
  12 -20 -16   28.51    1.29
  10 -20 -16    0.33    0.25
   8 -20 -16   41.49    1.54
   6 -20 -16    0.03    0.23
   4 -20 -16   40.11    1.49
   2 -20 -16    1.85    0.34
   2 -20 -16    0.62    0.29
  -2  20  16    1.01    0.26
   0 -20 -16   38.52    1.31
   0 -20 -16   37.12    1.42
   0  20  16   39.43    1.33
  -2 -20 -16    1.14    0.34
  -2 -20 -16    1.44    0.32
   2  20  16    1.18    0.28
  -4 -20 -16   43.67    1.50
  -4 -20 -16   46.16    1.61
   4  20  16   42.54    1.45
  -6 -20 -16   -0.10    0.22
   6  20  16    0.38    0.22
  -8 -20 -16   38.95    1.44
 -10 -20 -16    0.68    0.32
 -12 -20 -16   30.86    1.34
 -14 -20 -16   -0.03    0.25
 -16 -20 -16   23.12    1.19
 -18 -20 -16   -0.19    0.23
  22 -22 -16    1.13    0.43
  20 -22 -16   -0.07    0.27
  18 -22 -16   -0.11    0.27
  16 -22 -16   -0.19    0.21
  14 -22 -16    0.64    0.31
  12 -22 -16    0.05    0.25
  10 -22 -16    0.57    0.28
   8 -22 -16    0.00    0.22
   6 -22 -16    0.45    0.26
   4 -22 -16    0.16    0.24
   2 -22 -16    0.36    0.25
   2 -22 -16    0.54    0.29
  -2  22  16    0.12    0.18
   0 -22 -16    0.10    0.20
   0 -22 -16   -0.10    0.20
   0  22  16   -0.05    0.19
  -2 -22 -16    0.16    0.22
  -2 -22 -16    0.07    0.24
   2  22  16    0.03    0.20
  -4 -22 -16   -0.09    0.21
  -4 -22 -16    0.08    0.22
   4  22  16    0.34    0.21
  -6 -22 -16    0.60    0.31
  -6 -22 -16    1.13    0.34
   6  22  16    0.67    0.28
  -8 -22 -16    0.14    0.26
 -10 -22 -16    0.51    0.33
 -12 -22 -16    0.43    0.32
 -14 -22 -16    1.15    0.38
 -16 -22 -16   -0.08    0.28
  20 -24 -16    8.63    0.84
  18 -24 -16   -0.18    0.30
  16 -24 -16   17.97    1.09
  14 -24 -16    0.83    0.36
  12 -24 -16   17.36    1.06
  10 -24 -16    0.71    0.35
   8 -24 -16   28.36    1.30
   6 -24 -16   -0.45    0.20
   4 -24 -16   23.84    1.17
   2 -24 -16   -0.12    0.28
   0 -24 -16   38.07    1.54
   0 -24 -16   40.59    1.46
   0  24  16   40.20    1.44
  -2 -24 -16    0.50    0.35
  -2 -24 -16    0.53    0.29
   2  24  16    1.45    0.35
  -4 -24 -16   25.13    1.21
  -4 -24 -16   24.38    1.15
   4  24  16   23.36    1.12
  -6 -24 -16   -0.04    0.27
  -6 -24 -16    0.26    0.27
   6  24  16    0.05    0.21
  -8 -24 -16   31.09    1.39
   8  24  16   30.29    1.33
 -10 -24 -16    0.38    0.35
 -12 -24 -16   15.13    1.00
  18 -26 -16   -0.41    0.31
  16 -26 -16    0.18    0.35
  14 -26 -16   -0.09    0.27
  12 -26 -16    0.10    0.28
  10 -26 -16    0.00    0.26
   8 -26 -16    0.04    0.23
   6 -26 -16    0.15    0.25
   4 -26 -16    0.29    0.26
   2 -26 -16    0.26    0.27
   0 -26 -16   -0.01    0.27
   0 -26 -16   -0.16    0.25
   0  26  16    0.01    0.23
  -2 -26 -16   -0.01    0.28
  -2 -26 -16    0.15    0.26
   2  26  16    0.00    0.22
  -4 -26 -16    0.08    0.30
  -4 -26 -16    0.46    0.30
   4  26  16    0.33    0.26
  -6 -26 -16    0.15    0.28
  -6 -26 -16   -0.14    0.23
   6  26  16    0.05    0.23
  -8 -26 -16    0.00    0.23
  -8 -26 -16    0.07    0.31
   8  26  16    0.61    0.32
 -10 -26 -16    0.14    0.31
  10  26  16    0.05    0.25
  14 -28 -16    0.50    0.35
  12 -28 -16   15.12    1.03
  10 -28 -16    0.54    0.37
   8 -28 -16   12.27    0.89
   6 -28 -16    0.51    0.34
   4 -28 -16   15.57    1.00
   2 -28 -16    0.21    0.31
   0 -28 -16   13.66    0.93
  -2 -28 -16    0.16    0.31
  -2 -28 -16    0.92    0.38
   2  28  16    1.06    0.34
  -4 -28 -16   16.65    1.04
  -4 -28 -16   15.95    1.03
   4  28  16   15.70    1.00
  -6 -28 -16    0.30    0.30
  -6 -28 -16    0.49    0.36
   6  28  16    0.42    0.31
  -8 -28 -16   11.23    0.88
   8  28  16   11.79    0.88
 -10 -28 -16    0.84    0.38
  12 -30 -16   -0.04    0.33
  10 -30 -16    0.28    0.35
   8 -30 -16    0.11    0.30
   6 -30 -16    0.22    0.30
   4 -30 -16    0.12    0.33
   2 -30 -16    0.51    0.31
   0 -30 -16    0.21    0.29
  -2 -30 -16    0.15    0.29
   2  30  16    0.40    0.32
  -4 -30 -16   -0.01    0.28
  -6 -30 -16    0.02    0.31
  -8 -30 -16   -0.02    0.31
 -10 -30 -16    0.15    0.37
 -12 -30 -16    0.28    0.37
   6 -32 -16    0.10    0.37
   4 -32 -16    9.23    0.83
   2 -32 -16    0.28    0.38
   0 -32 -16   18.90    1.16
  -2 -32 -16    0.01    0.36
  11  29 -17    0.01    0.40
   9  29 -17   -0.18    0.34
  15  27 -17    0.65    0.42
  13  27 -17    0.01    0.39
  11  27 -17    0.34    0.36
 -11 -27  17    0.03    0.26
   9  27 -17    0.01    0.34
  -9 -27  17    0.19    0.29
   7  27 -17    0.44    0.39
  -7 -27  17    0.05    0.27
   5  27 -17   -0.21    0.33
  -5 -27  17    0.23    0.27
  -3 -27  17   -0.20    0.23
  -1 -27  17    0.26    0.28
   1 -27  17   -0.06    0.24
  17  25 -17   -0.45    0.30
  15  25 -17    0.25    0.35
  13  25 -17    0.12    0.37
  11  25 -17   -0.18    0.30
 -11 -25  17    0.04    0.24
   9  25 -17    0.17    0.32
  -9 -25  17    0.31    0.27
   7  25 -17    0.08    0.33
  -7 -25  17    0.07    0.20
   5  25 -17    0.06    0.30
  -5 -25  17    0.07    0.24
   3  25 -17    0.01    0.31
  -3 -25  17   -0.06    0.18
   1  25 -17   -0.26    0.25
  -1 -25  17    0.02    0.19
   1 -25  17    0.07    0.21
   3 -25  17    0.20    0.25
   5 -25  17   -0.07    0.19
   7 -25  17    0.21    0.23
   9 -25  17    0.47    0.32
  21  23 -17   -0.06    0.37
  19  23 -17    0.40    0.36
  17  23 -17   -0.29    0.30
  15  23 -17    0.08    0.33
  13  23 -17   -0.18    0.31
  11  23 -17    0.47    0.37
 -11 -23  17    0.86    0.32
   9  23 -17   -0.37    0.30
  -9 -23  17   -0.09    0.21
   7  23 -17   -0.06    0.27
  -7 -23  17    0.16    0.22
   5  23 -17   -0.38    0.27
  -5 -23  17    0.08    0.18
   3  23 -17    0.96    0.38
  -3 -23  17    0.16    0.22
   1  23 -17    0.06    0.28
  -1 -23  17    0.29    0.23
  -1  23 -17    0.39    0.31
   1 -23  17    0.06    0.20
   3 -23  17    0.38    0.25
   5 -23  17    0.13    0.22
   7 -23  17    0.36    0.26
   9 -23  17    0.00    0.25
  11 -23  17    0.51    0.33
  13 -23  17    0.07    0.28
  23  21 -17    0.16    0.38
  21  21 -17    0.03    0.35
  19  21 -17   -0.21    0.28
  17  21 -17    0.12    0.30
  15  21 -17    0.09    0.28
  13  21 -17   -0.08    0.29
  11  21 -17   -0.30    0.23
   9  21 -17   -0.21    0.25
  -9 -21  17    0.21    0.21
   7  21 -17    0.16    0.25
  -7 -21  17    0.08    0.19
   5  21 -17    0.07    0.24
  -5 -21  17    0.39    0.21
   3  21 -17    0.01    0.25
  -3 -21  17   -0.11    0.17
   1  21 -17    0.06    0.23
  -1 -21  17    0.06    0.18
  -1  21 -17   -0.15    0.23
   1 -21  17   -0.04    0.16
  -3  21 -17   -0.07    0.23
   3 -21  17    0.07    0.18
   5 -21  17    0.25    0.21
   7 -21  17    0.08    0.21
   9 -21  17    0.19    0.27
  11 -21  17   -0.01    0.22
  13 -21  17    0.26    0.28
  15 -21  17   -0.11    0.25
  17 -21  17    0.17    0.30
  25  19 -17   -0.10    0.30
  23  19 -17    0.08    0.37
  21  19 -17   -0.31    0.25
  19  19 -17    0.13    0.32
  17  19 -17   -0.01    0.27
  15  19 -17   -0.18    0.22
  13  19 -17   -0.29    0.25
  11  19 -17   -0.16    0.22
   9  19 -17    0.61    0.35
  -9 -19  17    0.19    0.19
   7  19 -17    0.70    0.33
  -7 -19  17    0.67    0.23
   5  19 -17    0.12    0.28
  -5 -19  17    0.34    0.20
   3  19 -17   -0.01    0.22
  -3 -19  17   -0.01    0.17
   1  19 -17   -0.24    0.22
  -1 -19  17   -0.06    0.16
  -1  19 -17   -0.37    0.16
   1 -19  17   -0.07    0.15
  -3  19 -17    0.00    0.24
   3 -19  17    0.18    0.19
  -5  19 -17    0.41    0.27
   5 -19  17    0.10    0.19
   7 -19  17    0.92    0.29
   9 -19  17    0.38    0.25
  11 -19  17    0.06    0.24
  13 -19  17   -0.11    0.25
  15 -19  17   -0.26    0.22
  17 -19  17   -0.13    0.28
  19 -19  17    0.05    0.31
  27  17 -17    0.14    0.38
  25  17 -17    0.33    0.37
  23  17 -17    0.12    0.30
  21  17 -17    0.04    0.29
  19  17 -17    0.08    0.28
  17  17 -17    0.04    0.23
  15  17 -17    0.06    0.22
  13  17 -17    0.02    0.19
  11  17 -17   -0.02    0.23
   9  17 -17   -0.11    0.21
  -9 -17  17    0.22    0.17
   7  17 -17   -0.10    0.21
  -7 -17  17    0.38    0.18
   5  17 -17   -0.06    0.22
  -5 -17  17   -0.03    0.15
   3  17 -17    0.02    0.20
  -3 -17  17   -0.07    0.13
   1  17 -17    0.18    0.22
  -1 -17  17   -0.01    0.14
  -1  17 -17    0.15    0.21
   1 -17  17   -0.13    0.14
  -3  17 -17   -0.03    0.19
   3 -17  17    0.12    0.15
  -5  17 -17    0.08    0.19
   5 -17  17    0.06    0.17
   7 -17  17   -0.10    0.12
   9 -17  17   -0.06    0.15
  11 -17  17   -0.03    0.22
  13 -17  17   -0.06    0.19
  15 -17  17   -0.05    0.24
  17 -17  17    0.05    0.27
  19 -17  17   -0.30    0.22
  21 -17  17    0.15    0.27
  27  15 -17   -0.18    0.34
  25  15 -17   -0.33    0.29
  23  15 -17    0.20    0.30
  21  15 -17   -0.28    0.27
  19  15 -17    0.20    0.28
  17  15 -17   -0.10    0.25
  15  15 -17   -0.12    0.20
  13  15 -17    0.55    0.29
  11  15 -17    1.08    0.33
   9  15 -17   -0.02    0.22
  -9 -15  17    0.06    0.14
   7  15 -17    0.09    0.21
  -7 -15  17   -0.09    0.16
   5  15 -17   -0.19    0.17
  -5 -15  17    0.24    0.17
   3  15 -17    0.26    0.22
  -3 -15  17    0.34    0.19
   1  15 -17    0.06    0.19
  -1 -15  17    0.35    0.18
  -1  15 -17   -0.22    0.15
   1 -15  17    0.16    0.18
  -3  15 -17    0.28    0.20
   3 -15  17    0.16    0.17
  -5  15 -17    0.30    0.19
   5 -15  17   -0.12    0.14
   7 -15  17    0.25    0.19
   9 -15  17   -0.12    0.15
  11 -15  17    0.56    0.25
  13 -15  17    0.01    0.21
  15 -15  17    0.10    0.21
  17 -15  17    0.03    0.24
  19 -15  17   -0.24    0.24
  21 -15  17   -0.16    0.25
  23 -15  17   -0.09    0.26
  29  13 -17    0.37    0.40
  27  13 -17   -0.14    0.31
  25  13 -17    0.23    0.31
  23  13 -17    0.09    0.29
  21  13 -17    0.05    0.26
  19  13 -17   -0.10    0.20
  17  13 -17   -0.24    0.17
  15  13 -17    0.27    0.24
  13  13 -17   -0.01    0.19
  11  13 -17    1.20    0.34
   9  13 -17    0.11    0.22
  -9 -13  17    0.12    0.15
   7  13 -17    1.47    0.32
  -7 -13  17    1.51    0.25
   5  13 -17    1.15    0.30
  -5 -13  17    1.18    0.24
   3  13 -17    0.14    0.19
  -3 -13  17    0.34    0.17
   1  13 -17    0.46    0.21
  -1 -13  17    0.68    0.21
  -1  13 -17    0.61    0.21
   1 -13  17    0.71    0.22
  -3  13 -17    0.04    0.15
   3 -13  17    0.44    0.18
  -5  13 -17    1.55    0.27
   5 -13  17    1.89    0.31
   7 -13  17    1.20    0.27
   9 -13  17    0.45    0.21
  11 -13  17    0.42    0.24
  13 -13  17   -0.13    0.19
  15 -13  17    0.60    0.29
  17 -13  17   -0.08    0.23
  19 -13  17    0.22    0.27
  21 -13  17   -0.03    0.26
  23 -13  17    0.56    0.35
  25 -13  17   -0.10    0.30
  29  11 -17    0.04    0.30
  27  11 -17    0.15    0.31
  25  11 -17   -0.06    0.27
  23  11 -17    0.61    0.33
  21  11 -17   -0.11    0.22
  19  11 -17   -0.27    0.18
  17  11 -17   -0.28    0.16
  15  11 -17    0.23    0.23
  13  11 -17    0.90    0.30
  11  11 -17   -0.10    0.19
   9  11 -17   -0.04    0.18
  -9 -11  17    0.07    0.12
   7  11 -17   -0.22    0.15
  -7 -11  17    0.20    0.14
   5  11 -17   -0.18    0.16
  -5 -11  17    0.02    0.12
   3  11 -17    0.46    0.22
  -3 -11  17    0.58    0.19
   1  11 -17   -0.06    0.14
  -1 -11  17    0.01    0.10
  -1  11 -17    0.06    0.14
   1 -11  17    0.10    0.14
  -3  11 -17    0.62    0.19
   3 -11  17    0.58    0.20
  -5  11 -17    0.22    0.15
   5 -11  17   -0.08    0.12
   7 -11  17   -0.03    0.14
   9 -11  17   -0.11    0.14
  11 -11  17    0.08    0.16
  13 -11  17    1.07    0.31
  15 -11  17    0.80    0.29
  17 -11  17    0.05    0.23
  19 -11  17   -0.11    0.21
  21 -11  17   -0.03    0.27
  23 -11  17    1.09    0.39
  25 -11  17   -0.04    0.31
  29   9 -17    0.07    0.35
  27   9 -17    0.06    0.30
  25   9 -17    0.02    0.26
  23   9 -17   -0.21    0.21
  21   9 -17    0.12    0.27
  19   9 -17    0.18    0.22
  17   9 -17    0.16    0.22
  15   9 -17    0.13    0.19
  13   9 -17   -0.04    0.17
  11   9 -17    0.04    0.18
   9   9 -17   -0.05    0.16
   7   9 -17    0.15    0.17
  -7  -9  17    0.00    0.10
   5   9 -17    0.26    0.20
  -5  -9  17    0.12    0.13
   3   9 -17    2.33    0.31
  -3  -9  17    2.01    0.25
   1   9 -17    0.05    0.12
  -1  -9  17    0.00    0.10
  -1   9 -17   -0.11    0.11
   1  -9  17   -0.12    0.10
  -3   9 -17    2.16    0.27
   3  -9  17    1.97    0.28
  -5   9 -17    0.08    0.14
   5  -9  17    0.23    0.15
   7  -9  17   -0.19    0.12
   9  -9  17   -0.02    0.14
  11  -9  17   -0.01    0.13
  13  -9  17    0.32    0.21
  15  -9  17    0.02    0.17
  17  -9  17   -0.07    0.21
  17  -9  17    0.21    0.17
  19  -9  17    0.33    0.25
  19  -9  17    0.10    0.19
  21  -9  17    0.43    0.23
  21  -9  17    0.27    0.25
  23  -9  17    0.09    0.21
  23  -9  17    0.18    0.28
  25  -9  17    0.08    0.25
  25  -9  17    0.08    0.29
  27  -9  17    0.15    0.33
  27  -9  17    0.48    0.31
  29  -9  17   -0.01    0.30
  31  -9  17    0.38    0.37
  29   7 -17    0.11    0.34
  27   7 -17    0.24    0.30
  25   7 -17    0.19    0.27
  23   7 -17   -0.03    0.26
  21   7 -17    0.06    0.25
  19   7 -17    0.74    0.29
  17   7 -17    0.14    0.20
  15   7 -17   -0.07    0.15
  13   7 -17    1.77    0.35
  11   7 -17   -0.11    0.16
   9   7 -17    0.05    0.17
   7   7 -17    0.12    0.16
  -7  -7  17   -0.09    0.09
   5   7 -17   -0.04    0.13
  -5  -7  17   -0.02    0.08
   3   7 -17    1.39    0.26
  -3  -7  17    1.11    0.20
   1   7 -17    0.14    0.14
  -1  -7  17    0.06    0.11
  -1   7 -17    0.30    0.15
   1  -7  17   -0.04    0.11
  -3   7 -17    1.84    0.24
   3  -7  17    1.41    0.25
  -5   7 -17   -0.07    0.10
   5  -7  17   -0.27    0.10
   7  -7  17    0.10    0.15
   9  -7  17   -0.08    0.13
  11  -7  17    0.17    0.17
  13  -7  17    1.01    0.28
  15  -7  17   -0.14    0.17
  15  -7  17    0.17    0.17
  17  -7  17    0.07    0.22
  17  -7  17    0.02    0.17
  19  -7  17    1.18    0.30
  19  -7  17    0.83    0.32
  21  -7  17    0.03    0.24
  21  -7  17    0.25    0.20
  23  -7  17    0.40    0.32
  23  -7  17   -0.17    0.20
  25  -7  17    0.36    0.29
  25  -7  17    0.11    0.24
  27  -7  17   -0.26    0.28
  27  -7  17    0.00    0.26
  29  -7  17   -0.06    0.26
  31  -7  17   -0.40    0.25
  29   5 -17    0.07    0.33
  27   5 -17    0.06    0.30
  25   5 -17    0.07    0.25
  23   5 -17    0.17    0.23
  21   5 -17    0.06    0.23
  19   5 -17    0.39    0.26
  17   5 -17    0.02    0.16
  15   5 -17   -0.06    0.15
  13   5 -17    1.79    0.34
  11   5 -17   -0.05    0.16
   9   5 -17   -0.03    0.16
   7   5 -17    0.05    0.13
  -7  -5  17   -0.08    0.08
   5   5 -17    0.04    0.14
  -5  -5  17   -0.04    0.08
   3   5 -17    2.13    0.21
   3   5 -17    2.22    0.30
  -3  -5  17    1.98    0.23
   1   5 -17    0.02    0.09
   1   5 -17    0.11    0.14
  -1  -5  17   -0.03    0.08
  -1   5 -17    0.01    0.11
   1  -5  17   -0.05    0.11
  -3   5 -17    1.51    0.23
   3  -5  17    2.35    0.28
  -5   5 -17    0.04    0.11
   5  -5  17    0.00    0.12
   7  -5  17   -0.01    0.10
   9  -5  17    0.22    0.17
  11  -5  17   -0.04    0.12
  13  -5  17    0.96    0.27
  15  -5  17    0.10    0.19
  17  -5  17   -0.28    0.18
  17  -5  17    0.02    0.15
  19  -5  17    0.45    0.26
  19  -5  17    0.31    0.22
  21  -5  17    0.35    0.27
  21  -5  17    0.26    0.22
  23  -5  17    0.18    0.24
  23  -5  17    0.56    0.30
  25  -5  17    0.11    0.23
  25  -5  17   -0.29    0.25
  27  -5  17    0.01    0.30
  27  -5  17    0.04    0.26
  29  -5  17   -0.03    0.27
  31  -5  17   -0.10    0.31
  27   3 -17   -0.14    0.26
  25   3 -17    0.53    0.31
  23   3 -17    0.68    0.31
  21   3 -17    0.08    0.22
  19   3 -17   -0.06    0.20
  19   3 -17    0.04    0.22
  17   3 -17    0.01    0.17
  17   3 -17    0.11    0.19
  15   3 -17    0.00    0.17
  15   3 -17    0.58    0.25
  13   3 -17    0.15    0.17
  13   3 -17    0.41    0.18
  11   3 -17    0.73    0.20
  11   3 -17    0.34    0.20
   9   3 -17    1.91    0.32
   9   3 -17    2.65    0.27
   7   3 -17    1.40    0.20
   7   3 -17    1.43    0.27
  -7  -3  17    1.65    0.20
   5   3 -17    2.18    0.23
   5   3 -17    2.13    0.30
  -5  -3  17    2.35    0.23
   3   3 -17    0.10    0.10
   3   3 -17    0.15    0.15
  -3  -3  17    0.11    0.09
   1   3 -17    0.30    0.16
   1   3 -17    0.24    0.12
  -1  -3  17    0.49    0.15
  -1   3 -17    0.62    0.17
   1  -3  17    0.36    0.15
  -3   3 -17   -0.05    0.10
   3  -3  17   -0.04    0.08
  -5   3 -17    1.93    0.23
   5  -3  17    2.01    0.28
   7  -3  17    1.37    0.25
   9  -3  17    1.70    0.29
  11  -3  17    0.40    0.17
  13  -3  17    0.37    0.22
  15  -3  17    0.38    0.21
  17  -3  17    0.06    0.20
  19  -3  17    0.04    0.17
  19  -3  17    0.06    0.21
  21  -3  17   -0.03    0.18
  21  -3  17    0.03    0.23
  23  -3  17    0.52    0.25
  23  -3  17    0.61    0.30
  25  -3  17    0.38    0.31
  25  -3  17   -0.11    0.20
 -27   3 -17   -0.07    0.21
  27  -3  17   -0.16    0.24
  29  -3  17    0.08    0.28
  31  -3  17   -0.31    0.30
  27   1 -17    0.25    0.29
  27   1 -17   -0.05    0.32
  25   1 -17    0.05    0.25
  25   1 -17    0.01    0.30
  23   1 -17    0.20    0.23
  23   1 -17    0.47    0.31
  21   1 -17   -0.05    0.17
  21   1 -17   -0.32    0.22
  19   1 -17    0.35    0.22
  19   1 -17    0.02    0.21
  17   1 -17   -0.07    0.17
  17   1 -17   -0.18    0.17
  15   1 -17    0.01    0.17
  15   1 -17    0.21    0.19
  13   1 -17    0.85    0.22
  13   1 -17    0.63    0.23
  11   1 -17    0.17    0.17
  11   1 -17   -0.04    0.12
   9   1 -17   -0.13    0.11
   9   1 -17    0.05    0.13
   7   1 -17    0.27    0.14
   7   1 -17    0.26    0.18
   5   1 -17   -0.01    0.10
   5   1 -17    0.00    0.12
  -5  -1  17    0.02    0.08
   3   1 -17    0.49    0.18
   3   1 -17    0.47    0.15
  -3  -1  17    0.30    0.12
   1   1 -17   -0.05    0.10
   1   1 -17   -0.06    0.09
  -1  -1  17   -0.01    0.09
  -1   1 -17   -0.16    0.09
   1  -1  17    0.00    0.09
  -3   1 -17    0.52    0.17
   3  -1  17    0.68    0.17
  -5   1 -17    0.15    0.12
   5  -1  17   -0.03    0.10
  -7   1 -17    0.27    0.13
   7  -1  17    0.12    0.14
   9  -1  17   -0.14    0.12
  11  -1  17   -0.09    0.12
  13  -1  17    0.43    0.20
  15  -1  17    0.12    0.18
  17  -1  17    0.03    0.19
  19  -1  17   -0.09    0.16
  21  -1  17    0.05    0.22
  21  -1  17    0.07    0.20
 -23   1 -17    0.18    0.19
  23  -1  17    0.08    0.23
  23  -1  17    0.20    0.22
 -25   1 -17    0.20    0.25
  25  -1  17    0.17    0.23
 -27   1 -17   -0.04    0.21
  27  -1  17    0.21    0.26
  29  -1  17   -0.11    0.27
  31  -1  17   -0.12    0.26
  31  -1 -17   -0.21    0.38
  29  -1 -17    0.38    0.38
  27  -1 -17   -0.21    0.28
  27  -1 -17    0.04    0.35
  25  -1 -17   -0.14    0.26
  25  -1 -17    0.35    0.29
  23  -1 -17    0.17    0.31
  23  -1 -17    0.17    0.27
  21  -1 -17    0.04    0.20
  21  -1 -17    0.02    0.23
  19  -1 -17    0.23    0.21
  19  -1 -17   -0.22    0.21
  17  -1 -17   -0.07    0.17
  17  -1 -17    0.01    0.20
  15  -1 -17    0.01    0.19
  15  -1 -17   -0.09    0.14
  13  -1 -17    0.67    0.22
  11  -1 -17    0.04    0.15
   9  -1 -17   -0.08    0.12
   7  -1 -17    0.05    0.12
   5  -1 -17    0.12    0.12
  -5   1  17    0.10    0.09
   3  -1 -17    0.47    0.16
  -3   1  17    0.48    0.14
   1  -1 -17    0.00    0.11
  -1   1  17    0.10    0.09
   1   1  17    0.08    0.10
   3   1  17    0.57    0.17
   5   1  17    0.01    0.10
   7   1  17    0.01    0.13
   9   1  17    0.04    0.12
  11   1  17    0.16    0.15
  13   1  17    1.21    0.27
  15   1  17    0.05    0.18
  17   1  17   -0.14    0.15
 -19  -1 -17    0.00    0.14
  19   1  17   -0.16    0.15
 -21  -1 -17    0.05    0.19
 -23  -1 -17    0.24    0.23
 -25  -1 -17    0.03    0.20
 -27  -1 -17    0.26    0.28
  31  -3 -17   -0.09    0.41
  29  -3 -17    0.27    0.36
  27  -3 -17    0.25    0.30
  27  -3 -17   -0.28    0.30
  25  -3 -17    0.21    0.33
  25  -3 -17    0.03    0.25
  23  -3 -17    0.69    0.32
  23  -3 -17    0.89    0.34
  21  -3 -17    0.22    0.26
  21  -3 -17    0.09    0.22
  19  -3 -17    0.17    0.23
  19  -3 -17   -0.07    0.17
  17  -3 -17   -0.02    0.20
  15  -3 -17    0.52    0.25
  13  -3 -17    0.26    0.17
  11  -3 -17    0.48    0.20
   9  -3 -17    2.18    0.29
   7  -3 -17    1.62    0.25
   5  -3 -17    1.91    0.27
   5  -3 -17    1.79    0.20
   3  -3 -17    0.09    0.12
   3  -3 -17   -0.06    0.08
  -3   3  17   -0.04    0.07
   1  -3 -17    0.56    0.17
  -1   3  17    0.39    0.14
   1   3  17    0.41    0.15
   3   3  17    0.12    0.12
   5   3  17    2.02    0.27
   7   3  17    1.84    0.28
   9   3  17    1.29    0.25
  11   3  17    0.66    0.21
 -13  -3 -17    0.04    0.15
  13   3  17    0.01    0.14
 -15  -3 -17    0.01    0.15
 -17  -3 -17    0.01    0.18
 -19  -3 -17    0.18    0.17
 -21  -3 -17    0.02    0.17
 -23  -3 -17    0.50    0.26
 -25  -3 -17    0.06    0.22
 -27  -3 -17   -0.03    0.25
  31  -5 -17    0.19    0.42
  29  -5 -17   -0.08    0.35
  27  -5 -17    0.25    0.30
  27  -5 -17   -0.19    0.31
  25  -5 -17   -0.07    0.31
  25  -5 -17    0.12    0.23
  23  -5 -17    0.13    0.24
  23  -5 -17    0.37    0.32
  21  -5 -17   -0.03    0.25
  19  -5 -17    0.26    0.26
  17  -5 -17    0.10    0.21
  15  -5 -17   -0.24    0.16
  13  -5 -17    1.41    0.30
  11  -5 -17   -0.08    0.14
   9  -5 -17    0.27    0.18
   7  -5 -17   -0.02    0.13
   5  -5 -17    0.10    0.10
   5  -5 -17    0.00    0.13
   3  -5 -17    1.56    0.20
   3  -5 -17    1.57    0.25
   1  -5 -17   -0.02    0.10
   1  -5 -17    0.23    0.15
  -1  -5 -17    0.07    0.11
  -3  -5 -17    1.63    0.25
  -5  -5 -17   -0.06    0.12
  -7  -5 -17    0.00    0.12
  -9  -5 -17    0.87    0.25
 -11  -5 -17    0.00    0.16
 -13  -5 -17    1.27    0.29
 -15  -5 -17   -0.09    0.15
 -17  -5 -17   -0.01    0.15
 -19  -5 -17    0.17    0.18
 -21  -5 -17    0.30    0.21
 -23  -5 -17    0.10    0.20
 -25  -5 -17    0.14    0.26
 -27  -5 -17    0.09    0.24
  29  -7 -17    0.31    0.38
  27  -7 -17    0.13    0.31
  27  -7 -17    0.20    0.37
  25  -7 -17   -0.12    0.29
  25  -7 -17    0.12    0.24
  23  -7 -17    0.34    0.32
  21  -7 -17    0.16    0.25
  19  -7 -17    0.25    0.24
  17  -7 -17    0.08    0.22
  15  -7 -17    0.17    0.21
  13  -7 -17    1.48    0.31
  11  -7 -17    0.31    0.20
   9  -7 -17   -0.03    0.13
   7  -7 -17   -0.06    0.13
   5  -7 -17   -0.04    0.12
   5  -7 -17   -0.04    0.10
   3  -7 -17    1.00    0.23
   3  -7 -17    1.30    0.20
   1  -7 -17    0.15    0.15
   1  -7 -17    0.11    0.13
  -1  -7 -17    0.19    0.14
  -3  -7 -17    1.00    0.22
  -5  -7 -17   -0.11    0.11
  -7  -7 -17   -0.05    0.13
  -9  -7 -17    0.08    0.16
 -11  -7 -17    0.26    0.18
 -13  -7 -17    1.73    0.32
 -15  -7 -17    0.10    0.18
 -17  -7 -17   -0.16    0.15
 -19  -7 -17    0.42    0.24
 -21  -7 -17   -0.23    0.19
 -23  -7 -17   -0.25    0.16
 -25  -7 -17   -0.20    0.25
 -27  -7 -17    0.12    0.27
  29  -9 -17    0.14    0.42
  27  -9 -17   -0.36    0.31
  27  -9 -17   -0.08    0.25
  25  -9 -17    0.59    0.38
  23  -9 -17   -0.05    0.27
  21  -9 -17   -0.01    0.25
  19  -9 -17    0.02    0.28
  17  -9 -17    0.00    0.22
  15  -9 -17   -0.26    0.17
  13  -9 -17    0.02    0.18
  11  -9 -17   -0.12    0.18
   9  -9 -17    0.06    0.16
   7  -9 -17   -0.16    0.15
   5  -9 -17    0.40    0.19
   3  -9 -17    2.05    0.31
   3  -9 -17    2.03    0.24
   1  -9 -17    0.11    0.12
   1  -9 -17   -0.11    0.12
  -1  -9 -17    0.07    0.13
  -3  -9 -17    2.41    0.31
  -5  -9 -17    0.15    0.17
  -7  -9 -17    0.02    0.15
  -9  -9 -17   -0.06    0.17
 -11  -9 -17    0.01    0.16
 -13  -9 -17    0.05    0.19
 -15  -9 -17   -0.21    0.16
 -17  -9 -17   -0.19    0.17
 -19  -9 -17    0.16    0.21
 -21  -9 -17    0.23    0.24
 -23  -9 -17    0.22    0.24
 -25  -9 -17    0.04    0.22
  29 -11 -17    0.00    0.36
  27 -11 -17    0.11    0.37
  25 -11 -17   -0.10    0.30
  23 -11 -17    0.45    0.34
  21 -11 -17   -0.10    0.26
  19 -11 -17   -0.44    0.16
  17 -11 -17    0.01    0.23
  15 -11 -17    0.35    0.25
  13 -11 -17    0.87    0.30
  11 -11 -17   -0.03    0.18
   9 -11 -17    0.16    0.20
   7 -11 -17    0.20    0.18
   5 -11 -17    0.42    0.21
   3 -11 -17    0.47    0.21
   3 -11 -17    0.51    0.16
   1 -11 -17    0.06    0.17
   1 -11 -17    0.11    0.15
  -1 -11 -17   -0.02    0.14
  -1 -11 -17    0.05    0.15
  -3 -11 -17    0.75    0.23
  -5 -11 -17    0.04    0.14
  -7 -11 -17    0.43    0.22
  -9 -11 -17    0.01    0.18
 -11 -11 -17   -0.13    0.16
 -13 -11 -17    0.46    0.27
 -15 -11 -17    0.64    0.28
 -17 -11 -17    0.01    0.18
 -19 -11 -17    0.07    0.19
 -21 -11 -17   -0.12    0.21
 -23 -11 -17    0.48    0.29
 -25 -11 -17    0.05    0.26
  27 -13 -17   -0.28    0.37
  25 -13 -17    0.00    0.32
  23 -13 -17    0.02    0.31
  21 -13 -17   -0.24    0.26
  19 -13 -17    0.04    0.26
  17 -13 -17   -0.15    0.22
  15 -13 -17    0.45    0.29
  13 -13 -17   -0.19    0.17
  11 -13 -17    0.98    0.32
   9 -13 -17    0.15    0.21
   7 -13 -17    1.32    0.31
   5 -13 -17    0.94    0.28
   3 -13 -17    0.46    0.23
   3 -13 -17    0.31    0.16
   1 -13 -17    0.69    0.25
   1 -13 -17    0.82    0.22
  -1 -13 -17    0.71    0.22
  -1 -13 -17    0.80    0.28
  -3 -13 -17   -0.04    0.18
  -5 -13 -17    0.90    0.27
  -7 -13 -17    1.84    0.34
  -9 -13 -17    0.17    0.22
 -11 -13 -17    0.47    0.25
 -13 -13 -17   -0.18    0.16
 -15 -13 -17    0.25    0.24
 -17 -13 -17    0.23    0.24
 -19 -13 -17    0.00    0.22
 -21 -13 -17    0.02    0.23
 -23 -13 -17   -0.20    0.24
  27 -15 -17    0.13    0.38
  25 -15 -17   -0.39    0.30
  23 -15 -17    0.08    0.34
  21 -15 -17   -0.13    0.25
  19 -15 -17    0.09    0.27
  17 -15 -17   -0.06    0.27
  15 -15 -17    0.15    0.26
  13 -15 -17    1.08    0.34
  11 -15 -17    0.52    0.28
   9 -15 -17    0.14    0.22
   7 -15 -17   -0.19    0.18
   5 -15 -17   -0.11    0.14
   3 -15 -17    0.30    0.21
   3 -15 -17    0.09    0.18
   1 -15 -17   -0.30    0.14
   1 -15 -17    0.46    0.22
  -1 -15 -17   -0.01    0.19
  -1 -15 -17    0.05    0.16
  -3 -15 -17    0.00    0.20
  -5 -15 -17    0.03    0.21
  -7 -15 -17   -0.25    0.15
  -9 -15 -17   -0.13    0.21
 -11 -15 -17    0.88    0.31
 -13 -15 -17    0.23    0.27
 -15 -15 -17    0.15    0.26
 -17 -15 -17   -0.06    0.20
 -19 -15 -17   -0.23    0.19
 -21 -15 -17    0.13    0.26
  25 -17 -17    0.19    0.37
  23 -17 -17   -0.08    0.34
  21 -17 -17   -0.08    0.29
  19 -17 -17   -0.07    0.29
  17 -17 -17    0.53    0.31
  15 -17 -17   -0.24    0.24
  13 -17 -17    0.02    0.21
  11 -17 -17   -0.07    0.19
   9 -17 -17    0.06    0.21
   7 -17 -17    0.03    0.17
   5 -17 -17   -0.02    0.16
   3 -17 -17   -0.05    0.17
   3 -17 -17    0.12    0.18
   1 -17 -17   -0.09    0.15
   1 -17 -17    0.12    0.19
  -1 -17 -17    0.09    0.19
  -1 -17 -17   -0.02    0.17
  -3 -17 -17    0.25    0.20
  -3 -17 -17   -0.05    0.14
  -5 -17 -17   -0.02    0.21
  -7 -17 -17    0.15    0.24
  -9 -17 -17   -0.24    0.19
 -11 -17 -17   -0.26    0.19
 -13 -17 -17    0.06    0.25
 -15 -17 -17    0.21    0.26
 -17 -17 -17    0.32    0.31
 -19 -17 -17   -0.16    0.19
 -21 -17 -17   -0.28    0.25
  23 -19 -17    0.23    0.32
  21 -19 -17   -0.10    0.28
  19 -19 -17   -0.07    0.24
  17 -19 -17    0.13    0.25
  15 -19 -17   -0.07    0.23
  13 -19 -17    0.48    0.26
  11 -19 -17    0.02    0.22
   9 -19 -17    0.37    0.23
   7 -19 -17    1.38    0.34
   5 -19 -17    0.56    0.27
   3 -19 -17   -0.01    0.18
   1 -19 -17    0.04    0.19
   1 -19 -17   -0.03    0.17
  -1  19  17    0.04    0.16
  -1 -19 -17   -0.32    0.18
  -1 -19 -17   -0.22    0.16
   1  19  17   -0.24    0.14
  -3 -19 -17    0.12    0.20
  -3 -19 -17    0.39    0.24
  -5 -19 -17    0.17    0.26
  -7 -19 -17    0.54    0.30
  -9 -19 -17    0.44    0.29
 -11 -19 -17    0.07    0.22
 -13 -19 -17   -0.06    0.25
 -15 -19 -17    0.07    0.25
 -17 -19 -17   -0.26    0.28
 -19 -19 -17   -0.22    0.23
  21 -21 -17    0.02    0.33
  19 -21 -17    0.16    0.29
  17 -21 -17    0.14    0.28
  15 -21 -17   -0.15    0.26
  13 -21 -17   -0.07    0.24
  11 -21 -17    0.27    0.26
   9 -21 -17    0.44    0.29
   7 -21 -17   -0.03    0.19
   5 -21 -17    0.46    0.27
   3 -21 -17   -0.05    0.20
   1 -21 -17   -0.03    0.20
   1 -21 -17    0.25    0.24
  -1  21  17   -0.03    0.17
  -1 -21 -17    0.16    0.19
  -1 -21 -17    0.01    0.21
   1  21  17    0.09    0.19
  -3 -21 -17    0.05    0.23
  -3 -21 -17    0.34    0.24
   3  21  17    0.23    0.22
  -5 -21 -17    0.20    0.22
  -5 -21 -17    0.15    0.28
  -7 -21 -17    0.39    0.30
  -9 -21 -17    0.15    0.26
 -11 -21 -17   -0.17    0.23
 -13 -21 -17   -0.25    0.27
 -15 -21 -17   -0.31    0.24
 -17 -21 -17   -0.02    0.30
  19 -23 -17   -0.06    0.31
  17 -23 -17   -0.15    0.26
  15 -23 -17   -0.23    0.24
  13 -23 -17    0.34    0.28
  11 -23 -17    0.85    0.33
   9 -23 -17   -0.11    0.23
   7 -23 -17    0.23    0.23
   5 -23 -17   -0.18    0.20
   3 -23 -17    0.61    0.30
   1 -23 -17    0.08    0.23
   1 -23 -17    0.09    0.26
  -1  23  17    0.16    0.23
  -1 -23 -17    0.27    0.24
  -1 -23 -17   -0.09    0.25
   1  23  17    0.14    0.25
  -3 -23 -17    0.58    0.30
  -3 -23 -17    0.59    0.31
   3  23  17    0.46    0.24
  -5 -23 -17    0.00    0.27
  -5 -23 -17    0.23    0.23
   5  23  17   -0.14    0.21
  -7 -23 -17    0.04    0.25
  -7 -23 -17    0.01    0.28
  -9 -23 -17   -0.34    0.28
 -11 -23 -17    0.26    0.32
 -13 -23 -17    0.17    0.29
  17 -25 -17   -0.15    0.29
  15 -25 -17   -0.13    0.25
  13 -25 -17   -0.10    0.27
  11 -25 -17    0.19    0.29
   9 -25 -17    0.57    0.29
   7 -25 -17    0.36    0.27
   5 -25 -17    0.25    0.25
   3 -25 -17   -0.18    0.21
   1 -25 -17    0.42    0.29
  -1 -25 -17    0.37    0.28
  -1 -25 -17   -0.21    0.24
   1  25  17   -0.06    0.21
  -3 -25 -17   -0.03    0.25
  -3 -25 -17   -0.18    0.27
   3  25  17    0.15    0.25
  -5 -25 -17    0.29    0.30
  -5 -25 -17    0.44    0.27
   5  25  17    0.00    0.22
  -7 -25 -17    0.02    0.25
  -7 -25 -17   -0.21    0.27
   7  25  17   -0.03    0.25
  -9 -25 -17   -0.02    0.30
 -11 -25 -17    0.02    0.32
  15 -27 -17   -0.11    0.30
  13 -27 -17   -0.18    0.29
  11 -27 -17    0.04    0.29
   9 -27 -17   -0.14    0.30
   7 -27 -17   -0.14    0.23
   5 -27 -17    0.23    0.26
   3 -27 -17   -0.16    0.23
   1 -27 -17   -0.04    0.26
  -1 -27 -17   -0.24    0.22
  -1 -27 -17    0.02    0.32
   1  27  17   -0.15    0.25
  -3 -27 -17    0.14    0.26
  -3 -27 -17    0.28    0.35
   3  27  17    0.09    0.23
  -5 -27 -17   -0.09    0.33
  -5 -27 -17    0.02    0.26
   5  27  17   -0.23    0.24
  -7 -27 -17    0.12    0.35
  -7 -27 -17   -0.23    0.27
   7  27  17    0.32    0.30
  -9 -27 -17   -0.21    0.26
  11 -29 -17    0.27    0.32
   9 -29 -17    0.14    0.32
   7 -29 -17    0.07    0.29
   5 -29 -17   -0.09    0.26
   3 -29 -17    0.05    0.27
   1 -29 -17    0.22    0.32
  -1 -29 -17   -0.05    0.29
  -3 -29 -17   -0.11    0.26
   3  29  17   -0.20    0.25
  -5 -29 -17   -0.08    0.29
  -7 -29 -17    0.08    0.31
  -9 -29 -17   -0.08    0.28
 -11 -29 -17    0.31    0.34
   7 -31 -17   -0.24    0.29
   5 -31 -17   -0.39    0.29
   3 -31 -17   -0.14    0.29
   1 -31 -17   -0.07    0.29
  -1 -31 -17   -0.03    0.31
  -3 -31 -17    0.16    0.34
  -5 -31 -17    0.19    0.37
  -7 -31 -17    0.63    0.37
  -9 -31 -17    0.39    0.33
  10  28 -18    0.02    0.33
   8  28 -18   -0.26    0.37
   6  28 -18   -0.19    0.35
  14  26 -18    2.18    0.58
  12  26 -18    0.40    0.43
  10  26 -18    3.94    0.64
 -10 -26  18    4.55    0.56
   8  26 -18    0.43    0.36
  -8 -26  18    0.50    0.31
   6  26 -18    4.02    0.61
  -6 -26  18    3.02    0.50
   4  26 -18    0.02    0.30
  -4 -26  18    0.35    0.27
   2  26 -18    3.19    0.57
  -2 -26  18    2.57    0.48
   0 -26  18    1.36    0.37
   2 -26  18    3.96    0.56
   4 -26  18    0.12    0.26
  18  24 -18    0.28    0.39
  16  24 -18    0.26    0.34
  14  24 -18    0.08    0.33
  12  24 -18    0.11    0.35
  10  24 -18    0.50    0.35
 -10 -24  18    0.04    0.22
   8  24 -18    0.06    0.28
  -8 -24  18    0.33    0.23
   6  24 -18    0.67    0.37
  -6 -24  18    0.53    0.27
   4  24 -18    0.07    0.30
  -4 -24  18    0.31    0.24
   2  24 -18    0.26    0.31
  -2 -24  18    0.21    0.22
   0  24 -18    0.65    0.36
   0 -24  18    0.18    0.22
   2 -24  18   -0.20    0.22
   4 -24  18    0.12    0.22
   6 -24  18    0.34    0.29
   8 -24  18    0.70    0.30
  10 -24  18    0.13    0.26
  20  22 -18    0.29    0.38
  18  22 -18    4.11    0.64
  16  22 -18   -0.13    0.29
  14  22 -18    2.69    0.55
  12  22 -18    0.52    0.37
  10  22 -18    4.66    0.59
 -10 -22  18    5.09    0.52
   8  22 -18    0.36    0.32
  -8 -22  18    0.11    0.18
   6  22 -18    5.53    0.62
  -6 -22  18    5.59    0.55
   4  22 -18    1.52    0.40
  -4 -22  18    1.40    0.35
   2  22 -18    4.71    0.56
  -2 -22  18    4.32    0.51
   0  22 -18    0.36    0.30
   0 -22  18    0.45    0.25
  -2  22 -18    4.75    0.55
   2 -22  18    4.98    0.55
   4 -22  18    1.58    0.37
   6 -22  18    6.25    0.64
   8 -22  18    0.44    0.26
  10 -22  18    4.30    0.57
  12 -22  18    0.32    0.32
  14 -22  18    3.02    0.54
  22  20 -18    0.35    0.36
  20  20 -18    0.01    0.33
  18  20 -18   -0.13    0.27
  16  20 -18   -0.01    0.28
  14  20 -18    1.16    0.38
  12  20 -18    0.20    0.29
  10  20 -18   -0.36    0.22
   8  20 -18   -0.20    0.19
  -8 -20  18    0.06    0.17
   6  20 -18   -0.05    0.24
  -6 -20  18    0.06    0.18
   4  20 -18    0.15    0.23
  -4 -20  18    0.24    0.20
   2  20 -18    0.13    0.24
  -2 -20  18    0.09    0.18
   0  20 -18   -0.02    0.23
   0 -20  18   -0.05    0.19
  -2  20 -18    0.37    0.26
   2 -20  18   -0.06    0.16
  -4  20 -18    0.63    0.28
   4 -20  18    0.23    0.20
   6 -20  18    0.56    0.25
   8 -20  18    0.16    0.20
  10 -20  18    0.06    0.20
  12 -20  18    0.20    0.26
  14 -20  18    1.71    0.43
  16 -20  18   -0.03    0.26
  18 -20  18    0.40    0.34
  24  18 -18    0.03    0.38
  22  18 -18    2.16    0.50
  20  18 -18    0.22    0.31
  18  18 -18    5.61    0.65
  16  18 -18    0.43    0.30
  14  18 -18    9.49    0.76
  12  18 -18    0.03    0.27
  10  18 -18    5.51    0.58
   8  18 -18    0.88    0.35
  -8 -18  18    1.22    0.29
   6  18 -18    9.28    0.72
  -6 -18  18    9.14    0.63
   4  18 -18    0.38    0.28
  -4 -18  18    0.57    0.21
   2  18 -18    9.16    0.69
  -2 -18  18   10.14    0.66
   0  18 -18    0.09    0.21
   0 -18  18    0.52    0.24
  -2  18 -18   10.52    0.71
   2 -18  18   10.63    0.71
  -4  18 -18    0.44    0.26
   4 -18  18    0.54    0.26
   6 -18  18    9.84    0.70
   8 -18  18    1.17    0.31
  10 -18  18    7.83    0.67
  12 -18  18   -0.19    0.19
  14 -18  18    8.99    0.74
  16 -18  18    0.13    0.26
  18 -18  18    6.66    0.73
  20 -18  18   -0.10    0.29
  26  16 -18    0.08    0.32
  24  16 -18   -0.07    0.29
  22  16 -18    0.01    0.27
  20  16 -18    0.28    0.28
  18  16 -18    0.22    0.25
  16  16 -18    0.14    0.24
  14  16 -18    0.34    0.28
  12  16 -18    0.22    0.24
  10  16 -18    0.50    0.27
   8  16 -18    0.13    0.24
  -8 -16  18    0.27    0.18
   6  16 -18    0.08    0.22
  -6 -16  18    0.11    0.15
   4  16 -18   -0.16    0.17
  -4 -16  18    0.02    0.15
   2  16 -18    0.06    0.20
  -2 -16  18   -0.02    0.13
   0  16 -18    0.10    0.21
   0 -16  18    0.19    0.16
  -2  16 -18   -0.04    0.20
   2 -16  18    0.25    0.19
  -4  16 -18    0.05    0.18
   4 -16  18    0.00    0.16
   6 -16  18    0.09    0.17
   8 -16  18   -0.08    0.15
  10 -16  18    0.13    0.20
  12 -16  18    0.08    0.20
  14 -16  18    0.25    0.23
  16 -16  18    0.20    0.25
  18 -16  18    0.33    0.29
  20 -16  18   -0.01    0.26
  22 -16  18   -0.12    0.27
  28  14 -18   -0.14    0.32
  26  14 -18    3.78    0.63
  24  14 -18    0.10    0.32
  22  14 -18    2.94    0.53
  20  14 -18    1.10    0.38
  18  14 -18   10.30    0.82
  16  14 -18   -0.17    0.20
  14  14 -18   13.05    0.87
  12  14 -18    1.94    0.40
  10  14 -18    9.39    0.72
   8  14 -18    0.99    0.30
  -8 -14  18    1.18    0.25
   6  14 -18   13.24    0.78
  -6 -14  18   13.33    0.69
   4  14 -18    4.45    0.46
  -4 -14  18    4.41    0.42
   2  14 -18   17.29    0.85
  -2 -14  18   16.82    0.80
   0  14 -18    0.35    0.21
   0 -14  18    0.71    0.22
  -2  14 -18   16.83    0.80
   2 -14  18   16.88    0.82
  -4  14 -18    4.49    0.41
   4 -14  18    4.34    0.45
   6 -14  18   14.80    0.79
   8 -14  18    0.96    0.27
  10 -14  18   11.02    0.71
  12 -14  18    1.60    0.35
  14 -14  18   11.84    0.80
  16 -14  18    0.40    0.27
  18 -14  18    8.76    0.73
  20 -14  18    1.07    0.39
  22 -14  18    3.59    0.56
  28  12 -18   -0.24    0.30
  26  12 -18    0.02    0.31
  24  12 -18    0.18    0.30
  22  12 -18    0.42    0.32
  20  12 -18   -0.08    0.23
  18  12 -18    0.32    0.26
  16  12 -18    0.14    0.23
  14  12 -18    0.69    0.29
  12  12 -18   -0.25    0.18
  10  12 -18    0.41    0.25
   8  12 -18    0.08    0.20
  -8 -12  18    0.15    0.13
   6  12 -18   -0.02    0.18
  -6 -12  18    0.07    0.12
   4  12 -18    0.33    0.23
  -4 -12  18    0.39    0.18
   2  12 -18    1.74    0.30
  -2 -12  18    1.61    0.27
   0  12 -18    0.12    0.17
   0 -12  18    0.15    0.14
  -2  12 -18    1.69    0.29
   2 -12  18    1.62    0.28
  -4  12 -18    0.03    0.15
   4 -12  18    0.56    0.21
   6 -12  18   -0.05    0.13
   8 -12  18    0.03    0.14
  10 -12  18    0.05    0.18
  12 -12  18    0.08    0.18
  14 -12  18    1.36    0.34
  16 -12  18    0.20    0.24
  18 -12  18    0.26    0.28
  20 -12  18   -0.07    0.23
  22 -12  18    0.54    0.30
  24 -12  18    0.22    0.29
  28  10 -18    0.45    0.38
  26  10 -18    3.20    0.57
  24  10 -18   -0.04    0.28
  22  10 -18    5.00    0.62
  20  10 -18    0.38    0.26
  18  10 -18    7.57    0.68
  16  10 -18    0.43    0.25
  14  10 -18    9.70    0.71
  12  10 -18    0.46    0.26
  10  10 -18    8.42    0.65
   8  10 -18    3.26    0.42
  -8 -10  18    3.75    0.34
   6  10 -18   15.56    0.82
  -6 -10  18   15.06    0.68
   4  10 -18    1.09    0.27
  -4 -10  18    1.30    0.23
   2  10 -18   13.34    0.70
  -2 -10  18   13.70    0.65
   0  10 -18    2.23    0.31
   0 -10  18    2.31    0.30
  -2  10 -18   13.63    0.66
   2 -10  18   12.47    0.65
  -4  10 -18    1.01    0.22
   4 -10  18    1.00    0.24
   6 -10  18   13.56    0.71
   8 -10  18    3.66    0.40
  10 -10  18    8.77    0.62
  12 -10  18    0.60    0.22
  14 -10  18   10.12    0.71
  16 -10  18    0.33    0.24
  18 -10  18    8.61    0.70
  20 -10  18   -0.11    0.22
  22 -10  18    3.38    0.51
  24 -10  18    0.00    0.30
  28   8 -18    0.06    0.31
  26   8 -18    1.05    0.39
  24   8 -18    0.34    0.32
  22   8 -18    0.73    0.34
  20   8 -18    0.15    0.24
  18   8 -18    1.24    0.35
  16   8 -18    0.09    0.22
  14   8 -18    0.96    0.29
  12   8 -18    0.01    0.19
  10   8 -18    3.50    0.44
   8   8 -18    0.16    0.19
   6   8 -18    0.02    0.15
  -6  -8  18    0.34    0.14
   4   8 -18    0.14    0.17
  -4  -8  18    0.14    0.12
   2   8 -18    0.01    0.15
  -2  -8  18    0.01    0.11
   0   8 -18    0.01    0.13
   0  -8  18    0.06    0.12
  -2   8 -18    0.15    0.15
   2  -8  18    0.06    0.12
  -4   8 -18    0.10    0.14
   4  -8  18   -0.05    0.12
  -6   8 -18    0.20    0.14
   6  -8  18    0.20    0.15
   8  -8  18    0.14    0.16
  10  -8  18    3.01    0.39
  12  -8  18    0.02    0.17
  14  -8  18    0.95    0.30
  16  -8  18    0.22    0.18
  16  -8  18    0.03    0.19
  18  -8  18    0.88    0.33
  18  -8  18    1.19    0.29
  20  -8  18   -0.11    0.24
  20  -8  18    0.37    0.22
  22  -8  18    0.51    0.30
  22  -8  18    0.45    0.27
  24  -8  18    0.16    0.29
  24  -8  18    0.24    0.27
  26  -8  18    0.34    0.35
  26  -8  18    0.79    0.35
  28  -8  18    0.42    0.30
  30  -8  18    0.07    0.29
  28   6 -18   -0.12    0.29
  26   6 -18    3.11    0.52
  24   6 -18    0.97    0.37
  22   6 -18    5.55    0.63
  20   6 -18    0.19    0.25
  18   6 -18    8.66    0.70
  16   6 -18    0.05    0.19
  14   6 -18   11.93    0.76
  12   6 -18   -0.02    0.18
  10   6 -18   15.88    0.85
   8   6 -18    0.14    0.18
   6   6 -18   17.71    0.84
  -6  -6  18   18.00    0.67
   4   6 -18    0.37    0.18
  -4  -6  18    0.61    0.16
   2   6 -18   14.69    0.71
  -2  -6  18   14.62    0.63
   0   6 -18    2.12    0.29
   0  -6  18    1.94    0.26
  -2   6 -18   14.09    0.65
   2  -6  18   14.23    0.67
  -4   6 -18    0.39    0.16
   4  -6  18    0.44    0.18
  -6   6 -18   18.40    0.69
   6  -6  18   17.86    0.80
   8  -6  18   -0.03    0.13
  10  -6  18   13.50    0.73
  12  -6  18    0.02    0.14
  14  -6  18   14.31    0.81
  16  -6  18    0.17    0.20
  18  -6  18   10.46    0.74
  18  -6  18   10.37    0.67
  20  -6  18    0.34    0.23
  20  -6  18    0.20    0.25
  22  -6  18    6.59    0.62
  22  -6  18    5.99    0.62
  24  -6  18    0.45    0.32
  24  -6  18    0.14    0.25
  26  -6  18    2.81    0.49
  26  -6  18    4.71    0.62
  28  -6  18    0.04    0.27
  30  -6  18    1.98    0.51
  28   4 -18    0.08    0.32
  26   4 -18   -0.04    0.28
  24   4 -18    0.25    0.26
  22   4 -18    1.16    0.36
  20   4 -18    0.57    0.27
  18   4 -18    0.38    0.27
  16   4 -18    0.11    0.18
  14   4 -18    4.32    0.49
  12   4 -18    0.21    0.20
  10   4 -18    1.44    0.32
   8   4 -18   -0.08    0.15
   6   4 -18    0.11    0.16
   6   4 -18    0.43    0.15
  -6  -4  18    0.65    0.15
   4   4 -18    0.09    0.11
   4   4 -18   -0.05    0.12
  -4  -4  18   -0.04    0.09
   2   4 -18    2.97    0.26
   2   4 -18    2.84    0.33
  -2  -4  18    3.09    0.29
   0   4 -18   -0.05    0.09
   0   4 -18    0.09    0.15
   0  -4  18   -0.10    0.08
  -2   4 -18    2.98    0.31
   2  -4  18    3.00    0.32
  -4   4 -18    0.02    0.12
   4  -4  18   -0.05    0.11
  -6   4 -18    0.66    0.18
   6  -4  18    0.58    0.20
   8  -4  18   -0.07    0.10
  10  -4  18    1.13    0.26
  12  -4  18    0.26    0.18
  14  -4  18    4.79    0.50
  16  -4  18    0.11    0.19
  18  -4  18    0.55    0.29
  20  -4  18   -0.11    0.22
  20  -4  18    0.16    0.20
  22  -4  18    1.19    0.36
  22  -4  18    1.36    0.34
  24  -4  18    0.13    0.24
  24  -4  18    0.11    0.26
  26  -4  18    0.51    0.31
  26  -4  18   -0.03    0.30
  28  -4  18    0.05    0.25
  30  -4  18    1.14    0.43
  28   2 -18    0.23    0.31
  26   2 -18    4.61    0.60
  24   2 -18   -0.06    0.24
  22   2 -18    4.32    0.55
  20   2 -18    0.20    0.25
  20   2 -18    0.02    0.21
  18   2 -18   10.24    0.66
  18   2 -18    9.76    0.72
  16   2 -18   -0.05    0.15
  16   2 -18    0.00    0.17
  14   2 -18   16.88    0.75
  14   2 -18   16.03    0.88
  12   2 -18    1.55    0.32
  12   2 -18    1.57    0.27
  10   2 -18   14.92    0.64
  10   2 -18   11.98    0.73
   8   2 -18   -0.16    0.15
   8   2 -18   -0.07    0.12
   6   2 -18   14.96    0.76
   6   2 -18   14.68    0.61
  -6  -2  18   14.28    0.55
   4   2 -18    2.78    0.34
   4   2 -18    2.41    0.26
  -4  -2  18    2.79    0.26
   2   2 -18   22.23    0.76
   2   2 -18   21.19    0.86
  -2  -2  18   22.73    0.77
   0   2 -18    0.39    0.15
   0   2 -18    0.42    0.18
   0  -2  18    0.17    0.12
  -2   2 -18   22.69    0.84
   2  -2  18   22.23    0.82
  -4   2 -18    3.22    0.30
   4  -2  18    3.00    0.33
  -6   2 -18   14.51    0.60
   6  -2  18   15.06    0.71
   8  -2  18    0.09    0.12
  10  -2  18   12.66    0.70
  12  -2  18    1.81    0.31
  14  -2  18   16.11    0.85
  16  -2  18   -0.11    0.16
  18  -2  18   10.47    0.73
  20  -2  18   -0.01    0.21
  22  -2  18    3.96    0.53
  24  -2  18   -0.02    0.22
  24  -2  18   -0.12    0.26
 -26   2 -18    3.85    0.54
  26  -2  18    4.15    0.57
  28  -2  18    0.21    0.29
  30  -2  18    2.66    0.56
  28   0 -18   -0.20    0.28
  26   0 -18    0.87    0.36
  26   0 -18    0.86    0.42
  24   0 -18   -0.04    0.24
  24   0 -18    0.02    0.27
  22   0 -18    0.69    0.32
  22   0 -18    0.26    0.25
  20   0 -18    0.15    0.22
  20   0 -18    0.30    0.28
  18   0 -18    0.72    0.28
  18   0 -18    0.49    0.25
  16   0 -18   -0.14    0.18
  16   0 -18    0.04    0.19
  14   0 -18   -0.03    0.18
  14   0 -18    0.79    0.24
  12   0 -18    0.04    0.14
  12   0 -18   -0.10    0.16
  10   0 -18    1.98    0.32
  10   0 -18    2.43    0.30
   8   0 -18   -0.01    0.12
   6   0 -18    1.63    0.23
   4   0 -18   -0.08    0.10
  -4   0  18   -0.01    0.09
   2   0 -18    0.27    0.14
  -2   0  18    0.28    0.13
   0   0 -18    0.02    0.11
   0   0  18    0.05    0.10
   2   0  18    0.22    0.14
   4   0  18    0.06    0.12
  -6   0 -18    1.87    0.23
   6   0  18    2.23    0.30
   8   0  18    0.13    0.15
  10   0  18    1.86    0.31
  12   0  18   -0.10    0.12
  14   0  18    0.16    0.19
  16   0  18    0.10    0.21
  18   0  18    0.95    0.31
  20   0  18    0.06    0.23
 -22   0 -18    0.33    0.22
 -24   0 -18   -0.15    0.18
 -26   0 -18    0.97    0.36
  32  -2 -18    0.52    0.48
  30  -2 -18    2.43    0.58
  28  -2 -18   -0.27    0.29
  28  -2 -18   -0.19    0.28
  26  -2 -18    2.69    0.54
  26  -2 -18    4.09    0.56
  24  -2 -18    0.06    0.27
  24  -2 -18    0.24    0.28
  22  -2 -18    5.17    0.58
  22  -2 -18    4.86    0.58
  20  -2 -18    0.17    0.24
  20  -2 -18   -0.17    0.20
  18  -2 -18    9.58    0.71
  18  -2 -18   10.36    0.70
  16  -2 -18    0.23    0.21
  16  -2 -18   -0.28    0.15
  14  -2 -18   15.97    0.78
  12  -2 -18    1.99    0.31
  10  -2 -18   13.69    0.68
   8  -2 -18    0.16    0.15
   6  -2 -18   14.54    0.66
   4  -2 -18    2.24    0.28
  -4   2  18    2.96    0.26
   2  -2 -18   22.55    0.84
  -2   2  18   21.94    0.75
   0  -2 -18    0.27    0.14
   0   2  18    0.12    0.12
   2   2  18   21.81    0.81
   4   2  18    2.90    0.32
   6   2  18   13.43    0.66
   8   2  18    0.16    0.15
  10   2  18   14.56    0.75
  12   2  18    2.95    0.38
  14   2  18   17.41    0.88
 -16  -2 -18    0.14    0.18
  16   2  18    0.01    0.18
 -18  -2 -18    9.53    0.67
 -20  -2 -18   -0.11    0.16
 -22  -2 -18    3.93    0.50
 -24  -2 -18   -0.30    0.20
 -26  -2 -18    3.04    0.50
  30  -4 -18    0.45    0.40
  28  -4 -18    0.42    0.39
  28  -4 -18   -0.10    0.29
  26  -4 -18    0.23    0.28
  26  -4 -18    0.57    0.39
  24  -4 -18    0.37    0.29
  24  -4 -18    0.43    0.34
  22  -4 -18    1.88    0.43
  22  -4 -18    1.10    0.37
  20  -4 -18    0.09    0.22
  20  -4 -18    0.44    0.24
  18  -4 -18    0.38    0.28
  16  -4 -18   -0.02    0.19
  14  -4 -18    4.89    0.48
  12  -4 -18    0.33    0.20
  10  -4 -18    0.81    0.23
   8  -4 -18    0.18    0.15
   6  -4 -18    0.59    0.20
   4  -4 -18   -0.07    0.09
   4  -4 -18    0.09    0.14
   2  -4 -18    2.75    0.27
   2  -4 -18    2.62    0.31
   0  -4 -18   -0.07    0.13
   0  -4 -18   -0.07    0.11
  -2  -4 -18    3.08    0.31
  -4  -4 -18   -0.07    0.13
  -6  -4 -18    0.71    0.21
  -8  -4 -18   -0.04    0.14
 -10  -4 -18    1.51    0.28
 -12  -4 -18    0.25    0.20
 -14  -4 -18    4.25    0.46
 -16  -4 -18    0.19    0.18
 -18  -4 -18    0.37    0.21
 -20  -4 -18    0.06    0.19
 -22  -4 -18    1.65    0.37
 -24  -4 -18    0.18    0.25
 -26  -4 -18    0.18    0.27
  30  -6 -18    2.34    0.57
  28  -6 -18    0.63    0.37
  28  -6 -18    0.16    0.38
  26  -6 -18    3.43    0.58
  26  -6 -18    4.86    0.61
  24  -6 -18    0.21    0.25
  24  -6 -18    0.70    0.37
  22  -6 -18    5.72    0.61
  20  -6 -18   -0.09    0.26
  18  -6 -18    9.75    0.70
  16  -6 -18    0.01    0.22
  14  -6 -18   13.50    0.76
  12  -6 -18   -0.18    0.15
  10  -6 -18   13.81    0.73
   8  -6 -18    0.02    0.15
   6  -6 -18   20.15    0.86
   4  -6 -18    0.51    0.22
   4  -6 -18    0.61    0.16
   2  -6 -18   13.42    0.68
   2  -6 -18   14.32    0.59
   0  -6 -18    1.71    0.28
   0  -6 -18    1.43    0.22
  -2  -6 -18   13.32    0.63
  -4  -6 -18    0.28    0.18
  -6  -6 -18   17.92    0.80
  -8  -6 -18    0.13    0.16
 -10  -6 -18   14.39    0.76
 -12  -6 -18    0.07    0.20
 -14  -6 -18   13.53    0.78
 -16  -6 -18    0.22    0.18
 -18  -6 -18    9.11    0.67
 -20  -6 -18    0.08    0.23
 -22  -6 -18    6.06    0.61
 -24  -6 -18    0.18    0.26
 -26  -6 -18    4.02    0.57
  30  -8 -18    0.34    0.44
  28  -8 -18    0.41    0.35
  28  -8 -18    0.40    0.41
  26  -8 -18    1.10    0.46
  26  -8 -18    0.69    0.35
  24  -8 -18    0.32    0.31
  22  -8 -18    0.51    0.33
  20  -8 -18    0.25    0.26
  18  -8 -18    0.77    0.32
  16  -8 -18   -0.15    0.23
  14  -8 -18    1.08    0.31
  12  -8 -18    0.15    0.21
  10  -8 -18    3.54    0.43
   8  -8 -18    0.33    0.20
   6  -8 -18    0.12    0.16
   4  -8 -18    0.24    0.14
   4  -8 -18    0.14    0.16
   2  -8 -18    0.02    0.14
   2  -8 -18   -0.10    0.11
   0  -8 -18    0.15    0.15
   0  -8 -18   -0.32    0.13
  -2  -8 -18    0.10    0.14
  -4  -8 -18    0.01    0.15
  -6  -8 -18    0.26    0.19
  -8  -8 -18    0.09    0.17
 -10  -8 -18    3.48    0.41
 -12  -8 -18    0.12    0.18
 -14  -8 -18    0.91    0.29
 -16  -8 -18    0.07    0.21
 -18  -8 -18    0.50    0.26
 -20  -8 -18    0.00    0.18
 -22  -8 -18    0.72    0.32
 -24  -8 -18    0.36    0.27
  28 -10 -18   -0.04    0.39
  26 -10 -18    3.80    0.62
  24 -10 -18    0.18    0.31
  22 -10 -18    4.08    0.58
  20 -10 -18    0.13    0.28
  18 -10 -18    7.61    0.67
  16 -10 -18    0.11    0.23
  14 -10 -18    8.80    0.65
  12 -10 -18    0.42    0.24
  10 -10 -18    8.42    0.63
   8 -10 -18    2.80    0.38
   6 -10 -18   14.09    0.77
   4 -10 -18    0.70    0.24
   2 -10 -18   13.86    0.61
   2 -10 -18   13.22    0.72
   0 -10 -18    2.21    0.33
   0 -10 -18    1.82    0.27
  -2 -10 -18   14.07    0.67
  -4 -10 -18    1.36    0.27
  -6 -10 -18   13.58    0.71
  -8 -10 -18    3.19    0.40
 -10 -10 -18   10.18    0.66
 -12 -10 -18    1.17    0.32
 -14 -10 -18   11.30    0.74
 -16 -10 -18    0.80    0.31
 -18 -10 -18    7.27    0.63
 -20 -10 -18    0.04    0.21
 -22 -10 -18    4.72    0.58
 -24 -10 -18   -0.08    0.25
  28 -12 -18    0.39    0.42
  26 -12 -18    0.65    0.40
  24 -12 -18    0.09    0.28
  22 -12 -18    0.59    0.35
  20 -12 -18    0.47    0.31
  18 -12 -18   -0.10    0.25
  16 -12 -18    0.11    0.23
  14 -12 -18    2.22    0.41
  12 -12 -18    0.10    0.20
  10 -12 -18    0.49    0.26
   8 -12 -18    0.07    0.19
   6 -12 -18   -0.03    0.16
   4 -12 -18    0.23    0.21
   2 -12 -18    2.07    0.27
   2 -12 -18    1.95    0.34
   0 -12 -18   -0.05    0.16
   0 -12 -18    0.05    0.16
  -2 -12 -18    2.35    0.33
  -4 -12 -18    0.21    0.20
  -6 -12 -18   -0.11    0.16
  -8 -12 -18    0.01    0.17
 -10 -12 -18    0.41    0.24
 -12 -12 -18    0.11    0.21
 -14 -12 -18    1.84    0.37
 -16 -12 -18    0.39    0.26
 -18 -12 -18    0.00    0.20
 -20 -12 -18    0.02    0.21
 -22 -12 -18    0.74    0.35
  26 -14 -18    3.91    0.66
  24 -14 -18   -0.46    0.27
  22 -14 -18    3.51    0.58
  20 -14 -18    1.00    0.40
  18 -14 -18   10.02    0.81
  16 -14 -18    0.33    0.28
  14 -14 -18   12.59    0.82
  12 -14 -18    1.26    0.36
  10 -14 -18    9.72    0.70
   8 -14 -18    1.04    0.29
   6 -14 -18   12.12    0.76
   4 -14 -18    3.93    0.48
   2 -14 -18   16.74    0.87
   2 -14 -18   15.90    0.71
   0 -14 -18    0.26    0.22
   0 -14 -18    0.39    0.20
  -2 -14 -18   15.89    0.76
  -2 -14 -18   16.97    0.88
  -4 -14 -18    4.16    0.44
  -6 -14 -18   14.65    0.79
  -8 -14 -18    1.38    0.34
 -10 -14 -18   10.60    0.72
 -12 -14 -18    1.40    0.35
 -14 -14 -18   12.21    0.80
 -16 -14 -18   -0.08    0.23
 -18 -14 -18    9.97    0.77
 -20 -14 -18    0.65    0.30
 -22 -14 -18    3.95    0.56
  24 -16 -18   -0.03    0.35
  22 -16 -18    0.03    0.31
  20 -16 -18    0.12    0.32
  18 -16 -18    0.00    0.28
  16 -16 -18    0.01    0.24
  14 -16 -18    0.20    0.28
  12 -16 -18    0.30    0.26
  10 -16 -18   -0.02    0.19
   8 -16 -18   -0.19    0.18
   6 -16 -18   -0.10    0.17
   4 -16 -18    0.21    0.21
   2 -16 -18   -0.06    0.17
   2 -16 -18    0.03    0.18
   0 -16 -18   -0.13    0.17
   0 -16 -18   -0.02    0.17
  -2 -16 -18   -0.32    0.15
  -2 -16 -18   -0.13    0.18
  -4 -16 -18   -0.03    0.17
  -6 -16 -18    0.28    0.21
  -8 -16 -18    0.12    0.21
 -10 -16 -18    0.43    0.27
 -12 -16 -18    0.24    0.25
 -14 -16 -18    0.48    0.28
 -16 -16 -18    0.01    0.26
 -18 -16 -18    0.28    0.28
 -20 -16 -18   -0.01    0.23
  24 -18 -18    0.05    0.35
  22 -18 -18    3.03    0.59
  20 -18 -18   -0.03    0.28
  18 -18 -18    5.72    0.66
  16 -18 -18    0.36    0.28
  14 -18 -18    9.87    0.78
  12 -18 -18    0.02    0.21
  10 -18 -18    7.48    0.66
   8 -18 -18    0.87    0.31
   6 -18 -18    8.57    0.67
   4 -18 -18    0.64    0.27
   2 -18 -18   10.58    0.75
   0 -18 -18    0.79    0.27
   0 -18 -18    1.22    0.34
  -2 -18 -18    8.16    0.61
  -2 -18 -18    9.43    0.69
  -4 -18 -18    0.81    0.29
  -4 -18 -18    0.38    0.26
  -6 -18 -18    9.13    0.68
  -8 -18 -18    0.50    0.30
 -10 -18 -18    6.58    0.61
 -12 -18 -18    0.04    0.26
 -14 -18 -18    7.70    0.70
 -16 -18 -18    0.03    0.26
 -18 -18 -18    6.38    0.68
  22 -20 -18    0.51    0.36
  20 -20 -18    0.05    0.29
  18 -20 -18    0.36    0.33
  16 -20 -18    0.03    0.27
  14 -20 -18    1.65    0.41
  12 -20 -18    0.14    0.23
  10 -20 -18   -0.08    0.23
   8 -20 -18    0.04    0.21
   6 -20 -18    0.21    0.22
   4 -20 -18    0.33    0.23
   2 -20 -18    0.14    0.22
   0 -20 -18    0.14    0.21
   0 -20 -18    0.08    0.22
  -2 -20 -18    0.32    0.25
  -2 -20 -18    0.12    0.24
  -4 -20 -18   -0.13    0.24
  -4 -20 -18    0.08    0.21
  -6 -20 -18    0.21    0.26
  -8 -20 -18    0.42    0.29
 -10 -20 -18    0.49    0.30
 -12 -20 -18   -0.14    0.25
 -14 -20 -18    2.05    0.47
 -16 -20 -18    0.04    0.28
  20 -22 -18   -0.16    0.28
  18 -22 -18    3.06    0.58
  16 -22 -18    0.31    0.30
  14 -22 -18    3.14    0.52
  12 -22 -18    0.45    0.28
  10 -22 -18    3.94    0.54
   8 -22 -18    0.53    0.28
   6 -22 -18    6.65    0.65
   4 -22 -18    1.44    0.38
   2 -22 -18    4.33    0.53
   0 -22 -18    0.55    0.27
   0 -22 -18    0.17    0.25
   0  22  18    0.29    0.23
  -2 -22 -18    5.47    0.55
  -2 -22 -18    5.11    0.57
  -4 -22 -18    1.59    0.37
  -4 -22 -18    1.81    0.41
  -6 -22 -18    6.37    0.64
  -6 -22 -18    5.75    0.61
  -8 -22 -18   -0.14    0.27
 -10 -22 -18    5.11    0.60
 -12 -22 -18    0.44    0.32
 -14 -22 -18    3.67    0.58
  18 -24 -18    0.14    0.35
  16 -24 -18    0.08    0.28
  14 -24 -18   -0.24    0.27
  12 -24 -18   -0.05    0.26
  10 -24 -18   -0.14    0.23
   8 -24 -18    0.58    0.31
   6 -24 -18    0.23    0.28
   4 -24 -18    0.21    0.26
   2 -24 -18    0.38    0.28
   0 -24 -18    0.03    0.24
  -2 -24 -18    0.00    0.28
  -2 -24 -18    0.07    0.21
   2  24  18   -0.07    0.21
  -4 -24 -18    0.80    0.34
  -4 -24 -18    0.70    0.31
  -6 -24 -18    0.45    0.29
  -6 -24 -18    0.52    0.34
  -8 -24 -18    0.07    0.31
  -8 -24 -18    0.64    0.31
 -10 -24 -18    0.24    0.33
  16 -26 -18    0.48    0.38
  14 -26 -18    3.68    0.62
  12 -26 -18   -0.24    0.24
  10 -26 -18    3.75    0.58
   8 -26 -18    0.26    0.29
   6 -26 -18    3.82    0.57
   4 -26 -18    0.14    0.29
   2 -26 -18    4.36    0.58
   0 -26 -18    1.20    0.41
  -2 -26 -18    4.43    0.60
  -2 -26 -18    4.32    0.57
   2  26  18    3.56    0.52
  -4 -26 -18   -0.06    0.26
  -4 -26 -18    0.26    0.37
   4  26  18    0.18    0.24
  -6 -26 -18    3.60    0.58
  -6 -26 -18    4.25    0.58
  -8 -26 -18    0.97    0.41
  -8 -26 -18    0.48    0.34
  12 -28 -18    0.34    0.36
  10 -28 -18   -0.13    0.28
   8 -28 -18    0.05    0.30
   6 -28 -18   -0.05    0.32
   4 -28 -18    0.10    0.30
   2 -28 -18    0.44    0.30
   0 -28 -18    0.21    0.27
  -2 -28 -18    0.51    0.30
   2  28  18    0.49    0.30
  -4 -28 -18    0.16    0.37
  -4 -28 -18    0.17    0.31
   4  28  18   -0.13    0.27
  -6 -28 -18   -0.06    0.25
  -8 -28 -18    0.14    0.30
 -10 -28 -18   -0.17    0.27
 -12 -28 -18    0.20    0.31
   8 -30 -18    0.26    0.32
   6 -30 -18    1.90    0.50
   4 -30 -18    0.60    0.38
   2 -30 -18    2.52    0.53
   0 -30 -18    0.29    0.34
  -2 -30 -18    1.85    0.48
  -4 -30 -18    0.60    0.38
  -6 -30 -18    1.67    0.49
  -8 -30 -18    0.25    0.35
 -10 -30 -18    2.75    0.56
   7  29 -19   -0.42    0.35
  11  27 -19   -0.07    0.39
   9  27 -19    0.12    0.37
   7  27 -19    0.25    0.41
   5  27 -19    0.17    0.38
   3  27 -19   -0.06    0.33
  15  25 -19   -0.01    0.38
  13  25 -19   -0.11    0.34
  11  25 -19   -0.41    0.32
   9  25 -19    0.01    0.33
  -9 -25  19    0.11    0.25
   7  25 -19    0.28    0.38
  -7 -25  19    0.22    0.27
   5  25 -19    0.01    0.33
  -5 -25  19    0.05    0.26
   3  25 -19   -0.24    0.31
  -3 -25  19   -0.01    0.23
   1  25 -19    0.03    0.32
  -1 -25  19    0.14    0.26
   1 -25  19    0.10    0.23
   3 -25  19    0.09    0.26
   5 -25  19    0.39    0.28
  17  23 -19    0.18    0.36
  15  23 -19    0.21    0.30
  13  23 -19   -0.18    0.31
  11  23 -19    0.03    0.31
   9  23 -19   -0.37    0.28
  -9 -23  19   -0.19    0.21
   7  23 -19   -0.06    0.29
  -7 -23  19   -0.09    0.20
   5  23 -19    0.00    0.26
  -5 -23  19    0.34    0.26
   3  23 -19    0.20    0.32
  -3 -23  19    0.30    0.21
   1  23 -19    0.57    0.34
  -1 -23  19    0.18    0.27
  -1  23 -19    0.00    0.26
   1 -23  19    0.78    0.29
  -3  23 -19   -0.06    0.28
   3 -23  19   -0.07    0.21
   5 -23  19   -0.13    0.22
   7 -23  19   -0.12    0.19
   9 -23  19    0.13    0.22
  11 -23  19   -0.08    0.27
  21  21 -19   -0.17    0.32
  19  21 -19    0.05    0.34
  17  21 -19   -0.20    0.30
  15  21 -19    0.10    0.30
  13  21 -19    0.29    0.33
  11  21 -19   -0.12    0.27
   9  21 -19    0.08    0.29
  -9 -21  19    0.09    0.22
   7  21 -19   -0.14    0.26
  -7 -21  19    0.41    0.24
   5  21 -19    0.08    0.26
  -5 -21  19    0.11    0.20
   3  21 -19    0.05    0.29
  -3 -21  19    0.23    0.23
   1  21 -19   -0.16    0.24
  -1 -21  19    0.04    0.21
  -1  21 -19   -0.06    0.26
   1 -21  19    0.08    0.20
  -3  21 -19    0.20    0.28
   3 -21  19    0.02    0.21
   5 -21  19    0.09    0.20
   7 -21  19    0.65    0.30
   9 -21  19    0.19    0.23
  11 -21  19   -0.05    0.26
  13 -21  19    0.09    0.28
  15 -21  19    0.02    0.29
  23  19 -19    0.06    0.33
  21  19 -19   -0.14    0.31
  19  19 -19    0.03    0.30
  17  19 -19   -0.03    0.28
  15  19 -19   -0.39    0.23
  13  19 -19   -0.23    0.25
  11  19 -19    0.09    0.28
   9  19 -19    0.00    0.28
   7  19 -19    0.19    0.28
  -7 -19  19    0.17    0.17
   5  19 -19   -0.29    0.21
  -5 -19  19    0.03    0.17
   3  19 -19   -0.16    0.20
  -3 -19  19   -0.08    0.16
   1  19 -19   -0.19    0.23
  -1 -19  19   -0.03    0.15
  -1  19 -19   -0.01    0.23
   1 -19  19    0.14    0.22
  -3  19 -19   -0.24    0.20
   3 -19  19   -0.13    0.16
   5 -19  19    0.09    0.19
   7 -19  19    0.06    0.19
   9 -19  19    0.01    0.17
  11 -19  19   -0.06    0.22
  13 -19  19   -0.19    0.24
  15 -19  19   -0.05    0.26
  17 -19  19   -0.16    0.26
  25  17 -19   -0.12    0.33
  23  17 -19   -0.21    0.33
  21  17 -19    0.11    0.31
  19  17 -19   -0.18    0.28
  17  17 -19   -0.31    0.22
  15  17 -19   -0.37    0.22
  13  17 -19   -0.11    0.23
  11  17 -19   -0.37    0.21
   9  17 -19    0.61    0.30
   7  17 -19    0.55    0.30
  -7 -17  19    0.48    0.21
   5  17 -19    0.09    0.25
  -5 -17  19    0.29    0.22
   3  17 -19    0.03    0.23
  -3 -17  19    0.10    0.17
   1  17 -19   -0.10    0.22
  -1 -17  19   -0.06    0.16
  -1  17 -19   -0.09    0.22
   1 -17  19   -0.08    0.15
  -3  17 -19   -0.25    0.20
   3 -17  19   -0.17    0.16
   5 -17  19    0.40    0.23
   7 -17  19    0.47    0.26
   9 -17  19    0.62    0.26
  11 -17  19   -0.27    0.17
  13 -17  19   -0.02    0.23
  15 -17  19   -0.25    0.23
  17 -17  19   -0.27    0.22
  19 -17  19    0.07    0.31
  25  15 -19   -0.36    0.29
  23  15 -19   -0.28    0.29
  21  15 -19    0.02    0.28
  19  15 -19    0.47    0.31
  17  15 -19    0.06    0.26
  15  15 -19   -0.01    0.21
  13  15 -19    0.11    0.24
  11  15 -19    0.27    0.27
   9  15 -19   -0.18    0.19
   7  15 -19   -0.17    0.20
  -7 -15  19    0.18    0.17
   5  15 -19    0.40    0.24
  -5 -15  19    0.80    0.23
   3  15 -19    0.01    0.21
  -3 -15  19   -0.01    0.14
   1  15 -19    0.15    0.20
  -1 -15  19    0.01    0.15
  -1  15 -19    0.06    0.21
   1 -15  19   -0.02    0.15
  -3  15 -19    0.04    0.18
   3 -15  19    0.17    0.17
   5 -15  19    0.80    0.25
   7 -15  19    0.12    0.17
   9 -15  19   -0.01    0.17
  11 -15  19    0.66    0.27
  13 -15  19    0.05    0.23
  15 -15  19   -0.04    0.23
  17 -15  19    0.06    0.26
  19 -15  19    0.10    0.26
  21 -15  19   -0.19    0.26
  27  13 -19   -0.24    0.35
  25  13 -19    0.17    0.35
  23  13 -19    0.14    0.33
  21  13 -19    0.00    0.28
  19  13 -19   -0.12    0.23
  17  13 -19    0.34    0.25
  15  13 -19    0.15    0.25
  13  13 -19    0.07    0.22
  11  13 -19    0.14    0.23
   9  13 -19   -0.31    0.18
   7  13 -19    0.56    0.27
  -7 -13  19    0.63    0.21
   5  13 -19    0.13    0.18
  -5 -13  19    0.05    0.14
   3  13 -19    0.19    0.23
  -3 -13  19    0.11    0.16
   1  13 -19   -0.21    0.18
  -1 -13  19   -0.04    0.14
  -1  13 -19   -0.08    0.17
   1 -13  19   -0.09    0.13
  -3  13 -19   -0.05    0.16
   3 -13  19   -0.18    0.14
  -5  13 -19    0.00    0.16
   5 -13  19    0.03    0.17
   7 -13  19    0.45    0.22
   9 -13  19   -0.18    0.14
  11 -13  19   -0.14    0.16
  13 -13  19   -0.10    0.22
  15 -13  19    0.40    0.28
  17 -13  19   -0.02    0.25
  19 -13  19    0.05    0.25
  21 -13  19   -0.09    0.25
  23 -13  19   -0.19    0.29
  29  11 -19    0.14    0.37
  27  11 -19   -0.01    0.32
  25  11 -19    0.18    0.31
  23  11 -19   -0.06    0.25
  21  11 -19    0.59    0.34
  19  11 -19    0.12    0.26
  17  11 -19    0.29    0.25
  15  11 -19   -0.29    0.18
  13  11 -19   -0.04    0.19
  11  11 -19   -0.15    0.18
   9  11 -19    0.56    0.28
   7  11 -19   -0.31    0.18
  -7 -11  19    0.30    0.15
   5  11 -19   -0.10    0.18
  -5 -11  19    0.12    0.13
   3  11 -19    0.26    0.23
  -3 -11  19    0.52    0.19
   1  11 -19    1.19    0.27
  -1 -11  19    1.90    0.29
  -1  11 -19    1.78    0.31
   1 -11  19    1.36    0.26
  -3  11 -19    0.70    0.22
   3 -11  19   -0.08    0.14
  -5  11 -19   -0.06    0.15
   5 -11  19   -0.11    0.12
   7 -11  19   -0.01    0.13
   9 -11  19    0.34    0.20
  11 -11  19   -0.15    0.15
  13 -11  19    0.02    0.20
  15 -11  19    0.27    0.24
  17 -11  19    0.03    0.25
  19 -11  19    0.11    0.25
  21 -11  19    0.14    0.30
  23 -11  19   -0.10    0.26
  29   9 -19   -0.14    0.31
  27   9 -19    0.15    0.34
  25   9 -19    0.27    0.31
  23   9 -19   -0.20    0.25
  21   9 -19    0.21    0.27
  19   9 -19   -0.19    0.20
  17   9 -19    0.40    0.27
  15   9 -19    0.00    0.19
  13   9 -19   -0.13    0.15
  11   9 -19    0.26    0.24
   9   9 -19    0.11    0.19
   7   9 -19    0.40    0.25
  -7  -9  19    0.71    0.19
   5   9 -19    0.51    0.23
  -5  -9  19    0.61    0.18
   3   9 -19    0.18    0.20
  -3  -9  19    0.08    0.13
   1   9 -19    0.69    0.22
  -1  -9  19    0.23    0.15
  -1   9 -19    0.42    0.20
   1  -9  19    0.56    0.19
  -3   9 -19    0.47    0.19
   3  -9  19    0.14    0.16
  -5   9 -19    0.38    0.18
   5  -9  19    0.36    0.18
   7  -9  19    0.55    0.22
   9  -9  19   -0.15    0.14
  11  -9  19    0.74    0.26
  13  -9  19    0.06    0.17
  15  -9  19   -0.13    0.20
  17  -9  19    0.23    0.25
  19  -9  19   -0.07    0.22
  21  -9  19    0.66    0.33
  23  -9  19    0.03    0.27
  25  -9  19   -0.01    0.31
  29   7 -19    0.21    0.36
  27   7 -19   -0.31    0.26
  25   7 -19   -0.02    0.27
  23   7 -19    0.05    0.28
  21   7 -19    0.04    0.22
  19   7 -19    0.02    0.23
  17   7 -19    0.57    0.28
  15   7 -19   -0.20    0.19
  13   7 -19    0.07    0.18
  11   7 -19   -0.06    0.18
   9   7 -19    0.36    0.23
   7   7 -19   -0.01    0.19
   5   7 -19    0.26    0.21
  -5  -7  19    0.17    0.12
   3   7 -19    0.46    0.21
  -3  -7  19    0.57    0.18
   1   7 -19    0.87    0.23
  -1  -7  19    0.85    0.20
  -1   7 -19    0.35    0.18
   1  -7  19    1.32    0.24
  -3   7 -19    0.31    0.17
   3  -7  19    0.33    0.18
  -5   7 -19   -0.06    0.13
   5  -7  19   -0.13    0.11
   7  -7  19    0.09    0.14
   9  -7  19    0.92    0.24
  11  -7  19    0.16    0.18
  13  -7  19    0.27    0.20
  15  -7  19   -0.07    0.18
  17  -7  19    0.75    0.29
  19  -7  19   -0.08    0.20
  21  -7  19    0.57    0.31
  21  -7  19   -0.02    0.22
  23  -7  19    0.06    0.23
  23  -7  19   -0.01    0.26
  25  -7  19    0.17    0.31
  25  -7  19   -0.12    0.23
  27  -7  19    0.02    0.28
  29  -7  19   -0.10    0.30
  29   5 -19    0.21    0.34
  27   5 -19   -0.31    0.27
  25   5 -19   -0.08    0.23
  23   5 -19    0.02    0.25
  21   5 -19   -0.03    0.24
  19   5 -19   -0.04    0.21
  17   5 -19    0.06    0.19
  15   5 -19    0.32    0.22
  13   5 -19    0.00    0.17
  11   5 -19    0.04    0.18
   9   5 -19    0.96    0.28
   7   5 -19    0.10    0.18
   5   5 -19    0.31    0.18
  -5  -5  19   -0.02    0.10
   3   5 -19    0.55    0.22
  -3  -5  19    0.43    0.16
   1   5 -19   -0.06    0.13
  -1  -5  19    0.01    0.11
  -1   5 -19   -0.14    0.12
   1  -5  19    0.08    0.12
  -3   5 -19    0.29    0.16
   3  -5  19    1.08    0.23
  -5   5 -19    0.04    0.13
   5  -5  19    0.06    0.13
   7  -5  19    0.01    0.12
   9  -5  19    0.24    0.18
  11  -5  19   -0.09    0.13
  13  -5  19    0.03    0.16
  15  -5  19    0.54    0.26
  17  -5  19    0.36    0.25
  19  -5  19   -0.28    0.16
  21  -5  19   -0.01    0.22
  23  -5  19    0.38    0.23
  23  -5  19   -0.12    0.23
  25  -5  19    0.18    0.24
  25  -5  19   -0.06    0.27
  27  -5  19   -0.44    0.24
  29  -5  19    0.18    0.32
  29   3 -19   -0.09    0.32
  27   3 -19    0.17    0.32
  25   3 -19    0.09    0.25
  23   3 -19    0.04    0.25
  21   3 -19    0.18    0.25
  19   3 -19   -0.06    0.20
  17   3 -19   -0.05    0.20
  15   3 -19    0.01    0.18
  13   3 -19   -0.06    0.15
  11   3 -19    0.53    0.23
   9   3 -19    0.14    0.15
   9   3 -19    0.00    0.18
   7   3 -19    0.43    0.21
   7   3 -19    0.56    0.18
   5   3 -19    0.67    0.23
   5   3 -19    0.53    0.16
  -5  -3  19    0.60    0.15
   3   3 -19    0.09    0.16
   3   3 -19    0.05    0.12
  -3  -3  19   -0.06    0.09
   1   3 -19    1.31    0.25
   1   3 -19    1.99    0.24
  -1  -3  19    1.20    0.22
  -1   3 -19    1.96    0.28
   1  -3  19    1.09    0.22
  -3   3 -19    0.12    0.14
   3  -3  19   -0.11    0.11
  -5   3 -19    0.51    0.18
   5  -3  19    0.47    0.18
   7  -3  19    0.34    0.18
   9  -3  19    0.48    0.20
  11  -3  19    0.46    0.22
  13  -3  19   -0.01    0.16
  15  -3  19   -0.09    0.17
  17  -3  19    0.21    0.23
  19  -3  19   -0.20    0.17
  21  -3  19    0.16    0.27
  23  -3  19   -0.11    0.25
  25  -3  19   -0.15    0.27
  29   1 -19   -0.39    0.29
  27   1 -19   -0.08    0.28
  25   1 -19    0.40    0.31
  23   1 -19    0.20    0.25
  21   1 -19    0.03    0.26
  21   1 -19   -0.03    0.22
  19   1 -19    0.20    0.21
  19   1 -19    0.15    0.23
  17   1 -19    0.02    0.21
  17   1 -19    0.05    0.20
  15   1 -19    0.13    0.20
  15   1 -19    0.14    0.18
  13   1 -19   -0.17    0.16
  13   1 -19   -0.06    0.15
  11   1 -19    2.03    0.29
  11   1 -19    1.77    0.34
   9   1 -19    0.44    0.18
   9   1 -19    0.57    0.25
   7   1 -19    0.71    0.19
   7   1 -19    0.77    0.25
   5   1 -19   -0.13    0.11
   5   1 -19   -0.06    0.13
  -5  -1  19   -0.04    0.09
   3   1 -19    1.47    0.28
   3   1 -19    1.71    0.24
  -3  -1  19    1.66    0.23
   1   1 -19   -0.04    0.11
   1   1 -19    0.05    0.12
  -1  -1  19   -0.02    0.10
  -1   1 -19    0.03    0.13
   1  -1  19   -0.10    0.09
  -3   1 -19    1.43    0.24
   3  -1  19    1.64    0.26
  -5   1 -19    0.09    0.13
   5  -1  19    0.07    0.14
   7  -1  19    0.55    0.21
   9  -1  19    0.33    0.19
  11  -1  19    2.24    0.35
  13  -1  19   -0.09    0.13
  15  -1  19    0.08    0.18
  17  -1  19    0.09    0.20
  19  -1  19    0.03    0.21
  21  -1  19    0.01    0.22
 -23   1 -19   -0.01    0.18
  23  -1  19    0.00    0.25
 -25   1 -19   -0.06    0.23
  29  -1 -19   -0.07    0.32
  27  -1 -19   -0.14    0.27
  27  -1 -19   -0.23    0.32
  25  -1 -19   -0.13    0.24
  25  -1 -19    0.27    0.35
  23  -1 -19    0.37    0.29
  23  -1 -19    0.14    0.29
  21  -1 -19   -0.03    0.24
  21  -1 -19    0.03    0.23
  19  -1 -19    0.01    0.24
  19  -1 -19    0.14    0.22
  17  -1 -19   -0.11    0.20
  17  -1 -19   -0.07    0.18
  15  -1 -19    0.11    0.19
  15  -1 -19    0.10    0.18
  13  -1 -19   -0.07    0.15
  13  -1 -19    0.00    0.16
  11  -1 -19    0.96    0.24
   9  -1 -19    0.83    0.22
   7  -1 -19    0.47    0.18
   5  -1 -19    0.05    0.13
   3  -1 -19    1.96    0.27
  -3   1  19    2.03    0.24
   1  -1 -19    0.07    0.13
  -1   1  19   -0.09    0.09
   1   1  19    0.04    0.11
   3   1  19    1.93    0.27
   5   1  19    0.15    0.14
   7   1  19    0.81    0.24
   9   1  19    0.36    0.19
  11   1  19    1.17    0.27
  13   1  19    0.19    0.16
  15   1  19   -0.03    0.15
  17   1  19   -0.06    0.17
 -19  -1 -19   -0.03    0.17
  19   1  19   -0.12    0.20
 -21  -1 -19    0.16    0.18
 -23  -1 -19   -0.03    0.19
 -25  -1 -19    0.07    0.22
  31  -3 -19    0.07    0.44
  29  -3 -19    0.19    0.36
  29  -3 -19   -0.41    0.36
  27  -3 -19    0.04    0.31
  27  -3 -19    0.26    0.29
  25  -3 -19   -0.24    0.30
  25  -3 -19   -0.14    0.25
  23  -3 -19    0.04    0.30
  23  -3 -19    0.28    0.27
  21  -3 -19    0.02    0.28
  21  -3 -19    0.23    0.27
  19  -3 -19   -0.17    0.18
  19  -3 -19   -0.07    0.19
  17  -3 -19   -0.29    0.19
  17  -3 -19    0.07    0.17
  15  -3 -19   -0.09    0.17
  13  -3 -19    0.04    0.19
  11  -3 -19    0.25    0.19
   9  -3 -19    0.25    0.19
   7  -3 -19    0.55    0.20
   5  -3 -19    1.30    0.24
   3  -3 -19    0.14    0.16
   3  -3 -19    0.28    0.13
   1  -3 -19    1.44    0.25
  -1   3  19    1.85    0.24
   1   3  19    1.68    0.24
   3   3  19    0.16    0.14
   5   3  19    0.66    0.21
   7   3  19    0.53    0.19
   9   3  19   -0.14    0.12
 -11  -3 -19    0.24    0.18
  11   3  19    0.23    0.18
 -13  -3 -19   -0.02    0.16
  13   3  19    0.04    0.13
 -15  -3 -19    0.01    0.17
 -17  -3 -19    0.18    0.20
 -19  -3 -19   -0.05    0.16
 -21  -3 -19    0.02    0.20
 -23  -3 -19    0.02    0.21
 -25  -3 -19    0.01    0.23
  29  -5 -19   -0.04    0.31
  29  -5 -19   -0.36    0.34
  27  -5 -19   -0.34    0.31
  27  -5 -19   -0.13    0.28
  25  -5 -19   -0.16    0.31
  25  -5 -19    0.02    0.28
  23  -5 -19   -0.19    0.23
  23  -5 -19   -0.29    0.25
  21  -5 -19   -0.04    0.25
  21  -5 -19    0.25    0.24
  19  -5 -19   -0.36    0.18
  17  -5 -19    0.33    0.28
  15  -5 -19    0.65    0.28
  13  -5 -19   -0.02    0.18
  11  -5 -19   -0.25    0.12
   9  -5 -19    0.45    0.21
   7  -5 -19    0.10    0.14
   5  -5 -19   -0.15    0.11
   3  -5 -19    0.70    0.22
   3  -5 -19    0.70    0.17
   1  -5 -19    0.06    0.14
   1  -5 -19    0.23    0.14
  -1  -5 -19    0.00    0.12
  -3  -5 -19    0.54    0.20
  -5  -5 -19    0.01    0.16
  -7  -5 -19    0.08    0.15
  -9  -5 -19    0.48    0.24
 -11  -5 -19    0.04    0.19
 -13  -5 -19    0.25    0.21
 -15  -5 -19    0.56    0.26
 -17  -5 -19    0.07    0.19
 -19  -5 -19    0.47    0.25
 -21  -5 -19   -0.07    0.21
 -23  -5 -19   -0.02    0.24
 -25  -5 -19    0.28    0.27
  29  -7 -19   -0.01    0.42
  27  -7 -19   -0.01    0.26
  27  -7 -19   -0.22    0.34
  25  -7 -19    0.51    0.31
  25  -7 -19    0.22    0.36
  23  -7 -19   -0.01    0.28
  21  -7 -19    0.19    0.29
  19  -7 -19   -0.33    0.21
  17  -7 -19    0.42    0.30
  15  -7 -19    0.00    0.21
  13  -7 -19    0.06    0.20
  11  -7 -19    0.27    0.23
   9  -7 -19    0.64    0.25
   7  -7 -19   -0.02    0.15
   5  -7 -19   -0.15    0.13
   3  -7 -19    0.74    0.23
   3  -7 -19    0.77    0.19
   1  -7 -19    0.89    0.23
   1  -7 -19    0.97    0.21
  -1  -7 -19    0.84    0.21
  -3  -7 -19    0.94    0.23
  -5  -7 -19   -0.11    0.15
  -7  -7 -19   -0.03    0.15
  -9  -7 -19    0.80    0.25
 -11  -7 -19   -0.07    0.16
 -13  -7 -19    0.21    0.20
 -15  -7 -19   -0.12    0.18
 -17  -7 -19    0.21    0.21
 -19  -7 -19    0.22    0.23
 -21  -7 -19    0.37    0.26
 -23  -7 -19   -0.36    0.21
 -25  -7 -19   -0.44    0.23
  29  -9 -19   -0.07    0.38
  27  -9 -19   -0.06    0.38
  27  -9 -19    0.20    0.30
  25  -9 -19   -0.19    0.32
  23  -9 -19    0.23    0.32
  21  -9 -19   -0.39    0.23
  19  -9 -19   -0.09    0.26
  17  -9 -19    0.34    0.28
  15  -9 -19   -0.29    0.19
  13  -9 -19    0.03    0.22
  11  -9 -19    0.15    0.21
   9  -9 -19   -0.03    0.18
   7  -9 -19    0.60    0.24
   5  -9 -19    0.43    0.22
   3  -9 -19    0.04    0.12
   3  -9 -19   -0.02    0.16
   1  -9 -19    0.32    0.21
   1  -9 -19    0.56    0.20
  -1  -9 -19    0.61    0.21
  -1  -9 -19    0.66    0.25
  -3  -9 -19   -0.10    0.16
  -5  -9 -19    0.43    0.20
  -7  -9 -19    0.81    0.25
  -9  -9 -19   -0.09    0.16
 -11  -9 -19    0.28    0.21
 -13  -9 -19    0.33    0.24
 -15  -9 -19   -0.09    0.19
 -17  -9 -19    0.80    0.33
 -19  -9 -19    0.06    0.20
 -21  -9 -19    0.58    0.27
 -23  -9 -19    0.18    0.26
  27 -11 -19    0.01    0.35
  25 -11 -19   -0.13    0.36
  23 -11 -19    0.16    0.30
  21 -11 -19   -0.10    0.29
  19 -11 -19   -0.28    0.23
  17 -11 -19   -0.12    0.25
  15 -11 -19    0.31    0.27
  13 -11 -19    0.10    0.22
  11 -11 -19    0.04    0.21
   9 -11 -19    0.11    0.22
   7 -11 -19   -0.22    0.16
   5 -11 -19   -0.06    0.17
   3 -11 -19   -0.02    0.18
   1 -11 -19    1.95    0.29
   1 -11 -19    1.63    0.33
  -1 -11 -19    1.56    0.28
  -1 -11 -19    1.83    0.34
  -3 -11 -19    0.24    0.19
  -5 -11 -19    0.02    0.16
  -7 -11 -19    0.11    0.20
  -9 -11 -19    0.29    0.21
 -11 -11 -19    0.06    0.20
 -13 -11 -19    0.15    0.20
 -15 -11 -19    0.08    0.23
 -17 -11 -19   -0.04    0.21
 -19 -11 -19    0.27    0.26
 -21 -11 -19    0.12    0.24
 -23 -11 -19    0.06    0.22
  27 -13 -19   -0.39    0.37
  25 -13 -19    0.20    0.38
  23 -13 -19   -0.04    0.31
  21 -13 -19   -0.01    0.30
  19 -13 -19   -0.22    0.23
  17 -13 -19   -0.03    0.24
  15 -13 -19   -0.13    0.22
  13 -13 -19   -0.14    0.21
  11 -13 -19   -0.12    0.20
   9 -13 -19    0.12    0.23
   7 -13 -19   -0.02    0.19
   5 -13 -19    0.16    0.21
   3 -13 -19    0.01    0.18
   1 -13 -19    0.04    0.19
   1 -13 -19   -0.26    0.15
  -1 -13 -19   -0.24    0.15
  -1 -13 -19    0.07    0.18
  -3 -13 -19    0.20    0.19
  -5 -13 -19    0.02    0.17
  -7 -13 -19    0.45    0.25
  -9 -13 -19   -0.01    0.21
 -11 -13 -19   -0.12    0.18
 -13 -13 -19   -0.09    0.22
 -15 -13 -19    0.18    0.29
 -17 -13 -19    0.01    0.23
 -19 -13 -19   -0.09    0.19
 -21 -13 -19    0.06    0.25
  25 -15 -19   -0.26    0.31
  23 -15 -19    0.27    0.39
  21 -15 -19   -0.26    0.27
  19 -15 -19   -0.08    0.27
  17 -15 -19   -0.17    0.25
  15 -15 -19    0.10    0.25
  13 -15 -19   -0.04    0.25
  11 -15 -19    0.26    0.26
   9 -15 -19   -0.11    0.20
   7 -15 -19   -0.07    0.21
   5 -15 -19    1.33    0.34
   3 -15 -19   -0.05    0.17
   1 -15 -19   -0.10    0.18
   1 -15 -19    0.01    0.20
  -1 -15 -19    0.21    0.20
  -1 -15 -19    0.15    0.20
  -3 -15 -19    0.05    0.19
  -3 -15 -19    0.10    0.19
  -5 -15 -19    0.31    0.23
  -7 -15 -19    0.16    0.23
  -9 -15 -19   -0.10    0.20
 -11 -15 -19    0.47    0.29
 -13 -15 -19    0.06    0.22
 -15 -15 -19   -0.28    0.23
 -17 -15 -19   -0.15    0.24
 -19 -15 -19   -0.25    0.18
  23 -17 -19    0.36    0.42
  21 -17 -19   -0.10    0.29
  19 -17 -19    0.03    0.31
  17 -17 -19    0.30    0.32
  15 -17 -19   -0.01    0.25
  13 -17 -19   -0.11    0.26
  11 -17 -19    0.04    0.23
   9 -17 -19    0.44    0.27
   7 -17 -19    0.79    0.32
   5 -17 -19    0.34    0.23
   3 -17 -19    0.06    0.16
   1 -17 -19    0.07    0.17
   1 -17 -19   -0.15    0.19
  -1 -17 -19   -0.12    0.18
  -1 -17 -19   -0.10    0.16
  -3 -17 -19   -0.24    0.21
  -3 -17 -19    0.07    0.20
  -5 -17 -19    0.81    0.30
  -7 -17 -19    0.98    0.31
  -9 -17 -19    0.35    0.28
 -11 -17 -19   -0.20    0.19
 -13 -17 -19   -0.02    0.25
 -15 -17 -19    0.03    0.25
 -17 -17 -19    0.07    0.28
 -19 -17 -19   -0.04    0.27
  21 -19 -19   -0.23    0.36
  19 -19 -19   -0.30    0.26
  17 -19 -19   -0.43    0.21
  15 -19 -19   -0.08    0.27
  13 -19 -19   -0.27    0.19
  11 -19 -19   -0.21    0.22
   9 -19 -19   -0.16    0.18
   7 -19 -19   -0.21    0.17
   5 -19 -19    0.04    0.22
   3 -19 -19   -0.13    0.18
   1 -19 -19    0.07    0.18
  -1 -19 -19    0.09    0.19
  -1 -19 -19    0.04    0.23
  -3 -19 -19   -0.25    0.18
  -3 -19 -19   -0.07    0.19
  -5 -19 -19    0.02    0.22
  -5 -19 -19    0.00    0.19
  -7 -19 -19   -0.01    0.25
  -9 -19 -19    0.01    0.25
 -11 -19 -19   -0.05    0.27
 -13 -19 -19    0.06    0.26
 -15 -19 -19   -0.21    0.25
 -17 -19 -19   -0.38    0.27
  21 -21 -19    0.33    0.35
  19 -21 -19    0.32    0.34
  17 -21 -19   -0.09    0.28
  15 -21 -19    0.28    0.27
  13 -21 -19    0.02    0.22
  11 -21 -19    0.11    0.23
   9 -21 -19    0.06    0.23
   7 -21 -19    0.36    0.27
   5 -21 -19   -0.03    0.21
   3 -21 -19    0.06    0.23
   1 -21 -19    0.11    0.23
  -1 -21 -19    0.01    0.23
  -1 -21 -19   -0.07    0.23
  -3 -21 -19    0.33    0.26
  -3 -21 -19    0.18    0.27
  -5 -21 -19    0.07    0.21
  -5 -21 -19   -0.08    0.26
  -7 -21 -19    0.27    0.29
  -9 -21 -19    0.63    0.32
 -11 -21 -19    0.14    0.34
 -13 -21 -19    0.14    0.30
 -15 -21 -19   -0.09    0.30
  17 -23 -19    0.10    0.34
  15 -23 -19   -0.15    0.27
  13 -23 -19   -0.05    0.27
  11 -23 -19   -0.05    0.26
   9 -23 -19    0.19    0.28
   7 -23 -19   -0.07    0.24
   5 -23 -19    0.09    0.24
   3 -23 -19   -0.06    0.21
   1 -23 -19    0.26    0.25
  -1 -23 -19    0.25    0.29
  -1 -23 -19    0.06    0.27
  -3 -23 -19   -0.16    0.22
  -3 -23 -19   -0.21    0.21
  -5 -23 -19   -0.03    0.23
  -5 -23 -19   -0.25    0.25
  -7 -23 -19   -0.04    0.26
  -7 -23 -19    0.15    0.24
  -9 -23 -19   -0.17    0.26
 -11 -23 -19    0.15    0.32
  15 -25 -19    0.28    0.36
  13 -25 -19    0.35    0.32
  11 -25 -19    0.07    0.26
   9 -25 -19   -0.04    0.23
   7 -25 -19    0.14    0.30
   5 -25 -19    0.15    0.27
   3 -25 -19    0.14    0.25
   1 -25 -19    0.12    0.28
  -1 -25 -19   -0.14    0.25
  -3 -25 -19   -0.50    0.28
  -3 -25 -19    0.15    0.27
  -5 -25 -19   -0.01    0.28
  -5 -25 -19   -0.08    0.29
  -7 -25 -19   -0.53    0.28
  -7 -25 -19    0.22    0.28
  -9 -25 -19    0.01    0.26
  -9 -25 -19   -0.26    0.29
  13 -27 -19    0.34    0.32
  11 -27 -19   -0.04    0.28
   9 -27 -19   -0.05    0.31
   7 -27 -19   -0.08    0.29
   5 -27 -19    0.05    0.27
   3 -27 -19    0.00    0.28
   1 -27 -19    0.14    0.32
  -1 -27 -19    0.03    0.31
  -3 -27 -19   -0.05    0.33
  -3 -27 -19    0.30    0.32
  -5 -27 -19   -0.48    0.33
  -5 -27 -19    0.10    0.30
  -7 -27 -19   -0.14    0.26
  -9 -27 -19    0.23    0.31
 -11 -27 -19    0.16    0.32
   7 -29 -19   -0.11    0.31
   5 -29 -19   -0.25    0.32
   3 -29 -19    0.08    0.32
   1 -29 -19   -0.03    0.30
  -1 -29 -19    0.22    0.30
  -3 -29 -19    0.13    0.33
  -5 -29 -19    0.02    0.31
  -7 -29 -19   -0.09    0.34
  -9 -29 -19    0.07    0.34
   8  28 -20   12.91    1.06
   6  28 -20    1.34    0.52
   4  28 -20   12.08    1.00
  12  26 -20   -0.11    0.36
  10  26 -20    0.06    0.39
   8  26 -20   -0.08    0.37
   6  26 -20    0.43    0.41
   4  26 -20   -0.07    0.33
   2  26 -20   -0.04    0.31
  16  24 -20   10.73    0.98
  14  24 -20    0.81    0.44
  12  24 -20   16.96    1.15
  10  24 -20    0.75    0.42
   8  24 -20   20.05    1.22
  -8 -24  20   18.83    1.04
   6  24 -20    0.65    0.38
  -6 -24  20    1.03    0.34
   4  24 -20   23.98    1.26
  -4 -24  20   27.01    1.25
   2  24 -20    0.80    0.39
  -2 -24  20    1.23    0.36
   0  24 -20   20.59    1.13
   0 -24  20   18.85    1.08
  -2  24 -20    1.16    0.42
   2 -24  20    1.09    0.36
   4 -24  20   24.62    1.28
   6 -24  20    0.99    0.34
  18  22 -20    0.65    0.38
  16  22 -20   -0.09    0.31
  14  22 -20   -0.36    0.32
  12  22 -20   -0.03    0.34
  10  22 -20    0.18    0.31
   8  22 -20    0.33    0.34
  -8 -22  20    0.10    0.23
   6  22 -20    0.49    0.35
  -6 -22  20   -0.07    0.18
   4  22 -20    0.55    0.35
  -4 -22  20    0.21    0.23
   2  22 -20    0.31    0.28
  -2 -22  20    0.01    0.21
   0  22 -20   -0.16    0.28
   0 -22  20    0.11    0.24
  -2  22 -20   -0.07    0.25
   2 -22  20    0.19    0.23
   4 -22  20   -0.15    0.22
   6 -22  20    0.14    0.22
   8 -22  20    0.15    0.22
  10 -22  20   -0.11    0.21
  20  20 -20    5.85    0.74
  18  20 -20    0.27    0.35
  16  20 -20   17.40    1.15
  14  20 -20    0.32    0.32
  12  20 -20   14.72    1.03
  10  20 -20    0.77    0.37
   8  20 -20   34.17    1.49
  -8 -20  20   36.23    1.33
   6  20 -20    0.41    0.30
  -6 -20  20    0.15    0.20
   4  20 -20   24.15    1.19
  -4 -20  20   23.10    1.09
   2  20 -20    1.59    0.37
  -2 -20  20    1.21    0.32
   0  20 -20   35.03    1.39
   0 -20  20   32.93    1.36
  -2  20 -20    0.55    0.31
   2 -20  20    1.30    0.34
   4 -20  20   23.76    1.15
   6 -20  20    0.63    0.25
   8 -20  20   33.72    1.41
  10 -20  20    0.66    0.28
  12 -20  20   14.99    0.99
  14 -20  20    0.15    0.29
  22  18 -20    0.16    0.31
  20  18 -20   -0.02    0.30
  18  18 -20    0.27    0.31
  16  18 -20    0.42    0.31
  14  18 -20    1.34    0.42
  12  18 -20   -0.14    0.26
  10  18 -20   -0.01    0.27
   8  18 -20   -0.12    0.25
  -8 -18  20    0.10    0.19
   6  18 -20    0.05    0.27
  -6 -18  20    0.30    0.20
   4  18 -20   -0.13    0.22
  -4 -18  20    0.15    0.20
   2  18 -20    0.33    0.26
  -2 -18  20    0.00    0.17
   0  18 -20   -0.06    0.22
   0 -18  20   -0.01    0.17
  -2  18 -20    0.17    0.25
   2 -18  20    0.32    0.22
   4 -18  20    0.25    0.22
   6 -18  20    0.01    0.18
   8 -18  20    0.10    0.19
  10 -18  20   -0.09    0.17
  12 -18  20    0.23    0.27
  14 -18  20    0.59    0.32
  16 -18  20    0.01    0.29
  24  16 -20    9.87    0.91
  22  16 -20    0.00    0.30
  20  16 -20   16.69    1.11
  18  16 -20    0.06    0.26
  16  16 -20   25.35    1.30
  14  16 -20    0.05    0.29
  12  16 -20   29.34    1.35
  10  16 -20    0.36    0.29
   8  16 -20   41.09    1.56
   6  16 -20    0.72    0.30
  -6 -16  20    0.35    0.20
   4  16 -20   43.25    1.54
  -4 -16  20   42.50    1.42
   2  16 -20    0.83    0.29
  -2 -16  20    1.39    0.30
   0  16 -20   40.14    1.41
   0 -16  20   37.21    1.35
  -2  16 -20    1.03    0.30
   2 -16  20    1.44    0.32
  -4  16 -20   44.09    1.42
   4 -16  20   41.03    1.45
   6 -16  20    0.06    0.20
   8 -16  20   42.06    1.54
  10 -16  20    0.98    0.31
  12 -16  20   30.74    1.31
  14 -16  20    0.28    0.28
  16 -16  20   29.78    1.40
  18 -16  20    0.00    0.25
  26  14 -20    0.27    0.34
  24  14 -20    0.58    0.39
  22  14 -20   -0.26    0.28
  20  14 -20    0.04    0.26
  18  14 -20    1.69    0.43
  16  14 -20    0.10    0.24
  14  14 -20    0.04    0.23
  12  14 -20    0.87    0.34
  10  14 -20    1.20    0.35
   8  14 -20    0.12    0.24
   6  14 -20    0.30    0.25
  -6 -14  20    0.20    0.17
   4  14 -20    0.05    0.21
  -4 -14  20    0.30    0.19
   2  14 -20    2.53    0.39
  -2 -14  20    2.09    0.32
   0  14 -20   -0.01    0.19
   0 -14  20    0.16    0.16
  -2  14 -20    1.65    0.31
   2 -14  20    2.49    0.36
  -4  14 -20    0.18    0.20
   4 -14  20   -0.03    0.16
   6 -14  20    0.39    0.21
   8 -14  20    0.21    0.20
  10 -14  20    1.59    0.36
  12 -14  20    0.13    0.21
  14 -14  20    0.39    0.26
  16 -14  20   -0.01    0.25
  18 -14  20    1.47    0.42
  20 -14  20    0.10    0.30
  26  12 -20    0.01    0.34
  24  12 -20   18.86    1.18
  22  12 -20    0.21    0.28
  20  12 -20   12.88    0.94
  18  12 -20   -0.10    0.24
  16  12 -20   30.97    1.41
  14  12 -20    0.78    0.34
  12  12 -20   19.02    1.04
  10  12 -20    0.44    0.28
   8  12 -20   52.36    1.75
   6  12 -20    0.24    0.23
  -6 -12  20    0.25    0.17
   4  12 -20   28.23    1.16
  -4 -12  20   28.35    1.03
   2  12 -20    0.82    0.27
  -2 -12  20    0.63    0.21
   0  12 -20   42.89    1.39
   0 -12  20   43.56    1.37
  -2  12 -20    0.49    0.22
   2 -12  20    0.77    0.24
  -4  12 -20   27.19    1.00
   4 -12  20   26.50    1.08
   6 -12  20    0.49    0.21
   8 -12  20   49.56    1.60
  10 -12  20    0.57    0.24
  12 -12  20   17.60    0.95
  14 -12  20    0.42    0.28
  16 -12  20   34.26    1.44
  18 -12  20    0.00    0.23
  20 -12  20   15.15    0.99
  22 -12  20    0.05    0.29
  28  10 -20    0.27    0.39
  26  10 -20    0.17    0.35
  24  10 -20    0.66    0.39
  22  10 -20   -0.23    0.23
  20  10 -20    0.86    0.35
  18  10 -20   -0.05    0.21
  16  10 -20    0.04    0.23
  14  10 -20    1.12    0.33
  12  10 -20    0.11    0.26
  10  10 -20    0.77    0.29
   8  10 -20    0.62    0.28
   6  10 -20    0.68    0.28
  -6 -10  20    0.66    0.18
   4  10 -20    0.60    0.28
  -4 -10  20    0.27    0.17
   2  10 -20    0.09    0.18
  -2 -10  20    0.02    0.14
   0  10 -20    0.07    0.19
   0 -10  20    0.00    0.13
  -2  10 -20   -0.11    0.15
   2 -10  20    0.12    0.14
  -4  10 -20    0.29    0.19
   4 -10  20   -0.01    0.13
   6 -10  20    0.92    0.26
   8 -10  20    0.13    0.18
  10 -10  20    0.77    0.26
  12 -10  20    0.41    0.23
  14 -10  20    2.22    0.41
  16 -10  20    0.59    0.30
  18 -10  20   -0.12    0.22
  20 -10  20    0.43    0.32
  22 -10  20    0.03    0.31
  28   8 -20   14.50    1.09
  26   8 -20    0.28    0.35
  24   8 -20   18.08    1.13
  22   8 -20    0.01    0.23
  20   8 -20   35.01    1.53
  18   8 -20    0.30    0.26
  16   8 -20   39.03    1.54
  14   8 -20    0.05    0.19
  12   8 -20   51.76    1.76
  10   8 -20    0.68    0.26
   8   8 -20   82.38    2.28
   6   8 -20    0.08    0.19
  -6  -8  20    0.35    0.16
   4   8 -20   81.40    2.15
  -4  -8  20   79.58    1.91
   2   8 -20    0.81    0.24
  -2  -8  20    0.74    0.20
   0   8 -20   52.35    1.52
   0  -8  20   50.97    1.45
  -2   8 -20    0.91    0.23
   2  -8  20    0.87    0.23
  -4   8 -20   82.47    2.02
   4  -8  20   86.88    2.16
   6  -8  20    0.04    0.16
   8  -8  20   81.93    2.16
  10  -8  20    0.39    0.21
  12  -8  20   51.96    1.68
  14  -8  20    0.24    0.21
  16  -8  20   38.72    1.50
  18  -8  20    0.02    0.24
  20  -8  20   34.01    1.47
  22  -8  20   -0.11    0.28
  24  -8  20   20.15    1.19
  30   6 -20   -0.27    0.32
  28   6 -20   -0.28    0.29
  26   6 -20    0.76    0.38
  24   6 -20    0.14    0.33
  22   6 -20    0.07    0.23
  20   6 -20   -0.05    0.26
  18   6 -20    0.46    0.26
  16   6 -20    0.32    0.28
  14   6 -20    0.10    0.18
  12   6 -20   -0.05    0.20
  10   6 -20    0.62    0.26
   8   6 -20   -0.02    0.23
   6   6 -20    0.18    0.19
   4   6 -20    0.24    0.20
  -4  -6  20    0.29    0.15
   2   6 -20    0.99    0.25
  -2  -6  20    1.01    0.22
   0   6 -20    0.01    0.18
   0  -6  20    0.10    0.14
  -2   6 -20    0.93    0.24
   2  -6  20    0.64    0.20
  -4   6 -20    0.43    0.19
   4  -6  20    0.58    0.22
   6  -6  20    0.28    0.18
   8  -6  20    0.26    0.21
  10  -6  20    0.89    0.27
  12  -6  20   -0.05    0.16
  14  -6  20    0.27    0.21
  16  -6  20   -0.01    0.22
  18  -6  20    0.33    0.28
  20  -6  20   -0.01    0.27
  22  -6  20    0.24    0.30
  24  -6  20    0.41    0.34
  28  -6  20    0.60    0.33
  30   4 -20    0.01    0.33
  28   4 -20   10.76    0.92
  26   4 -20   -0.21    0.28
  24   4 -20   26.06    1.36
  22   4 -20    0.12    0.26
  20   4 -20   19.99    1.12
  18   4 -20    0.04    0.20
  16   4 -20   42.06    1.60
  14   4 -20   -0.04    0.19
  12   4 -20   27.72    1.21
  10   4 -20    0.29    0.23
   8   4 -20   85.42    2.29
   6   4 -20    0.71    0.25
   4   4 -20   38.74    1.32
  -4  -4  20   37.47    1.10
   2   4 -20    0.16    0.16
  -2  -4  20    0.53    0.17
   0   4 -20   65.08    1.73
   0  -4  20   61.00    1.61
  -2   4 -20    0.59    0.21
   2  -4  20    0.31    0.17
  -4   4 -20   38.03    1.16
   4  -4  20   38.60    1.24
   6  -4  20    0.26    0.18
   8  -4  20   82.25    2.13
  10  -4  20    0.43    0.23
  12  -4  20   27.76    1.14
  14  -4  20    0.70    0.26
  16  -4  20   46.68    1.64
  18  -4  20   -0.11    0.21
  20  -4  20   20.05    1.08
  22  -4  20    0.45    0.29
  24  -4  20   28.08    1.37
  30   2 -20    0.32    0.36
  28   2 -20    0.86    0.45
  26   2 -20   -0.02    0.28
  24   2 -20    0.67    0.41
  22   2 -20    0.14    0.27
  20   2 -20    1.36    0.41
  18   2 -20   -0.13    0.19
  16   2 -20    0.63    0.32
  14   2 -20    1.88    0.37
  12   2 -20    0.76    0.30
  10   2 -20    0.09    0.19
  10   2 -20    0.24    0.16
   8   2 -20    0.59    0.20
   8   2 -20    0.48    0.27
   6   2 -20    0.45    0.17
   6   2 -20    0.55    0.24
   4   2 -20    0.60    0.18
   4   2 -20    0.36    0.23
  -4  -2  20    0.31    0.15
   2   2 -20    1.09    0.26
   2   2 -20    1.09    0.21
  -2  -2  20    1.27    0.23
   0   2 -20    0.15    0.14
   0   2 -20   -0.02    0.15
   0  -2  20   -0.03    0.12
  -2   2 -20    0.82    0.22
   2  -2  20    0.95    0.22
  -4   2 -20    0.63    0.20
   4  -2  20    0.12    0.15
   6  -2  20    0.78    0.24
   8  -2  20    0.61    0.24
  10  -2  20   -0.03    0.15
  12  -2  20    0.53    0.25
  14  -2  20    2.22    0.38
  16  -2  20    0.78    0.32
  18  -2  20    0.01    0.22
  20  -2  20    1.12    0.37
  22  -2  20   -0.01    0.25
 -24   2 -20    1.05    0.34
  24  -2  20    1.62    0.45
  28   0 -20   15.07    1.08
  26   0 -20   -0.03    0.27
  24   0 -20   21.13    1.21
  22   0 -20    0.04    0.22
  20   0 -20   29.30    1.36
  20   0 -20   31.91    1.26
  18   0 -20   -0.12    0.21
  18   0 -20    0.17    0.23
  16   0 -20   38.02    1.30
  16   0 -20   35.87    1.45
  14   0 -20    0.10    0.18
  14   0 -20    0.10    0.19
  12   0 -20   45.78    1.38
  12   0 -20   46.51    1.60
  10   0 -20    0.00    0.19
  10   0 -20    0.00    0.14
   8   0 -20   52.73    1.46
   8   0 -20   52.52    1.62
   6   0 -20   -0.08    0.16
   6   0 -20    0.02    0.14
   4   0 -20   60.39    1.55
   4   0 -20   57.68    1.67
  -4   0  20   58.70    1.44
   2   0 -20    0.04    0.13
  -2   0  20    0.08    0.12
   0   0 -20   32.25    1.11
   0   0 -20   33.80    1.07
   0   0  20   34.08    1.07
  -2   0 -20    0.05    0.14
   2   0  20    0.17    0.15
  -4   0 -20   60.49    1.56
   4   0  20   58.02    1.61
   6   0  20    0.12    0.15
   8   0  20   51.24    1.56
  10   0  20   -0.07    0.14
  12   0  20   42.02    1.44
  14   0  20    0.23    0.19
  16   0  20   40.16    1.48
  18   0  20    0.06    0.23
  20   0  20   31.73    1.36
 -22   0 -20    0.05    0.21
 -24   0 -20   20.82    1.14
  28  -2 -20    0.90    0.45
  28  -2 -20    0.70    0.43
  26  -2 -20   -0.29    0.21
  26  -2 -20    0.12    0.33
  24  -2 -20    0.67    0.39
  24  -2 -20    1.19    0.41
  22  -2 -20    0.31    0.26
  22  -2 -20   -0.24    0.23
  20  -2 -20    0.74    0.33
  20  -2 -20    0.97    0.36
  18  -2 -20   -0.15    0.17
  18  -2 -20    0.24    0.26
  16  -2 -20    0.65    0.29
  16  -2 -20    1.78    0.35
  14  -2 -20    2.25    0.38
  14  -2 -20    2.71    0.39
  12  -2 -20    0.52    0.22
  10  -2 -20    0.29    0.20
   8  -2 -20    0.44    0.20
   6  -2 -20    0.55    0.20
   4  -2 -20    0.36    0.18
   2  -2 -20    1.59    0.27
  -2   2  20    1.45    0.22
   0  -2 -20   -0.04    0.11
   0   2  20   -0.03    0.14
   2   2  20    1.00    0.23
   4   2  20    0.11    0.17
   6   2  20    0.50    0.19
   8   2  20    1.03    0.28
  10   2  20   -0.14    0.14
  12   2  20    0.96    0.29
  14   2  20    2.69    0.40
 -16  -2 -20    1.39    0.33
  16   2  20    0.54    0.27
 -18  -2 -20   -0.06    0.19
 -20  -2 -20    1.44    0.37
 -22  -2 -20    0.26    0.23
 -24  -2 -20    0.98    0.36
  30  -4 -20    0.09    0.39
  28  -4 -20   10.60    0.95
  28  -4 -20   10.39    0.88
  26  -4 -20   -0.05    0.35
  26  -4 -20    0.15    0.28
  24  -4 -20   25.48    1.34
  24  -4 -20   25.68    1.28
  22  -4 -20    0.15    0.25
  22  -4 -20   -0.06    0.24
  20  -4 -20   22.70    1.10
  20  -4 -20   21.86    1.14
  18  -4 -20    0.10    0.23
  16  -4 -20   42.93    1.48
  14  -4 -20    0.09    0.21
  12  -4 -20   28.92    1.11
  10  -4 -20    0.18    0.20
   8  -4 -20   80.57    2.05
   6  -4 -20    0.28    0.20
   4  -4 -20   39.63    1.27
   2  -4 -20    0.26    0.15
   2  -4 -20    0.10    0.18
   0  -4 -20   55.91    1.47
   0  -4 -20   57.92    1.61
  -2  -4 -20    0.48    0.20
  -4  -4 -20   37.66    1.20
  -6  -4 -20    1.02    0.25
  -8  -4 -20   77.36    2.00
 -10  -4 -20    0.21    0.19
 -12  -4 -20   28.87    1.17
 -14  -4 -20    0.21    0.23
 -16  -4 -20   40.87    1.49
 -18  -4 -20    0.19    0.19
 -20  -4 -20   23.65    1.16
 -22  -4 -20    0.35    0.26
 -24  -4 -20   23.92    1.23
  28  -6 -20    0.74    0.40
  28  -6 -20    1.09    0.50
  26  -6 -20    1.11    0.43
  26  -6 -20    0.23    0.32
  24  -6 -20    0.72    0.39
  24  -6 -20    0.32    0.37
  22  -6 -20    0.41    0.29
  22  -6 -20   -0.12    0.27
  20  -6 -20    0.52    0.33
  18  -6 -20    0.47    0.28
  16  -6 -20   -0.21    0.21
  14  -6 -20    0.25    0.23
  12  -6 -20    0.20    0.22
  10  -6 -20    1.17    0.29
   8  -6 -20    0.47    0.22
   6  -6 -20    0.00    0.14
   4  -6 -20    0.63    0.24
   2  -6 -20    0.64    0.24
   2  -6 -20    0.74    0.19
   0  -6 -20   -0.16    0.11
   0  -6 -20    0.35    0.18
  -2  -6 -20    0.79    0.22
  -4  -6 -20    0.48    0.23
  -6  -6 -20   -0.06    0.16
  -8  -6 -20    0.00    0.20
 -10  -6 -20    0.45    0.23
 -12  -6 -20   -0.28    0.18
 -14  -6 -20    0.44    0.25
 -16  -6 -20   -0.08    0.22
 -18  -6 -20    0.25    0.23
 -20  -6 -20   -0.27    0.18
 -22  -6 -20    0.00    0.22
 -24  -6 -20    0.91    0.35
  28  -8 -20   15.39    1.16
  28  -8 -20   15.39    1.10
  26  -8 -20    0.39    0.32
  26  -8 -20    0.24    0.38
  24  -8 -20   19.25    1.14
  22  -8 -20   -0.17    0.29
  20  -8 -20   32.39    1.38
  18  -8 -20    0.16    0.27
  16  -8 -20   40.58    1.49
  14  -8 -20    0.15    0.23
  12  -8 -20   49.63    1.62
  10  -8 -20    0.15    0.23
   8  -8 -20   76.12    2.05
   6  -8 -20    0.16    0.21
   4  -8 -20   82.17    2.16
   2  -8 -20    0.72    0.27
   2  -8 -20    0.68    0.20
   0  -8 -20   53.95    1.62
   0  -8 -20   53.32    1.45
  -2  -8 -20    0.94    0.24
  -4  -8 -20   82.09    2.04
  -6  -8 -20    0.41    0.23
  -8  -8 -20   75.41    2.02
 -10  -8 -20    0.22    0.23
 -12  -8 -20   50.28    1.63
 -14  -8 -20    0.11    0.22
 -16  -8 -20   36.66    1.43
 -18  -8 -20    0.10    0.20
 -20  -8 -20   36.43    1.50
 -22  -8 -20    0.16    0.24
  28 -10 -20    0.95    0.50
  28 -10 -20    0.63    0.41
  26 -10 -20   -0.12    0.35
  24 -10 -20    0.82    0.42
  22 -10 -20    0.19    0.32
  20 -10 -20    0.27    0.32
  18 -10 -20    0.18    0.27
  16 -10 -20    0.10    0.24
  14 -10 -20    1.23    0.34
  12 -10 -20    0.46    0.25
  10 -10 -20    0.79    0.28
   8 -10 -20    0.39    0.24
   6 -10 -20    0.33    0.22
   4 -10 -20    0.44    0.22
   2 -10 -20    0.16    0.15
   2 -10 -20    0.21    0.19
   0 -10 -20    0.04    0.17
   0 -10 -20    0.07    0.19
  -2 -10 -20    0.01    0.16
  -4 -10 -20    0.13    0.21
  -6 -10 -20    0.49    0.24
  -8 -10 -20    0.10    0.21
 -10 -10 -20    0.91    0.29
 -12 -10 -20    0.34    0.26
 -14 -10 -20    0.83    0.31
 -16 -10 -20    0.74    0.32
 -18 -10 -20    0.00    0.23
 -20 -10 -20    0.79    0.33
 -22 -10 -20    0.06    0.25
  26 -12 -20    0.02    0.37
  24 -12 -20   20.80    1.23
  22 -12 -20    0.04    0.34
  20 -12 -20   13.09    0.94
  18 -12 -20    0.10    0.26
  16 -12 -20   30.16    1.33
  14 -12 -20    0.23    0.29
  12 -12 -20   15.99    0.91
  10 -12 -20    0.00    0.24
   8 -12 -20   49.55    1.63
   6 -12 -20    0.08    0.22
   4 -12 -20   27.03    1.15
   2 -12 -20    0.71    0.29
   0 -12 -20   44.44    1.35
   0 -12 -20   47.29    1.58
  -2 -12 -20    0.44    0.25
  -2 -12 -20    1.05    0.27
  -4 -12 -20   27.11    1.07
  -6 -12 -20   -0.11    0.17
  -8 -12 -20   49.99    1.59
 -10 -12 -20    0.43    0.25
 -12 -12 -20   17.81    0.96
 -14 -12 -20    0.37    0.27
 -16 -12 -20   27.42    1.25
 -18 -12 -20   -0.08    0.25
 -20 -12 -20   12.48    0.86
  24 -14 -20    0.35    0.35
  22 -14 -20    0.28    0.37
  20 -14 -20   -0.03    0.27
  18 -14 -20    0.72    0.37
  16 -14 -20    0.70    0.35
  14 -14 -20    0.02    0.28
  12 -14 -20    0.15    0.27
  10 -14 -20    0.70    0.30
   8 -14 -20    0.04    0.20
   6 -14 -20    0.19    0.22
   4 -14 -20    0.38    0.25
   2 -14 -20    2.78    0.43
   0 -14 -20    0.24    0.21
   0 -14 -20    0.09    0.18
  -2 -14 -20    2.34    0.40
  -2 -14 -20    2.31    0.35
  -4 -14 -20    0.29    0.23
  -6 -14 -20    0.37    0.24
  -8 -14 -20    0.21    0.26
 -10 -14 -20    1.97    0.38
 -12 -14 -20    0.16    0.24
 -14 -14 -20    0.28    0.28
 -16 -14 -20    0.12    0.27
 -18 -14 -20    1.38    0.41
 -20 -14 -20   -0.09    0.22
  24 -16 -20   11.07    0.97
  22 -16 -20   -0.19    0.34
  20 -16 -20   16.56    1.08
  18 -16 -20    0.19    0.29
  16 -16 -20   23.33    1.22
  14 -16 -20   -0.13    0.23
  12 -16 -20   29.65    1.34
  10 -16 -20    0.35    0.28
   8 -16 -20   40.75    1.54
   6 -16 -20    0.12    0.27
   4 -16 -20   41.56    1.55
   2 -16 -20    1.28    0.38
   0 -16 -20   38.22    1.27
   0 -16 -20   37.35    1.45
  -2 -16 -20    1.20    0.35
  -2 -16 -20    1.15    0.30
  -4 -16 -20   42.79    1.44
  -6 -16 -20    0.32    0.25
  -8 -16 -20   37.40    1.39
 -10 -16 -20    0.49    0.27
 -12 -16 -20   30.22    1.31
 -14 -16 -20    0.03    0.25
 -16 -16 -20   25.70    1.27
 -18 -16 -20   -0.04    0.26
  22 -18 -20   -0.08    0.37
  20 -18 -20   -0.07    0.35
  18 -18 -20    0.20    0.34
  16 -18 -20    0.06    0.30
  14 -18 -20    1.47    0.43
  12 -18 -20    0.03    0.25
  10 -18 -20   -0.21    0.23
   8 -18 -20    0.12    0.23
   6 -18 -20    0.45    0.26
   4 -18 -20    0.14    0.22
   2 -18 -20    0.05    0.21
   0 -18 -20   -0.07    0.21
   0 -18 -20    0.13    0.21
  -2 -18 -20    0.02    0.22
  -2 -18 -20    0.06    0.20
  -4 -18 -20    0.22    0.21
  -4 -18 -20    0.24    0.24
  -6 -18 -20   -0.03    0.23
  -8 -18 -20    0.26    0.27
 -10 -18 -20    0.02    0.23
 -12 -18 -20    0.04    0.28
 -14 -18 -20    1.48    0.43
 -16 -18 -20   -0.02    0.26
  20 -20 -20    7.62    0.80
  18 -20 -20   -0.21    0.27
  16 -20 -20   14.71    1.00
  14 -20 -20    0.46    0.31
  12 -20 -20   12.19    0.88
  10 -20 -20    0.33    0.27
   8 -20 -20   33.63    1.46
   6 -20 -20    0.10    0.25
   4 -20 -20   21.11    1.11
   2 -20 -20    1.26    0.39
   0 -20 -20   32.40    1.40
  -2 -20 -20    0.72    0.34
  -2 -20 -20    0.90    0.33
  -4 -20 -20   21.07    1.11
  -4 -20 -20   21.80    1.04
  -6 -20 -20    0.48    0.30
  -8 -20 -20   35.88    1.45
 -10 -20 -20    1.33    0.42
 -12 -20 -20   12.20    0.88
 -14 -20 -20    0.12    0.31
  18 -22 -20    0.11    0.33
  16 -22 -20   -0.03    0.29
  14 -22 -20    0.16    0.30
  12 -22 -20   -0.15    0.25
  10 -22 -20   -0.03    0.25
   8 -22 -20   -0.07    0.27
   6 -22 -20    0.20    0.28
   4 -22 -20    0.15    0.27
   2 -22 -20    0.49    0.31
   0 -22 -20   -0.14    0.22
  -2 -22 -20    0.04    0.25
  -2 -22 -20    0.16    0.27
  -4 -22 -20    0.18    0.30
  -4 -22 -20    0.08    0.23
  -6 -22 -20    0.62    0.30
  -6 -22 -20    0.03    0.29
  -8 -22 -20   -0.10    0.30
 -10 -22 -20    0.45    0.32
 -12 -22 -20   -0.19    0.27
  16 -24 -20   10.90    0.93
  14 -24 -20   -0.14    0.31
  12 -24 -20   16.54    1.09
  10 -24 -20    0.03    0.31
   8 -24 -20   18.42    1.11
   6 -24 -20    0.49    0.32
   4 -24 -20   25.09    1.29
   2 -24 -20    0.66    0.37
   0 -24 -20   19.23    1.14
  -2 -24 -20    0.70    0.37
  -4 -24 -20   26.76    1.35
  -4 -24 -20   29.51    1.33
  -6 -24 -20    0.26    0.31
  -6 -24 -20    0.76    0.38
  -8 -24 -20   21.96    1.23
  -8 -24 -20   21.13    1.20
  12 -26 -20   -0.11    0.30
  10 -26 -20   -0.37    0.29
   8 -26 -20    0.14    0.33
   6 -26 -20    0.36    0.32
   4 -26 -20    0.13    0.29
   2 -26 -20    0.18    0.31
   0 -26 -20   -0.02    0.29
  -2 -26 -20    0.41    0.33
  -4 -26 -20    0.15    0.34
  -4 -26 -20   -0.07    0.26
  -6 -26 -20    0.63    0.38
  -6 -26 -20    0.05    0.31
  -8 -26 -20   -0.09    0.28
 -10 -26 -20   -0.25    0.27
   8 -28 -20   10.86    0.94
   6 -28 -20   -0.13    0.30
   4 -28 -20   10.98    0.89
   2 -28 -20    0.62    0.41
   0 -28 -20   16.74    1.12
  -2 -28 -20    0.26    0.36
  -4 -28 -20   10.55    0.93
  -6 -28 -20   -0.15    0.32
  -8 -28 -20   13.07    1.01
 -10 -28 -20    0.51    0.38
   9  27 -21    0.03    0.40
   7  27 -21    0.00    0.39
   5  27 -21   -0.28    0.35
   3  27 -21   -0.05    0.41
  13  25 -21    0.02    0.38
  11  25 -21   -0.03    0.36
   9  25 -21   -0.29    0.33
   7  25 -21    0.07    0.38
  -7 -25  21   -0.01    0.24
   5  25 -21    0.08    0.34
  -5 -25  21   -0.11    0.26
   3  25 -21    0.33    0.37
  -3 -25  21    0.13    0.27
   1  25 -21    0.18    0.34
  -1 -25  21   -0.03    0.25
  -1  25 -21   -0.13    0.32
  15  23 -21   -0.27    0.32
  13  23 -21   -0.22    0.35
  11  23 -21   -0.10    0.30
   9  23 -21   -0.26    0.34
   7  23 -21   -0.19    0.31
  -7 -23  21   -0.27    0.23
   5  23 -21   -0.27    0.34
  -5 -23  21    0.03    0.25
   3  23 -21   -0.08    0.32
  -3 -23  21    0.14    0.22
   1  23 -21    0.12    0.33
  -1 -23  21   -0.01    0.23
  -1  23 -21   -0.32    0.27
   1 -23  21   -0.04    0.24
   3 -23  21    0.20    0.25
   5 -23  21   -0.30    0.22
   7 -23  21    0.08    0.25
  19  21 -21   -0.10    0.36
  17  21 -21   -0.04    0.31
  15  21 -21    0.02    0.36
  13  21 -21   -0.08    0.30
  11  21 -21   -0.31    0.27
   9  21 -21   -0.18    0.29
   7  21 -21   -0.06    0.28
  -7 -21  21    0.13    0.21
   5  21 -21   -0.05    0.27
  -5 -21  21    0.14    0.23
   3  21 -21    0.27    0.29
  -3 -21  21   -0.15    0.18
   1  21 -21    0.04    0.24
  -1 -21  21    0.14    0.21
  -1  21 -21   -0.09    0.25
   1 -21  21    0.15    0.26
   3 -21  21   -0.21    0.19
   5 -21  21   -0.10    0.22
   7 -21  21    0.23    0.22
   9 -21  21    0.21    0.25
  11 -21  21   -0.03    0.23
  21  19 -21   -0.21    0.31
  19  19 -21   -0.03    0.33
  17  19 -21   -0.26    0.25
  15  19 -21    0.16    0.31
  13  19 -21   -0.28    0.31
  11  19 -21    0.34    0.31
   9  19 -21    0.31    0.34
   7  19 -21    0.32    0.34
  -7 -19  21    0.30    0.24
   5  19 -21   -0.18    0.27
  -5 -19  21    0.20    0.21
   3  19 -21    0.13    0.28
  -3 -19  21    0.08    0.22
   1  19 -21   -0.32    0.25
  -1 -19  21   -0.04    0.20
  -1  19 -21    0.25    0.28
   1 -19  21    0.08    0.21
   3 -19  21    0.04    0.20
   5 -19  21    0.16    0.23
   7 -19  21    0.06    0.20
   9 -19  21    0.10    0.23
  11 -19  21    0.03    0.21
  13 -19  21   -0.06    0.26
  23  17 -21    0.36    0.36
  21  17 -21    0.09    0.32
  19  17 -21   -0.33    0.27
  17  17 -21   -0.29    0.22
  15  17 -21   -0.48    0.24
  13  17 -21    0.06    0.28
  11  17 -21    0.44    0.31
   9  17 -21    0.26    0.27
   7  17 -21   -0.04    0.24
   5  17 -21    0.53    0.31
  -5 -17  21    0.23    0.21
   3  17 -21   -0.08    0.24
  -3 -17  21   -0.05    0.18
   1  17 -21    0.06    0.24
  -1 -17  21   -0.07    0.14
  -1  17 -21   -0.07    0.23
   1 -17  21    0.07    0.17
  -3  17 -21   -0.24    0.20
   3 -17  21    0.13    0.17
   5 -17  21    0.08    0.23
   7 -17  21    0.16    0.19
   9 -17  21    0.15    0.21
  11 -17  21    0.48    0.29
  13 -17  21    0.30    0.27
  15 -17  21   -0.01    0.26
  17 -17  21   -0.23    0.26
  23  15 -21   -0.08    0.32
  21  15 -21    0.06    0.31
  19  15 -21    0.05    0.28
  17  15 -21    0.24    0.29
  15  15 -21   -0.20    0.28
  13  15 -21   -0.42    0.23
  11  15 -21    0.66    0.32
   9  15 -21    0.76    0.34
   7  15 -21   -0.23    0.22
   5  15 -21    0.21    0.26
  -5 -15  21    0.22    0.19
   3  15 -21    0.37    0.28
  -3 -15  21    0.59    0.23
   1  15 -21   -0.04    0.22
  -1 -15  21    0.03    0.16
  -1  15 -21   -0.41    0.17
   1 -15  21    0.14    0.20
  -3  15 -21    0.79    0.29
   3 -15  21    0.57    0.23
   5 -15  21   -0.06    0.18
   7 -15  21    0.58    0.25
   9 -15  21    0.49    0.27
  11 -15  21    0.85    0.30
  13 -15  21    0.07    0.21
  15 -15  21    0.04    0.26
  17 -15  21    0.06    0.27
  19 -15  21    0.15    0.30
  25  13 -21   -0.15    0.33
  23  13 -21   -0.04    0.31
  21  13 -21   -0.11    0.28
  19  13 -21   -0.03    0.26
  17  13 -21    0.66    0.32
  15  13 -21   -0.30    0.19
  13  13 -21    0.20    0.26
  11  13 -21   -0.17    0.22
   9  13 -21    0.25    0.25
   7  13 -21    0.88    0.33
   5  13 -21   -0.14    0.21
  -5 -13  21    0.05    0.15
   3  13 -21   -0.10    0.21
  -3 -13  21    0.21    0.17
   1  13 -21   -0.22    0.19
  -1 -13  21    0.10    0.16
  -1  13 -21   -0.03    0.19
   1 -13  21    0.01    0.15
  -3  13 -21   -0.19    0.17
   3 -13  21    0.14    0.18
   5 -13  21    0.14    0.19
   7 -13  21    0.64    0.24
   9 -13  21   -0.07    0.16
  11 -13  21   -0.08    0.18
  13 -13  21   -0.39    0.16
  15 -13  21    0.04    0.25
  17 -13  21   -0.15    0.24
  19 -13  21    0.07    0.27
  27  11 -21   -0.07    0.31
  25  11 -21   -0.16    0.29
  23  11 -21   -0.03    0.31
  21  11 -21   -0.10    0.26
  19  11 -21    0.10    0.24
  17  11 -21   -0.08    0.25
  15  11 -21    0.43    0.28
  13  11 -21    0.09    0.24
  11  11 -21   -0.10    0.21
   9  11 -21    0.72    0.32
   7  11 -21    1.29    0.35
   5  11 -21    0.09    0.22
  -5 -11  21    0.36    0.18
   3  11 -21    1.24    0.31
  -3 -11  21    0.76    0.23
   1  11 -21    0.43    0.25
  -1 -11  21    0.14    0.16
  -1  11 -21    0.39    0.21
   1 -11  21    0.23    0.18
  -3  11 -21    1.12    0.26
   3 -11  21    0.26    0.18
   5 -11  21    0.09    0.16
   7 -11  21    1.40    0.32
   9 -11  21    0.50    0.25
  11 -11  21   -0.19    0.17
  13 -11  21    0.04    0.18
  15 -11  21    0.35    0.28
  17 -11  21   -0.04    0.24
  19 -11  21    0.29    0.28
  21 -11  21    0.04    0.28
  27   9 -21   -0.22    0.34
  25   9 -21    0.12    0.33
  23   9 -21   -0.07    0.26
  21   9 -21    0.21    0.29
  19   9 -21    0.71    0.33
  17   9 -21    0.02    0.20
  15   9 -21    0.67    0.31
  13   9 -21   -0.17    0.20
  11   9 -21    0.82    0.32
   9   9 -21   -0.03    0.20
   7   9 -21    0.18    0.20
   5   9 -21   -0.15    0.18
  -5  -9  21   -0.11    0.12
   3   9 -21    0.33    0.21
  -3  -9  21    0.57    0.20
   1   9 -21    0.05    0.17
  -1  -9  21   -0.02    0.13
  -1   9 -21    0.25    0.20
   1  -9  21    0.19    0.15
  -3   9 -21    0.27    0.19
   3  -9  21    0.12    0.16
   5  -9  21    0.01    0.16
   7  -9  21    0.01    0.18
   9  -9  21    0.00    0.17
  11  -9  21    0.68    0.25
  13  -9  21   -0.02    0.18
  15  -9  21    0.92    0.35
  17  -9  21    0.06    0.22
  19  -9  21    0.02    0.26
  21  -9  21    0.16    0.29
  27   7 -21   -0.07    0.33
  25   7 -21    0.20    0.33
  23   7 -21    0.35    0.30
  21   7 -21   -0.28    0.24
  19   7 -21    0.65    0.32
  17   7 -21    0.11    0.24
  15   7 -21    0.06    0.22
  13   7 -21    0.22    0.25
  11   7 -21    2.43    0.43
   9   7 -21   -0.30    0.15
   7   7 -21    0.29    0.24
   5   7 -21    0.03    0.21
  -5  -7  21   -0.06    0.12
   3   7 -21    0.12    0.19
  -3  -7  21   -0.10    0.13
   1   7 -21    0.04    0.17
  -1  -7  21    0.02    0.13
  -1   7 -21    0.30    0.18
   1  -7  21    0.25    0.16
  -3   7 -21   -0.17    0.14
   3  -7  21   -0.09    0.14
   5  -7  21   -0.12    0.14
   7  -7  21   -0.08    0.12
   9  -7  21    0.14    0.19
  11  -7  21    1.39    0.31
  13  -7  21    0.96    0.30
  15  -7  21    0.38    0.24
  17  -7  21    0.00    0.24
  19  -7  21    0.02    0.28
  21  -7  21   -0.02    0.27
  23  -7  21   -0.13    0.25
  29   5 -21    0.51    0.38
  27   5 -21    0.20    0.33
  25   5 -21    0.13    0.33
  23   5 -21    0.18    0.31
  21   5 -21   -0.23    0.24
  19   5 -21   -0.06    0.21
  17   5 -21    0.12    0.25
  15   5 -21    0.08    0.21
  13   5 -21    0.01    0.20
  11   5 -21    0.47    0.26
   9   5 -21   -0.01    0.19
   7   5 -21    0.03    0.18
   5   5 -21    0.17    0.20
   3   5 -21   -0.12    0.15
  -3  -5  21   -0.17    0.10
   1   5 -21    0.30    0.19
  -1  -5  21    0.05    0.13
  -1   5 -21    0.05    0.15
   1  -5  21   -0.15    0.13
  -3   5 -21    0.23    0.16
   3  -5  21   -0.13    0.12
   5  -5  21    0.00    0.16
   7  -5  21   -0.03    0.14
   9  -5  21   -0.09    0.15
  11  -5  21    0.26    0.20
  13  -5  21   -0.07    0.16
  15  -5  21    0.12    0.20
  17  -5  21    0.20    0.25
  19  -5  21    0.10    0.29
  21  -5  21   -0.04    0.24
  23  -5  21    0.01    0.29
  29   3 -21    0.58    0.39
  27   3 -21    0.02    0.31
  25   3 -21    0.32    0.35
  23   3 -21    0.11    0.26
  21   3 -21    0.11    0.25
  19   3 -21    0.57    0.28
  17   3 -21   -0.33    0.19
  15   3 -21    0.13    0.22
  13   3 -21    0.19    0.22
  11   3 -21    0.97    0.32
   9   3 -21    0.11    0.20
   7   3 -21    0.03    0.19
   5   3 -21   -0.06    0.18
   3   3 -21   -0.03    0.14
  -3  -3  21   -0.15    0.10
   1   3 -21    0.29    0.19
  -1  -3  21    0.20    0.15
  -1   3 -21    0.24    0.19
  -1   3 -21    0.14    0.15
   1  -3  21    0.46    0.17
  -3   3 -21   -0.13    0.13
   3  -3  21    0.05    0.16
   5  -3  21    0.01    0.14
   7  -3  21   -0.03    0.15
   9  -3  21    0.25    0.18
  11  -3  21    1.03    0.28
  13  -3  21   -0.07    0.16
  15  -3  21    0.82    0.29
  17  -3  21   -0.27    0.17
  19  -3  21    0.35    0.27
  21  -3  21   -0.25    0.21
  23  -3  21    0.02    0.30
  29   1 -21    0.31    0.39
  27   1 -21    0.05    0.28
  25   1 -21   -0.30    0.24
  23   1 -21    0.06    0.26
  21   1 -21   -0.08    0.23
  19   1 -21    0.19    0.24
  17   1 -21    0.12    0.21
  15   1 -21    0.16    0.19
  13   1 -21    0.10    0.20
  11   1 -21    0.23    0.18
  11   1 -21    0.39    0.27
   9   1 -21    0.05    0.17
   9   1 -21   -0.09    0.17
   7   1 -21    0.03    0.19
   7   1 -21    0.04    0.14
   5   1 -21   -0.10    0.14
   5   1 -21   -0.01    0.13
   3   1 -21    0.36    0.16
   3   1 -21    0.32    0.19
  -3  -1  21    0.35    0.16
   1   1 -21   -0.11    0.14
   1   1 -21   -0.08    0.12
  -1  -1  21   -0.02    0.11
  -1   1 -21    0.02    0.14
   1  -1  21    0.08    0.14
  -3   1 -21    0.25    0.17
   3  -1  21    0.19    0.18
  -5   1 -21   -0.04    0.15
   5  -1  21    0.34    0.17
   7  -1  21   -0.06    0.13
   9  -1  21    0.10    0.15
  11  -1  21    0.30    0.19
  13  -1  21    0.05    0.16
  15  -1  21   -0.10    0.16
  17  -1  21   -0.39    0.16
  19  -1  21    0.01    0.24
  21  -1  21    0.02    0.28
 -23   1 -21    0.07    0.23
  29  -1 -21   -0.37    0.32
  27  -1 -21    0.49    0.36
  25  -1 -21    0.09    0.30
  23  -1 -21   -0.17    0.22
  21  -1 -21   -0.32    0.23
  21  -1 -21   -0.08    0.25
  19  -1 -21   -0.03    0.22
  19  -1 -21   -0.39    0.24
  17  -1 -21    0.14    0.22
  17  -1 -21    0.13    0.24
  15  -1 -21   -0.07    0.21
  15  -1 -21    0.23    0.22
  13  -1 -21   -0.34    0.15
  13  -1 -21    0.04    0.20
  11  -1 -21    0.18    0.19
  11  -1 -21    0.59    0.25
   9  -1 -21   -0.15    0.14
   7  -1 -21    0.18    0.17
   5  -1 -21   -0.04    0.13
   3  -1 -21    0.14    0.16
  -3   1  21    0.29    0.15
   1  -1 -21   -0.04    0.13
  -1   1  21    0.08    0.13
   1   1  21    0.02    0.13
   3   1  21    0.59    0.20
  -5  -1 -21   -0.03    0.13
   5   1  21   -0.10    0.12
   7   1  21    0.16    0.15
   9   1  21    0.05    0.14
  11   1  21    0.54    0.22
  13   1  21   -0.11    0.14
  15   1  21    0.03    0.17
  17   1  21   -0.05    0.19
 -19  -1 -21   -0.09    0.19
 -21  -1 -21    0.09    0.20
 -23  -1 -21   -0.01    0.23
  29  -3 -21    0.12    0.36
  27  -3 -21   -0.14    0.38
  27  -3 -21   -0.16    0.30
  25  -3 -21    0.32    0.35
  25  -3 -21    0.06    0.28
  23  -3 -21   -0.11    0.29
  23  -3 -21   -0.08    0.26
  21  -3 -21    0.00    0.22
  21  -3 -21   -0.07    0.28
  19  -3 -21   -0.07    0.24
  19  -3 -21    0.32    0.24
  17  -3 -21    0.21    0.25
  17  -3 -21    0.10    0.23
  15  -3 -21    0.74    0.29
  13  -3 -21    0.09    0.21
  11  -3 -21    0.63    0.26
   9  -3 -21    0.32    0.21
   7  -3 -21    0.04    0.15
   5  -3 -21    0.26    0.18
   3  -3 -21    0.03    0.12
   3  -3 -21    0.12    0.16
   1  -3 -21    0.05    0.13
   1  -3 -21   -0.16    0.13
  -1   3  21    0.38    0.15
   1   3  21    0.30    0.16
   3   3  21   -0.04    0.13
   5   3  21    0.10    0.13
   7   3  21   -0.11    0.14
   9   3  21    0.17    0.18
 -11  -3 -21    1.02    0.27
  11   3  21    0.59    0.23
 -13  -3 -21    0.12    0.19
 -15  -3 -21   -0.04    0.19
 -17  -3 -21   -0.01    0.22
 -19  -3 -21    0.21    0.22
 -21  -3 -21    0.10    0.23
 -23  -3 -21    0.01    0.21
  29  -5 -21   -0.29    0.34
  29  -5 -21   -0.23    0.38
  27  -5 -21   -0.05    0.28
  27  -5 -21   -0.04    0.38
  25  -5 -21   -0.20    0.33
  25  -5 -21   -0.03    0.28
  23  -5 -21   -0.28    0.31
  23  -5 -21    0.10    0.28
  21  -5 -21   -0.22    0.19
  21  -5 -21   -0.10    0.26
  19  -5 -21   -0.07    0.25
  17  -5 -21    0.02    0.22
  15  -5 -21   -0.45    0.18
  13  -5 -21    0.05    0.19
  11  -5 -21    0.08    0.21
   9  -5 -21    0.04    0.18
   7  -5 -21    0.12    0.20
   5  -5 -21    0.10    0.15
   3  -5 -21   -0.07    0.15
   1  -5 -21   -0.19    0.11
   1  -5 -21    0.12    0.17
  -1  -5 -21   -0.04    0.14
  -1  -5 -21   -0.14    0.13
  -3  -5 -21   -0.16    0.13
  -5  -5 -21   -0.04    0.16
  -7  -5 -21    0.37    0.20
  -9  -5 -21    0.20    0.20
 -11  -5 -21    0.21    0.22
 -13  -5 -21   -0.12    0.16
 -15  -5 -21    0.23    0.24
 -17  -5 -21    0.09    0.26
 -19  -5 -21   -0.24    0.16
 -21  -5 -21    0.24    0.26
 -23  -5 -21   -0.17    0.24
  29  -7 -21    0.12    0.33
  27  -7 -21    0.33    0.39
  27  -7 -21    0.02    0.34
  25  -7 -21    0.32    0.33
  25  -7 -21    0.39    0.40
  23  -7 -21   -0.02    0.27
  23  -7 -21   -0.06    0.29
  21  -7 -21   -0.13    0.26
  19  -7 -21   -0.09    0.27
  17  -7 -21    0.22    0.25
  15  -7 -21    0.07    0.25
  13  -7 -21    0.98    0.31
  11  -7 -21    1.66    0.35
   9  -7 -21    0.16    0.21
   7  -7 -21   -0.01    0.17
   5  -7 -21    0.07    0.18
   3  -7 -21    0.09    0.20
   1  -7 -21    0.36    0.21
   1  -7 -21    0.17    0.16
  -1  -7 -21    0.03    0.17
  -1  -7 -21    0.24    0.18
  -3  -7 -21    0.12    0.18
  -5  -7 -21   -0.20    0.15
  -7  -7 -21   -0.08    0.17
  -9  -7 -21    0.11    0.19
 -11  -7 -21    1.63    0.34
 -13  -7 -21    0.85    0.31
 -15  -7 -21    0.61    0.29
 -17  -7 -21   -0.22    0.20
 -19  -7 -21    0.28    0.24
 -21  -7 -21    0.12    0.24
 -23  -7 -21    0.17    0.26
  27  -9 -21   -0.31    0.39
  27  -9 -21    0.59    0.36
  25  -9 -21   -0.02    0.37
  23  -9 -21   -0.13    0.29
  21  -9 -21   -0.23    0.25
  19  -9 -21    0.37    0.35
  17  -9 -21    0.01    0.24
  15  -9 -21    0.42    0.27
  13  -9 -21   -0.08    0.23
  11  -9 -21    0.97    0.33
   9  -9 -21   -0.01    0.20
   7  -9 -21   -0.17    0.18
   5  -9 -21    0.01    0.18
   3  -9 -21    0.11    0.19
   1  -9 -21    0.14    0.18
   1  -9 -21   -0.31    0.14
  -1  -9 -21   -0.31    0.14
  -1  -9 -21   -0.02    0.19
  -3  -9 -21    0.25    0.20
  -5  -9 -21    0.19    0.21
  -7  -9 -21   -0.16    0.17
  -9  -9 -21   -0.06    0.17
 -11  -9 -21    0.92    0.31
 -13  -9 -21    0.04    0.21
 -15  -9 -21    0.13    0.23
 -17  -9 -21    0.18    0.26
 -19  -9 -21    0.36    0.26
 -21  -9 -21    0.18    0.28
  25 -11 -21    0.09    0.35
  23 -11 -21    0.03    0.36
  21 -11 -21   -0.39    0.28
  19 -11 -21    0.64    0.36
  17 -11 -21   -0.07    0.27
  15 -11 -21    0.73    0.33
  13 -11 -21   -0.17    0.19
  11 -11 -21   -0.02    0.23
   9 -11 -21    0.84    0.31
   7 -11 -21    1.91    0.38
   5 -11 -21    0.12    0.21
   3 -11 -21    1.09    0.31
   1 -11 -21    0.17    0.21
   1 -11 -21    0.41    0.21
  -1 -11 -21    0.41    0.24
  -1 -11 -21    0.03    0.18
  -3 -11 -21    1.21    0.28
  -5 -11 -21    0.21    0.20
  -7 -11 -21    1.80    0.36
  -9 -11 -21    0.97    0.30
 -11 -11 -21    0.12    0.22
 -13 -11 -21   -0.30    0.21
 -15 -11 -21    0.24    0.27
 -17 -11 -21   -0.01    0.27
 -19 -11 -21    0.06    0.25
 -21 -11 -21   -0.17    0.22
  25 -13 -21   -0.26    0.33
  23 -13 -21   -0.46    0.33
  21 -13 -21    0.29    0.37
  19 -13 -21   -0.04    0.29
  17 -13 -21   -0.02    0.28
  15 -13 -21   -0.14    0.24
  13 -13 -21   -0.16    0.22
  11 -13 -21   -0.13    0.20
   9 -13 -21    0.19    0.25
   7 -13 -21    1.02    0.31
   5 -13 -21   -0.02    0.18
   3 -13 -21   -0.01    0.22
   1 -13 -21   -0.08    0.17
  -1 -13 -21    0.05    0.19
  -1 -13 -21    0.20    0.22
  -3 -13 -21   -0.22    0.15
  -5 -13 -21    0.06    0.22
  -7 -13 -21    0.85    0.31
  -9 -13 -21    0.08    0.21
 -11 -13 -21   -0.11    0.19
 -13 -13 -21   -0.02    0.24
 -15 -13 -21   -0.21    0.25
 -17 -13 -21   -0.08    0.24
 -19 -13 -21   -0.25    0.23
  23 -15 -21    0.21    0.37
  21 -15 -21   -0.23    0.31
  19 -15 -21   -0.30    0.29
  17 -15 -21    0.09    0.28
  15 -15 -21   -0.35    0.22
  13 -15 -21   -0.20    0.23
  11 -15 -21    0.70    0.31
   9 -15 -21    0.64    0.30
   7 -15 -21    0.11    0.25
   5 -15 -21    0.02    0.25
   3 -15 -21    0.90    0.32
   1 -15 -21    0.25    0.22
  -1 -15 -21   -0.02    0.20
  -1 -15 -21    0.02    0.22
  -3 -15 -21    0.26    0.25
  -3 -15 -21    0.58    0.30
  -5 -15 -21   -0.19    0.20
  -7 -15 -21    0.19    0.24
  -9 -15 -21    0.61    0.32
 -11 -15 -21    0.19    0.29
 -13 -15 -21   -0.28    0.22
 -15 -15 -21   -0.11    0.25
 -17 -15 -21   -0.11    0.26
  21 -17 -21    0.11    0.36
  19 -17 -21   -0.17    0.30
  17 -17 -21   -0.14    0.26
  15 -17 -21   -0.43    0.25
  13 -17 -21   -0.17    0.23
  11 -17 -21    0.14    0.26
   9 -17 -21    0.17    0.29
   7 -17 -21    0.11    0.25
   5 -17 -21   -0.04    0.24
   3 -17 -21    0.00    0.22
   1 -17 -21   -0.05    0.24
  -1 -17 -21   -0.04    0.21
  -1 -17 -21   -0.08    0.21
  -3 -17 -21    0.06    0.21
  -3 -17 -21   -0.11    0.22
  -5 -17 -21    0.10    0.25
  -7 -17 -21   -0.01    0.26
  -9 -17 -21    0.27    0.25
 -11 -17 -21   -0.18    0.22
 -13 -17 -21   -0.17    0.24
 -15 -17 -21   -0.39    0.25
 -17 -17 -21   -0.07    0.31
  19 -19 -21    0.39    0.35
  17 -19 -21    0.07    0.32
  15 -19 -21   -0.19    0.29
  13 -19 -21   -0.30    0.28
  11 -19 -21    0.13    0.29
   9 -19 -21    0.31    0.29
   7 -19 -21    0.51    0.28
   5 -19 -21    0.10    0.24
   3 -19 -21   -0.31    0.16
   1 -19 -21    0.04    0.23
  -1 -19 -21    0.18    0.23
  -3 -19 -21    0.41    0.28
  -3 -19 -21    0.25    0.25
  -5 -19 -21   -0.01    0.24
  -5 -19 -21    0.14    0.29
  -7 -19 -21    0.26    0.30
  -9 -19 -21   -0.15    0.29
 -11 -19 -21   -0.11    0.28
 -13 -19 -21    0.13    0.33
 -15 -19 -21    0.37    0.35
  19 -21 -21    0.06    0.31
  17 -21 -21    0.11    0.30
  15 -21 -21    0.03    0.27
  13 -21 -21   -0.23    0.26
  11 -21 -21    0.32    0.31
   9 -21 -21   -0.16    0.23
   7 -21 -21   -0.08    0.24
   5 -21 -21    0.05    0.24
   3 -21 -21    0.25    0.27
   1 -21 -21    0.08    0.24
  -1 -21 -21    0.20    0.23
  -3 -21 -21   -0.27    0.22
  -3 -21 -21   -0.03    0.27
  -5 -21 -21    0.09    0.29
  -5 -21 -21    0.00    0.25
  -7 -21 -21    0.20    0.26
  -7 -21 -21    0.05    0.30
  -9 -21 -21   -0.11    0.27
 -11 -21 -21    0.11    0.30
  15 -23 -21   -0.10    0.28
  13 -23 -21    0.17    0.30
  11 -23 -21    0.09    0.26
   9 -23 -21    0.16    0.30
   7 -23 -21    0.05    0.28
   5 -23 -21    0.02    0.25
   3 -23 -21   -0.22    0.24
   1 -23 -21   -0.39    0.20
  -1 -23 -21   -0.28    0.23
  -3 -23 -21    0.13    0.31
  -3 -23 -21    0.52    0.32
  -5 -23 -21   -0.55    0.29
  -5 -23 -21    0.09    0.27
  -7 -23 -21   -0.02    0.28
  -7 -23 -21   -0.05    0.28
  -9 -23 -21   -0.14    0.31
  13 -25 -21    0.18    0.33
  11 -25 -21   -0.11    0.29
   9 -25 -21    0.07    0.30
   7 -25 -21    0.01    0.30
   5 -25 -21    0.41    0.31
   3 -25 -21    0.40    0.34
   1 -25 -21    0.16    0.31
  -1 -25 -21    0.40    0.34
  -3 -25 -21    0.21    0.27
  -5 -25 -21    0.22    0.31
  -5 -25 -21   -0.18    0.32
  -7 -25 -21   -0.13    0.25
  -9 -25 -21    0.28    0.33
   9 -27 -21    0.25    0.34
   7 -27 -21    0.27    0.31
   5 -27 -21    0.01    0.30
   3 -27 -21    0.09    0.29
   1 -27 -21    0.38    0.34
  -1 -27 -21    0.45    0.37
  -3 -27 -21    0.60    0.38
  -5 -27 -21    0.10    0.28
  -7 -27 -21    0.04    0.31
  -9 -27 -21    0.07    0.32
   1 -29 -21    0.06    0.33
   4  28 -22   -0.23    0.36
  10  26 -22    4.04    0.72
   8  26 -22    0.59    0.46
   6  26 -22    4.15    0.69
   4  26 -22    1.45    0.49
   2  26 -22    5.07    0.69
   0  26 -22    0.44    0.43
  12  24 -22    0.03    0.34
  10  24 -22    0.36    0.41
   8  24 -22    0.41    0.41
   6  24 -22   -0.09    0.34
  -6 -24  22    0.22    0.28
   4  24 -22   -0.22    0.33
  -4 -24  22    0.19    0.27
   2  24 -22   -0.32    0.32
  -2 -24  22    0.23    0.28
   0  24 -22   -0.09    0.33
   0 -24  22   -0.32    0.19
  16  22 -22    0.33    0.43
  14  22 -22    3.24    0.64
  12  22 -22    1.06    0.47
  10  22 -22    5.58    0.71
   8  22 -22    3.17    0.57
   6  22 -22    7.68    0.74
  -6 -22  22    8.32    0.71
   4  22 -22    2.15    0.50
  -4 -22  22    1.76    0.40
   2  22 -22    5.31    0.65
  -2 -22  22    6.78    0.65
   0  22 -22    5.96    0.66
   0 -22  22    4.36    0.56
   2 -22  22    5.22    0.61
   4 -22  22    2.65    0.49
   6 -22  22    9.19    0.78
  18  20 -22    0.67    0.41
  16  20 -22   -0.08    0.35
  14  20 -22    0.25    0.34
  12  20 -22   -0.13    0.29
  10  20 -22    0.21    0.31
   8  20 -22    0.24    0.31
   6  20 -22   -0.09    0.25
  -6 -20  22    0.46    0.25
   4  20 -22   -0.12    0.26
  -4 -20  22    0.18    0.22
   2  20 -22    0.30    0.32
  -2 -20  22    0.01    0.20
   0  20 -22    0.15    0.30
   0 -20  22    0.00    0.21
  -2  20 -22    0.08    0.28
   2 -20  22    0.63    0.30
   4 -20  22    0.16    0.23
   6 -20  22    0.42    0.28
   8 -20  22    0.05    0.22
  10 -20  22   -0.06    0.27
  20  18 -22    0.22    0.37
  18  18 -22    3.53    0.61
  16  18 -22   -0.05    0.34
  14  18 -22    3.25    0.57
  12  18 -22    0.25    0.29
  10  18 -22    5.23    0.63
   8  18 -22    0.33    0.32
   6  18 -22    7.43    0.70
  -6 -18  22    6.79    0.59
   4  18 -22    1.64    0.42
  -4 -18  22    1.75    0.37
   2  18 -22    4.19    0.53
  -2 -18  22    4.75    0.53
   0  18 -22   -0.09    0.26
   0 -18  22    0.39    0.24
  -2  18 -22    4.45    0.52
   2 -18  22    4.88    0.53
   4 -18  22    0.83    0.29
   6 -18  22    6.89    0.65
   8 -18  22    0.93    0.33
  10 -18  22    4.83    0.59
  12 -18  22    0.50    0.28
  14 -18  22    4.01    0.59
  22  16 -22    0.90    0.41
  20  16 -22    0.34    0.37
  18  16 -22   -0.07    0.26
  16  16 -22    0.27    0.31
  14  16 -22    0.67    0.35
  12  16 -22    0.16    0.28
  10  16 -22    0.44    0.32
   8  16 -22   -0.07    0.24
   6  16 -22    0.80    0.32
  -6 -16  22    0.59    0.25
   4  16 -22    0.03    0.24
  -4 -16  22   -0.17    0.17
   2  16 -22    0.16    0.25
  -2 -16  22    0.13    0.20
   0  16 -22    0.31    0.25
   0 -16  22    0.07    0.18
  -2  16 -22   -0.04    0.23
   2 -16  22    0.18    0.21
   4 -16  22    0.12    0.20
   6 -16  22    1.05    0.31
   8 -16  22    0.25    0.22
  10 -16  22    0.03    0.23
  12 -16  22   -0.11    0.19
  14 -16  22    0.18    0.29
  16 -16  22    0.15    0.28
  24  14 -22    0.11    0.33
  22  14 -22    2.56    0.55
  20  14 -22    0.10    0.30
  18  14 -22    3.05    0.54
  16  14 -22    0.71    0.35
  14  14 -22    4.85    0.62
  12  14 -22   -0.02    0.25
  10  14 -22    5.26    0.59
   8  14 -22    1.73    0.40
   6  14 -22    9.54    0.74
   4  14 -22    0.26    0.26
  -4 -14  22    0.20    0.18
   2  14 -22    8.72    0.67
  -2 -14  22    9.24    0.61
   0  14 -22    1.50    0.35
   0 -14  22    1.78    0.34
  -2  14 -22    9.43    0.67
   2 -14  22    8.72    0.64
   4 -14  22    0.56    0.23
   6 -14  22    8.74    0.67
   8 -14  22    1.45    0.35
  10 -14  22    6.04    0.60
  12 -14  22    0.12    0.21
  14 -14  22    4.63    0.58
  16 -14  22    0.51    0.32
  18 -14  22    3.43    0.57
  24  12 -22   -0.16    0.30
  22  12 -22    0.17    0.30
  20  12 -22    0.18    0.31
  18  12 -22    0.84    0.36
  16  12 -22   -0.04    0.24
  14  12 -22   -0.25    0.23
  12  12 -22   -0.18    0.21
  10  12 -22    0.63    0.33
   8  12 -22    0.20    0.26
   6  12 -22   -0.36    0.19
   4  12 -22   -0.02    0.21
  -4 -12  22    0.21    0.18
   2  12 -22    0.07    0.22
  -2 -12  22    0.28    0.18
   0  12 -22    0.04    0.22
   0 -12  22   -0.07    0.15
  -2  12 -22   -0.03    0.20
   2 -12  22    0.40    0.22
   4 -12  22   -0.16    0.15
   6 -12  22   -0.30    0.12
   8 -12  22    0.19    0.21
  10 -12  22    0.30    0.22
  12 -12  22    0.10    0.20
  14 -12  22    0.18    0.24
  16 -12  22   -0.10    0.22
  18 -12  22    0.57    0.34
  20 -12  22    0.08    0.29
  26  10 -22    2.99    0.61
  24  10 -22    0.21    0.35
  22  10 -22    5.89    0.72
  20  10 -22    0.16    0.30
  18  10 -22    4.76    0.61
  16  10 -22    0.27    0.28
  14  10 -22    5.39    0.62
  12  10 -22    0.32    0.26
  10  10 -22    8.68    0.70
   8  10 -22    0.63    0.29
   6  10 -22   16.37    0.90
   4  10 -22    3.11    0.43
  -4 -10  22    2.87    0.35
   2  10 -22   13.67    0.80
  -2 -10  22   12.69    0.68
   0  10 -22    0.46    0.25
   0 -10  22    0.30    0.18
  -2  10 -22   12.46    0.71
   2 -10  22   14.43    0.76
   4 -10  22    2.13    0.34
   6 -10  22   16.22    0.87
   8 -10  22    0.30    0.21
  10 -10  22   10.08    0.71
  12 -10  22    0.09    0.20
  14 -10  22    6.30    0.61
  16 -10  22    0.19    0.27
  18 -10  22    5.23    0.64
  20 -10  22    0.23    0.29
  26   8 -22   -0.10    0.35
  24   8 -22   -0.22    0.27
  22   8 -22    2.93    0.55
  20   8 -22    0.00    0.26
  18   8 -22    0.54    0.32
  16   8 -22   -0.19    0.20
  14   8 -22    1.05    0.37
  12   8 -22   -0.15    0.21
  10   8 -22    0.02    0.24
   8   8 -22    0.17    0.25
   6   8 -22    1.71    0.37
   4   8 -22   -0.04    0.17
  -4  -8  22   -0.12    0.12
   2   8 -22    0.42    0.25
  -2  -8  22    0.43    0.18
   0   8 -22    0.24    0.19
   0  -8  22    0.13    0.15
  -2   8 -22    0.71    0.24
   2  -8  22    0.44    0.21
   4  -8  22    0.01    0.13
   6  -8  22    1.57    0.33
   8  -8  22    0.35    0.22
  10  -8  22    0.02    0.17
  12  -8  22   -0.04    0.18
  14  -8  22    2.45    0.43
  16  -8  22    0.07    0.24
  18  -8  22    0.29    0.30
  20  -8  22    0.08    0.28
  22  -8  22    2.44    0.52
  28   6 -22    0.12    0.36
  26   6 -22    5.25    0.70
  24   6 -22   -0.27    0.24
  22   6 -22    8.25    0.79
  20   6 -22    0.10    0.28
  18   6 -22    6.27    0.65
  16   6 -22    0.99    0.35
  14   6 -22   10.16    0.78
  12   6 -22   -0.13    0.21
  10   6 -22   13.34    0.85
   8   6 -22    2.29    0.41
   6   6 -22   20.77    1.00
   4   6 -22    0.26    0.23
  -4  -6  22    0.55    0.19
   2   6 -22   16.64    0.85
  -2  -6  22   17.61    0.78
   0   6 -22    2.95    0.38
   0  -6  22    2.21    0.32
  -2   6 -22   16.52    0.79
   2  -6  22   16.03    0.78
   4  -6  22    0.76    0.24
   6  -6  22   20.67    0.94
   8  -6  22    1.87    0.34
  10  -6  22   16.58    0.89
  12  -6  22    0.03    0.15
  14  -6  22   10.74    0.74
  16  -6  22    0.83    0.31
  18  -6  22    5.24    0.60
  20  -6  22    0.19    0.29
  22  -6  22    7.56    0.75
  28   4 -22   -0.12    0.32
  26   4 -22    0.50    0.36
  24   4 -22    0.13    0.33
  22   4 -22    1.41    0.44
  20   4 -22    0.32    0.27
  18   4 -22    1.20    0.36
  16   4 -22    0.17    0.23
  14   4 -22    0.19    0.25
  12   4 -22   -0.17    0.17
  10   4 -22    3.20    0.47
   8   4 -22    0.24    0.23
   6   4 -22    0.66    0.28
   4   4 -22    0.03    0.21
   2   4 -22   -0.16    0.17
  -2  -4  22    0.01    0.14
   0   4 -22    0.01    0.18
   0  -4  22    0.03    0.13
  -2   4 -22   -0.20    0.15
   2  -4  22   -0.26    0.12
  -4   4 -22    0.18    0.16
   4  -4  22    0.21    0.17
   6  -4  22    0.62    0.25
   8  -4  22   -0.04    0.15
  10  -4  22    4.04    0.47
  12  -4  22   -0.02    0.16
  14  -4  22    0.28    0.26
  16  -4  22    0.07    0.21
  18  -4  22    1.20    0.37
  20  -4  22    0.23    0.28
  22  -4  22    2.98    0.54
  28   2 -22   -0.13    0.31
  26   2 -22    4.01    0.63
  24   2 -22    0.02    0.26
  22   2 -22    3.93    0.59
  20   2 -22    0.26    0.29
  18   2 -22    5.07    0.61
  16   2 -22    0.47    0.25
  14   2 -22    9.22    0.74
  12   2 -22    0.41    0.27
  10   2 -22   12.49    0.80
   8   2 -22    0.90    0.30
   6   2 -22   16.16    0.86
   4   2 -22   -0.03    0.18
   2   2 -22   19.72    0.90
  -2  -2  22   18.52    0.77
   0   2 -22    4.01    0.38
   0   2 -22    4.24    0.44
   0  -2  22    5.57    0.43
  -2   2 -22   21.56    0.89
   2  -2  22   17.89    0.82
  -4   2 -22   -0.11    0.14
   4  -2  22   -0.03    0.15
   6  -2  22   18.48    0.88
   8  -2  22    0.67    0.24
  10  -2  22   13.15    0.78
  12  -2  22    0.00    0.19
  14  -2  22    9.34    0.70
  16  -2  22    0.18    0.21
  18  -2  22    4.42    0.55
  20  -2  22    0.04    0.26
  22  -2  22    7.59    0.75
  28   0 -22    0.28    0.36
  26   0 -22    0.69    0.39
  24   0 -22    0.03    0.26
  22   0 -22    4.87    0.62
  20   0 -22   -0.01    0.25
  18   0 -22    0.24    0.23
  16   0 -22   -0.04    0.22
  14   0 -22    1.85    0.40
  12   0 -22   -0.13    0.19
  12   0 -22   -0.10    0.19
  10   0 -22    0.18    0.20
  10   0 -22    0.30    0.23
   8   0 -22   -0.05    0.14
   8   0 -22   -0.14    0.20
   6   0 -22    2.13    0.37
   6   0 -22    1.96    0.29
   4   0 -22   -0.35    0.15
   4   0 -22    0.21    0.17
   2   0 -22    4.78    0.41
   2   0 -22    4.73    0.45
  -2   0  22    4.36    0.38
   0   0 -22    0.03    0.16
   0   0 -22    0.02    0.17
   0   0  22   -0.05    0.12
  -2   0 -22    4.37    0.42
   2   0  22    4.40    0.42
  -4   0 -22   -0.12    0.13
   4   0  22   -0.09    0.12
   6   0  22    1.89    0.33
   8   0  22    0.04    0.14
  10   0  22    0.27    0.19
  12   0  22    0.05    0.17
  14   0  22    1.06    0.32
  16   0  22    0.21    0.24
  18   0  22    0.30    0.29
 -20   0 -22   -0.01    0.19
  20   0  22    0.08    0.25
 -22   0 -22    5.00    0.60
  28  -2 -22    0.17    0.35
  26  -2 -22    3.96    0.62
  24  -2 -22    0.15    0.27
  22  -2 -22    5.55    0.66
  20  -2 -22    0.09    0.28
  20  -2 -22   -0.03    0.22
  18  -2 -22    5.67    0.62
  18  -2 -22    5.34    0.56
  16  -2 -22    0.10    0.24
  16  -2 -22    0.38    0.25
  14  -2 -22    7.86    0.60
  14  -2 -22    8.37    0.67
  12  -2 -22   -0.06    0.19
  12  -2 -22    0.09    0.23
  10  -2 -22   13.14    0.73
   8  -2 -22    0.17    0.18
   6  -2 -22   16.40    0.77
   4  -2 -22    0.22    0.19
   2  -2 -22   19.53    0.85
  -2   2  22   18.68    0.76
   0  -2 -22    4.59    0.43
   0   2  22    4.40    0.40
   2   2  22   19.77    0.84
   4   2  22   -0.09    0.12
   6   2  22   15.06    0.78
   8   2  22    0.76    0.26
  10   2  22   11.81    0.73
  12   2  22    0.21    0.21
 -14  -2 -22    9.42    0.66
  14   2  22    7.55    0.63
 -16  -2 -22    0.18    0.22
 -18  -2 -22    4.46    0.54
 -20  -2 -22    0.03    0.21
 -22  -2 -22    4.93    0.59
  28  -4 -22   -0.18    0.30
  26  -4 -22    2.58    0.58
  26  -4 -22    0.66    0.40
  24  -4 -22    0.38    0.37
  24  -4 -22   -0.16    0.26
  22  -4 -22    2.28    0.49
  22  -4 -22    2.21    0.47
  20  -4 -22   -0.35    0.23
  20  -4 -22   -0.24    0.25
  18  -4 -22    1.38    0.37
  18  -4 -22    1.59    0.39
  16  -4 -22    0.00    0.24
  14  -4 -22    0.17    0.24
  12  -4 -22    0.25    0.21
  10  -4 -22    2.53    0.38
   8  -4 -22   -0.02    0.18
   6  -4 -22    0.74    0.24
   4  -4 -22    0.00    0.17
   2  -4 -22    0.04    0.14
   2  -4 -22    0.13    0.18
   0  -4 -22    0.09    0.17
   0  -4 -22   -0.03    0.14
  -2  -4 -22    0.12    0.17
  -4  -4 -22   -0.06    0.16
  -6  -4 -22    0.82    0.25
  -8  -4 -22    0.00    0.19
 -10  -4 -22    2.85    0.42
 -12  -4 -22   -0.09    0.19
 -14  -4 -22    0.36    0.26
 -16  -4 -22   -0.06    0.22
 -18  -4 -22    1.69    0.40
 -20  -4 -22    0.31    0.25
 -22  -4 -22    2.01    0.44
  28  -6 -22    0.00    0.37
  28  -6 -22    0.03    0.41
  26  -6 -22    4.16    0.66
  26  -6 -22    4.99    0.70
  24  -6 -22    1.04    0.42
  24  -6 -22   -0.02    0.31
  22  -6 -22    6.56    0.69
  22  -6 -22    8.21    0.75
  20  -6 -22   -0.05    0.25
  18  -6 -22    6.23    0.63
  16  -6 -22    0.75    0.32
  14  -6 -22    9.67    0.71
  12  -6 -22    0.03    0.23
  10  -6 -22   16.11    0.86
   8  -6 -22    2.01    0.36
   6  -6 -22   22.88    1.00
   4  -6 -22    0.49    0.26
   2  -6 -22   17.35    0.85
   0  -6 -22    1.76    0.33
   0  -6 -22    2.88    0.34
  -2  -6 -22   16.63    0.77
  -4  -6 -22    0.82    0.25
  -6  -6 -22   20.53    0.94
  -8  -6 -22    2.27    0.37
 -10  -6 -22   17.36    0.92
 -12  -6 -22    0.27    0.24
 -14  -6 -22   10.86    0.77
 -16  -6 -22    0.42    0.28
 -18  -6 -22    6.67    0.65
 -20  -6 -22   -0.11    0.24
 -22  -6 -22    7.17    0.71
  26  -8 -22   -0.32    0.35
  26  -8 -22    0.29    0.34
  24  -8 -22    0.35    0.32
  24  -8 -22   -0.03    0.37
  22  -8 -22    3.23    0.56
  20  -8 -22    0.00    0.30
  18  -8 -22    0.27    0.29
  16  -8 -22   -0.05    0.24
  14  -8 -22    1.31    0.35
  12  -8 -22   -0.03    0.24
  10  -8 -22    0.17    0.23
   8  -8 -22    0.05    0.21
   6  -8 -22    2.79    0.40
   4  -8 -22    0.25    0.21
   2  -8 -22    0.74    0.28
   0  -8 -22   -0.13    0.19
   0  -8 -22   -0.18    0.15
  -2  -8 -22    0.65    0.24
  -4  -8 -22    0.01    0.18
  -6  -8 -22    1.37    0.31
  -8  -8 -22    0.13    0.21
 -10  -8 -22    0.03    0.23
 -12  -8 -22    0.12    0.21
 -14  -8 -22    1.58    0.37
 -16  -8 -22    0.17    0.23
 -18  -8 -22    0.59    0.34
 -20  -8 -22   -0.11    0.23
  26 -10 -22    3.72    0.64
  26 -10 -22    3.32    0.62
  24 -10 -22   -0.42    0.32
  22 -10 -22    6.70    0.73
  20 -10 -22   -0.03    0.29
  18 -10 -22    5.05    0.62
  16 -10 -22    0.46    0.30
  14 -10 -22    7.04    0.64
  12 -10 -22    0.24    0.26
  10 -10 -22    9.70    0.71
   8 -10 -22   -0.24    0.18
   6 -10 -22   14.75    0.85
   4 -10 -22    3.12    0.44
   2 -10 -22   13.92    0.82
   0 -10 -22    0.53    0.27
   0 -10 -22    0.33    0.20
  -2 -10 -22   13.21    0.81
  -2 -10 -22   12.44    0.70
  -4 -10 -22    2.79    0.38
  -6 -10 -22   15.44    0.82
  -8 -10 -22    0.30    0.24
 -10 -10 -22    9.55    0.72
 -12 -10 -22    0.13    0.25
 -14 -10 -22    6.06    0.61
 -16 -10 -22    0.31    0.30
 -18 -10 -22    5.08    0.61
 -20 -10 -22    0.20    0.26
  24 -12 -22    0.34    0.39
  22 -12 -22    0.38    0.37
  20 -12 -22   -0.12    0.27
  18 -12 -22    0.67    0.35
  16 -12 -22   -0.07    0.28
  14 -12 -22   -0.36    0.22
  12 -12 -22    0.10    0.27
  10 -12 -22   -0.05    0.24
   8 -12 -22   -0.03    0.20
   6 -12 -22    0.14    0.22
   4 -12 -22    0.01    0.21
   2 -12 -22    0.10    0.20
   0 -12 -22   -0.10    0.20
   0 -12 -22   -0.11    0.17
  -2 -12 -22    0.13    0.23
  -2 -12 -22    0.20    0.19
  -4 -12 -22   -0.08    0.21
  -6 -12 -22    0.05    0.22
  -8 -12 -22    0.24    0.25
 -10 -12 -22    0.28    0.26
 -12 -12 -22    0.03    0.21
 -14 -12 -22    0.22    0.24
 -16 -12 -22   -0.08    0.24
 -18 -12 -22    1.19    0.40
  24 -14 -22   -0.02    0.40
  22 -14 -22    2.78    0.60
  20 -14 -22   -0.20    0.30
  18 -14 -22    3.87    0.60
  16 -14 -22    0.60    0.36
  14 -14 -22    4.09    0.57
  12 -14 -22   -0.26    0.22
  10 -14 -22    5.29    0.59
   8 -14 -22    1.50    0.38
   6 -14 -22    8.68    0.71
   4 -14 -22    0.34    0.30
   2 -14 -22    8.28    0.71
   0 -14 -22    1.69    0.40
  -2 -14 -22    9.02    0.62
  -2 -14 -22    8.17    0.68
  -4 -14 -22    0.01    0.22
  -6 -14 -22   10.73    0.74
  -8 -14 -22    2.08    0.41
 -10 -14 -22    6.10    0.60
 -12 -14 -22    0.08    0.25
 -14 -14 -22    4.89    0.61
 -16 -14 -22    0.55    0.35
 -18 -14 -22    3.55    0.56
  22 -16 -22    0.91    0.46
  20 -16 -22   -0.28    0.32
  18 -16 -22   -0.06    0.31
  16 -16 -22    0.25    0.30
  14 -16 -22    0.88    0.37
  12 -16 -22    0.05    0.25
  10 -16 -22    0.02    0.28
   8 -16 -22   -0.12    0.23
   6 -16 -22    0.96    0.34
   4 -16 -22    0.12    0.25
   2 -16 -22    0.24    0.27
   0 -16 -22    0.11    0.25
  -2 -16 -22    0.14    0.25
  -2 -16 -22   -0.02    0.23
  -4 -16 -22    0.19    0.25
  -4 -16 -22    0.27    0.29
  -6 -16 -22    1.10    0.34
  -8 -16 -22   -0.15    0.24
 -10 -16 -22    0.10    0.26
 -12 -16 -22    0.22    0.31
 -14 -16 -22    1.18    0.40
 -16 -16 -22   -0.13    0.26
  20 -18 -22    0.11    0.37
  18 -18 -22    3.77    0.64
  16 -18 -22   -0.14    0.28
  14 -18 -22    3.65    0.58
  12 -18 -22    0.26    0.32
  10 -18 -22    6.47    0.70
   8 -18 -22    0.36    0.30
   6 -18 -22    6.19    0.65
   4 -18 -22    1.14    0.38
   2 -18 -22    4.40    0.58
   0 -18 -22    0.67    0.32
  -2 -18 -22    4.79    0.53
  -2 -18 -22    4.07    0.54
  -4 -18 -22    2.10    0.43
  -4 -18 -22    1.66    0.39
  -6 -18 -22    6.32    0.62
  -8 -18 -22    0.28    0.30
 -10 -18 -22    3.78    0.54
 -12 -18 -22    0.43    0.31
 -14 -18 -22    3.23    0.54
  18 -20 -22    0.51    0.43
  16 -20 -22    0.39    0.34
  14 -20 -22    0.36    0.39
  12 -20 -22   -0.08    0.29
  10 -20 -22    0.47    0.37
   8 -20 -22    0.13    0.27
   6 -20 -22    0.47    0.28
   4 -20 -22   -0.10    0.22
   2 -20 -22    0.14    0.23
   0 -20 -22    0.18    0.25
  -2 -20 -22   -0.07    0.25
  -4 -20 -22    0.02    0.27
  -4 -20 -22    0.16    0.28
  -6 -20 -22    0.39    0.30
  -6 -20 -22   -0.04    0.29
  -8 -20 -22   -0.34    0.25
 -10 -20 -22    0.48    0.33
 -12 -20 -22    0.17    0.33
  16 -22 -22    0.39    0.35
  14 -22 -22    2.56    0.56
  12 -22 -22    0.68    0.35
  10 -22 -22    5.84    0.69
   8 -22 -22    2.93    0.54
   6 -22 -22    9.22    0.80
   4 -22 -22    2.06    0.47
   2 -22 -22    5.42    0.66
   0 -22 -22    5.88    0.68
  -2 -22 -22    5.93    0.67
  -4 -22 -22    2.10    0.46
  -4 -22 -22    3.09    0.53
  -6 -22 -22    7.45    0.74
  -6 -22 -22    8.32    0.76
  -8 -22 -22    3.81    0.59
  -8 -22 -22    2.75    0.55
 -10 -22 -22    6.58    0.72
  12 -24 -22    0.25    0.33
  10 -24 -22    0.22    0.31
   8 -24 -22   -0.02    0.29
   6 -24 -22   -0.21    0.28
   4 -24 -22    0.24    0.30
   2 -24 -22    0.04    0.26
   0 -24 -22    0.23    0.29
  -2 -24 -22    0.24    0.31
  -4 -24 -22   -0.04    0.29
  -6 -24 -22    0.09    0.29
  -6 -24 -22    0.30    0.35
  -8 -24 -22   -0.16    0.26
   8 -26 -22    0.07    0.33
   6 -26 -22    4.19    0.64
   4 -26 -22    1.22    0.42
   2 -26 -22    3.25    0.60
   0 -26 -22    0.52    0.38
  -2 -26 -22    3.53    0.60
  -4 -26 -22    1.46    0.47
  -6 -26 -22    4.32    0.67
  -8 -26 -22    0.29    0.36
 -10 -26 -22    2.23    0.54
  -2 -28 -22    0.14    0.31
   5  27 -23   -0.46    0.37
   3  27 -23    0.29    0.42
   1  27 -23   -0.19    0.37
   9  25 -23    0.07    0.39
   7  25 -23   -0.46    0.35
   5  25 -23    0.20    0.39
   3  25 -23   -0.22    0.36
   1  25 -23   -0.08    0.36
  13  23 -23   -0.17    0.35
  11  23 -23   -0.45    0.34
   9  23 -23   -0.24    0.30
   7  23 -23   -0.17    0.31
   5  23 -23   -0.03    0.36
  -5 -23  23    0.45    0.30
   3  23 -23    0.17    0.34
  -3 -23  23   -0.02    0.24
   1  23 -23    0.10    0.33
  -1 -23  23    0.07    0.25
   1 -23  23    0.05    0.27
  15  21 -23    0.30    0.40
  13  21 -23   -0.44    0.33
  11  21 -23    0.03    0.37
   9  21 -23   -0.17    0.29
   7  21 -23    0.18    0.35
   5  21 -23    0.23    0.33
  -5 -21  23   -0.05    0.24
   3  21 -23   -0.13    0.26
  -3 -21  23    0.19    0.26
   1  21 -23    0.02    0.29
  -1 -21  23    0.05    0.23
  -1  21 -23   -0.62    0.26
   1 -21  23    0.07    0.24
   3 -21  23    0.11    0.26
   5 -21  23    0.16    0.28
   7 -21  23   -0.22    0.25
  17  19 -23   -0.23    0.31
  15  19 -23    0.11    0.37
  13  19 -23   -0.36    0.27
  11  19 -23   -0.16    0.25
   9  19 -23   -0.20    0.24
   7  19 -23    0.01    0.29
   5  19 -23    0.07    0.30
  -5 -19  23   -0.07    0.22
   3  19 -23    0.41    0.34
  -3 -19  23    0.14    0.23
   1  19 -23    0.03    0.28
  -1 -19  23    0.30    0.25
  -1  19 -23   -0.03    0.27
   1 -19  23    0.30    0.21
   3 -19  23   -0.14    0.21
   5 -19  23    0.30    0.25
   7 -19  23    0.19    0.26
   9 -19  23    0.12    0.24
  11 -19  23    0.02    0.26
  19  17 -23   -0.03    0.33
  17  17 -23    0.30    0.31
  15  17 -23   -0.35    0.30
  13  17 -23    0.63    0.35
  11  17 -23    0.44    0.36
   9  17 -23    0.25    0.29
   7  17 -23   -0.14    0.27
   5  17 -23    0.01    0.25
  -5 -17  23    0.21    0.22
   3  17 -23    0.16    0.27
  -3 -17  23    0.77    0.28
   1  17 -23    0.30    0.26
  -1 -17  23    0.16    0.24
  -1  17 -23    0.00    0.26
   1 -17  23    0.00    0.19
   3 -17  23    0.72    0.30
   5 -17  23    0.16    0.23
   7 -17  23   -0.18    0.22
   9 -17  23   -0.06    0.18
  11 -17  23    0.23    0.28
  13 -17  23    0.63    0.30
  21  15 -23    0.06    0.37
  19  15 -23   -0.16    0.28
  17  15 -23   -0.17    0.26
  15  15 -23   -0.07    0.31
  13  15 -23    0.34    0.33
  11  15 -23    0.13    0.31
   9  15 -23    0.04    0.27
   7  15 -23   -0.03    0.25
   5  15 -23    0.33    0.28
   3  15 -23   -0.08    0.21
  -3 -15  23   -0.12    0.14
   1  15 -23    0.01    0.25
  -1 -15  23    0.09    0.18
  -1  15 -23   -0.04    0.21
   1 -15  23    0.23    0.21
   3 -15  23    0.19    0.21
   5 -15  23    0.40    0.23
   7 -15  23   -0.02    0.19
   9 -15  23    0.22    0.23
  11 -15  23    0.28    0.24
  13 -15  23   -0.09    0.22
  15 -15  23    0.11    0.25
  23  13 -23   -0.10    0.33
  21  13 -23   -0.26    0.28
  19  13 -23   -0.06    0.30
  17  13 -23    0.09    0.25
  15  13 -23    0.14    0.33
  13  13 -23   -0.12    0.26
  11  13 -23   -0.22    0.27
   9  13 -23    0.15    0.27
   7  13 -23   -0.12    0.23
   5  13 -23    0.40    0.28
   3  13 -23    0.27    0.27
  -3 -13  23    0.51    0.22
   1  13 -23    0.09    0.23
  -1 -13  23    0.26    0.20
  -1  13 -23   -0.20    0.20
   1 -13  23    0.36    0.20
   3 -13  23    0.66    0.27
   5 -13  23    0.29    0.23
   7 -13  23    0.20    0.24
   9 -13  23    0.17    0.24
  11 -13  23    0.06    0.23
  13 -13  23    0.19    0.25
  15 -13  23    0.20    0.24
  17 -13  23    0.02    0.31
  23  11 -23   -0.07    0.34
  21  11 -23   -0.32    0.24
  19  11 -23    0.09    0.31
  17  11 -23    0.22    0.29
  15  11 -23   -0.13    0.24
  13  11 -23   -0.05    0.26
  11  11 -23   -0.31    0.23
   9  11 -23    0.13    0.24
   7  11 -23   -0.07    0.24
   5  11 -23    0.53    0.30
   3  11 -23   -0.29    0.21
  -3 -11  23    0.14    0.17
   1  11 -23    0.07    0.22
  -1 -11  23    0.02    0.17
  -1  11 -23   -0.16    0.21
   1 -11  23    0.37    0.21
   3 -11  23    0.37    0.21
   5 -11  23    0.58    0.26
   7 -11  23    0.05    0.20
   9 -11  23    0.02    0.19
  11 -11  23    0.00    0.20
  13 -11  23    0.20    0.22
  15 -11  23    0.03    0.24
  17 -11  23    0.36    0.29
  19 -11  23   -0.06    0.31
  25   9 -23    0.25    0.38
  23   9 -23   -0.07    0.29
  21   9 -23    0.04    0.29
  19   9 -23   -0.40    0.24
  17   9 -23    0.24    0.26
  15   9 -23   -0.02    0.27
  13   9 -23   -0.11    0.23
  11   9 -23   -0.03    0.25
   9   9 -23   -0.20    0.23
   7   9 -23    0.06    0.25
   5   9 -23   -0.14    0.21
   3   9 -23   -0.11    0.20
  -3  -9  23    0.03    0.15
   1   9 -23    0.05    0.22
  -1  -9  23    0.08    0.17
  -1   9 -23   -0.15    0.20
   1  -9  23    0.34    0.20
  -3   9 -23    0.00    0.18
   3  -9  23   -0.03    0.17
   5  -9  23   -0.06    0.15
   7  -9  23   -0.18    0.15
   9  -9  23   -0.02    0.19
  11  -9  23    0.11    0.21
  13  -9  23    0.15    0.23
  15  -9  23    0.17    0.25
  17  -9  23    0.13    0.25
  19  -9  23    0.05    0.31
  25   7 -23   -0.03    0.32
  23   7 -23    0.30    0.33
  21   7 -23   -0.09    0.26
  19   7 -23   -0.02    0.26
  17   7 -23   -0.18    0.23
  15   7 -23   -0.04    0.23
  13   7 -23    0.17    0.26
  11   7 -23   -0.10    0.22
   9   7 -23   -0.03    0.22
   7   7 -23   -0.27    0.19
   5   7 -23    1.16    0.33
   3   7 -23   -0.26    0.19
  -3  -7  23   -0.14    0.13
   1   7 -23    0.15    0.23
  -1  -7  23    0.55    0.20
  -1   7 -23    0.43    0.23
   1  -7  23    0.31    0.20
  -3   7 -23   -0.28    0.15
   3  -7  23   -0.06    0.12
   5  -7  23    0.84    0.26
   7  -7  23    0.08    0.18
   9  -7  23   -0.14    0.17
  11  -7  23    0.03    0.18
  13  -7  23    0.01    0.20
  15  -7  23    0.02    0.19
  17  -7  23    0.30    0.28
  19  -7  23    0.11    0.30
  21  -7  23    0.13    0.30
  27   5 -23    0.27    0.35
  25   5 -23   -0.36    0.27
  23   5 -23   -0.01    0.28
  21   5 -23    0.11    0.27
  19   5 -23    0.31    0.30
  17   5 -23    0.04    0.21
  15   5 -23    0.37    0.30
  13   5 -23    0.07    0.24
  11   5 -23    0.52    0.30
   9   5 -23    0.01    0.20
   7   5 -23    0.54    0.28
   5   5 -23   -0.17    0.18
   3   5 -23    1.39    0.34
  -3  -5  23    1.16    0.24
   1   5 -23    0.01    0.20
  -1  -5  23   -0.12    0.14
  -1   5 -23   -0.09    0.16
   1  -5  23    0.06    0.16
  -3   5 -23    0.93    0.26
   3  -5  23    1.12    0.28
   5  -5  23   -0.02    0.14
   7  -5  23    0.54    0.25
   9  -5  23    0.08    0.18
  11  -5  23    0.62    0.25
  13  -5  23    0.48    0.28
  15  -5  23    0.50    0.24
  17  -5  23   -0.03    0.20
  19  -5  23    0.01    0.26
  21  -5  23   -0.19    0.23
  27   3 -23   -0.22    0.33
  25   3 -23   -0.05    0.27
  23   3 -23   -0.04    0.29
  21   3 -23    0.23    0.26
  19   3 -23    0.28    0.28
  17   3 -23    0.18    0.24
  15   3 -23   -0.08    0.20
  13   3 -23    0.46    0.30
  11   3 -23    0.18    0.24
   9   3 -23    0.10    0.22
   7   3 -23    0.12    0.23
   5   3 -23    1.36    0.33
   3   3 -23    0.65    0.26
   1   3 -23    1.53    0.31
  -1  -3  23    2.50    0.33
  -1   3 -23    1.51    0.31
   1  -3  23    1.63    0.29
  -3   3 -23   -0.07    0.15
   3  -3  23   -0.10    0.14
   5  -3  23    0.66    0.24
   7  -3  23    0.03    0.15
   9  -3  23   -0.03    0.17
  11  -3  23   -0.01    0.19
  13  -3  23    0.39    0.25
  15  -3  23    0.23    0.20
  17  -3  23    0.94    0.34
  19  -3  23    0.00    0.24
  21  -3  23    0.08    0.26
  27   1 -23    0.32    0.37
  25   1 -23   -0.05    0.27
  23   1 -23    0.00    0.28
  21   1 -23    0.16    0.25
  19   1 -23    0.32    0.28
  17   1 -23    0.07    0.22
  15   1 -23    0.13    0.20
  13   1 -23    0.04    0.22
  11   1 -23    0.07    0.23
   9   1 -23   -0.08    0.20
   7   1 -23    0.56    0.27
   5   1 -23    0.23    0.22
   3   1 -23    1.90    0.35
   1   1 -23   -0.05    0.17
   1   1 -23    0.00    0.16
  -1  -1  23    0.06    0.16
  -1   1 -23    0.03    0.18
  -1   1 -23    0.08    0.16
   1  -1  23    0.04    0.15
  -3   1 -23    1.35    0.28
   3  -1  23    1.05    0.27
   5  -1  23   -0.10    0.13
   7  -1  23    0.02    0.18
   9  -1  23    0.06    0.17
  11  -1  23   -0.10    0.15
  13  -1  23    0.23    0.21
  15  -1  23    0.09    0.20
  17  -1  23    0.15    0.23
  19  -1  23    0.33    0.29
 -21   1 -23    0.02    0.19
  21  -1  23    0.13    0.27
  27  -1 -23   -0.04    0.33
  25  -1 -23   -0.32    0.27
  23  -1 -23    0.30    0.27
  21  -1 -23   -0.07    0.27
  19  -1 -23    0.21    0.24
  17  -1 -23    0.62    0.27
  15  -1 -23    0.24    0.24
  13  -1 -23    0.27    0.25
  13  -1 -23   -0.08    0.21
  11  -1 -23    0.06    0.21
  11  -1 -23    0.04    0.20
   9  -1 -23    0.16    0.20
   9  -1 -23    0.06    0.19
   7  -1 -23    0.29    0.22
   7  -1 -23    0.32    0.23
   5  -1 -23    0.11    0.17
   5  -1 -23   -0.02    0.19
   3  -1 -23    1.65    0.32
   3  -1 -23    1.39    0.27
   1  -1 -23   -0.08    0.15
   1  -1 -23    0.18    0.17
  -1   1  23   -0.02    0.13
  -1  -1 -23    0.05    0.16
  -1  -1 -23    0.10    0.15
   1   1  23    0.00    0.14
  -3  -1 -23    1.65    0.29
   3   1  23    1.47    0.29
   5   1  23    0.23    0.17
   7   1  23    0.34    0.19
   9   1  23    0.57    0.25
  11   1  23    0.05    0.19
  13   1  23   -0.06    0.19
  15   1  23   -0.09    0.17
 -17  -1 -23    0.53    0.25
  17   1  23    0.47    0.26
 -19  -1 -23    0.09    0.21
 -21  -1 -23   -0.03    0.22
  27  -3 -23   -0.25    0.31
  25  -3 -23   -0.15    0.30
  23  -3 -23    0.07    0.28
  21  -3 -23   -0.22    0.25
  21  -3 -23   -0.31    0.29
  19  -3 -23    0.12    0.26
  19  -3 -23    0.11    0.30
  17  -3 -23    0.66    0.32
  17  -3 -23    0.72    0.31
  15  -3 -23    0.10    0.22
  15  -3 -23   -0.27    0.22
  13  -3 -23    0.04    0.23
  11  -3 -23   -0.22    0.20
   9  -3 -23   -0.08    0.20
   7  -3 -23    0.00    0.18
   5  -3 -23    1.23    0.29
   3  -3 -23    0.22    0.19
   1  -3 -23    1.51    0.27
   1  -3 -23    1.12    0.27
  -1  -3 -23    0.97    0.23
  -1  -3 -23    1.45    0.30
   1   3  23    1.88    0.29
  -3  -3 -23    0.04    0.15
   3   3  23    0.01    0.14
  -5  -3 -23    1.06    0.26
   5   3  23    0.93    0.26
  -7  -3 -23    0.14    0.17
   7   3  23    0.06    0.15
  -9  -3 -23   -0.10    0.18
   9   3  23    0.13    0.20
 -11  -3 -23    0.09    0.20
 -13  -3 -23    0.24    0.25
 -15  -3 -23    0.04    0.24
 -17  -3 -23    0.61    0.30
 -19  -3 -23   -0.15    0.23
 -21  -3 -23   -0.01    0.26
  27  -5 -23   -0.04    0.33
  27  -5 -23    0.06    0.42
  25  -5 -23    0.07    0.38
  25  -5 -23    0.20    0.32
  23  -5 -23   -0.06    0.33
  23  -5 -23    0.27    0.32
  21  -5 -23   -0.32    0.25
  21  -5 -23    0.00    0.30
  19  -5 -23   -0.01    0.22
  19  -5 -23   -0.11    0.25
  17  -5 -23    0.18    0.25
  15  -5 -23    0.62    0.29
  13  -5 -23    0.25    0.25
  11  -5 -23    0.63    0.27
   9  -5 -23   -0.07    0.20
   7  -5 -23    0.65    0.26
   5  -5 -23    0.03    0.20
   3  -5 -23    1.00    0.29
   1  -5 -23    0.18    0.22
  -1  -5 -23    0.05    0.20
  -1  -5 -23    0.04    0.17
  -3  -5 -23    0.96    0.27
  -5  -5 -23   -0.20    0.15
  -7  -5 -23    1.07    0.30
  -9  -5 -23    0.24    0.23
 -11  -5 -23    0.24    0.25
 -13  -5 -23    0.50    0.27
 -15  -5 -23    0.44    0.30
 -17  -5 -23    0.13    0.28
 -19  -5 -23    0.07    0.26
 -21  -5 -23    0.22    0.25
  27  -7 -23    0.21    0.43
  25  -7 -23    0.26    0.33
  25  -7 -23   -0.21    0.38
  23  -7 -23    0.10    0.30
  23  -7 -23    0.11    0.36
  21  -7 -23   -0.35    0.29
  19  -7 -23   -0.08    0.29
  17  -7 -23   -0.04    0.25
  15  -7 -23   -0.26    0.24
  13  -7 -23   -0.11    0.22
  11  -7 -23   -0.02    0.24
   9  -7 -23   -0.08    0.21
   7  -7 -23   -0.16    0.19
   5  -7 -23    0.99    0.31
   3  -7 -23   -0.22    0.16
   1  -7 -23    0.31    0.22
  -1  -7 -23    0.15    0.21
  -1  -7 -23    0.49    0.21
  -3  -7 -23   -0.18    0.15
  -5  -7 -23    0.68    0.26
  -7  -7 -23   -0.19    0.16
  -9  -7 -23   -0.17    0.19
 -11  -7 -23   -0.11    0.20
 -13  -7 -23    0.02    0.21
 -15  -7 -23    0.07    0.23
 -17  -7 -23    0.41    0.32
 -19  -7 -23   -0.14    0.26
 -21  -7 -23    0.13    0.25
  25  -9 -23   -0.42    0.37
  25  -9 -23    0.28    0.34
  23  -9 -23    0.01    0.34
  21  -9 -23   -0.20    0.27
  19  -9 -23    0.29    0.33
  17  -9 -23   -0.07    0.24
  15  -9 -23   -0.19    0.23
  13  -9 -23   -0.01    0.23
  11  -9 -23   -0.03    0.25
   9  -9 -23   -0.27    0.21
   7  -9 -23    0.15    0.25
   5  -9 -23   -0.01    0.22
   3  -9 -23   -0.06    0.18
   1  -9 -23    0.41    0.24
  -1  -9 -23    0.19    0.20
  -1  -9 -23    0.02    0.20
  -3  -9 -23   -0.03    0.20
  -5  -9 -23   -0.11    0.19
  -7  -9 -23    0.20    0.23
  -9  -9 -23   -0.01    0.20
 -11  -9 -23   -0.07    0.19
 -13  -9 -23    0.38    0.28
 -15  -9 -23    0.43    0.29
 -17  -9 -23    0.01    0.26
 -19  -9 -23   -0.12    0.27
  25 -11 -23    0.50    0.43
  23 -11 -23    0.31    0.39
  21 -11 -23   -0.48    0.31
  19 -11 -23   -0.40    0.28
  17 -11 -23    0.13    0.29
  15 -11 -23   -0.17    0.26
  13 -11 -23   -0.12    0.24
  11 -11 -23   -0.19    0.22
   9 -11 -23   -0.07    0.22
   7 -11 -23    0.09    0.22
   5 -11 -23    0.51    0.30
   3 -11 -23   -0.05    0.21
   1 -11 -23   -0.12    0.20
  -1 -11 -23    0.06    0.21
  -1 -11 -23    0.17    0.22
  -3 -11 -23    0.03    0.20
  -3 -11 -23    0.00    0.21
  -5 -11 -23    0.50    0.26
  -7 -11 -23   -0.04    0.22
  -9 -11 -23    0.03    0.22
 -11 -11 -23    0.02    0.21
 -13 -11 -23   -0.06    0.23
 -15 -11 -23   -0.26    0.26
 -17 -11 -23    0.23    0.31
 -19 -11 -23   -0.20    0.27
  23 -13 -23    0.19    0.40
  21 -13 -23   -0.59    0.30
  19 -13 -23    0.20    0.32
  17 -13 -23    0.52    0.36
  15 -13 -23    0.10    0.30
  13 -13 -23   -0.12    0.27
  11 -13 -23    0.21    0.24
   9 -13 -23    0.41    0.29
   7 -13 -23    0.14    0.25
   5 -13 -23    0.38    0.28
   3 -13 -23    0.16    0.23
   1 -13 -23    0.13    0.21
  -1 -13 -23    0.15    0.24
  -3 -13 -23    0.43    0.25
  -3 -13 -23    0.29    0.25
  -5 -13 -23    0.14    0.24
  -7 -13 -23   -0.12    0.22
  -9 -13 -23    0.69    0.33
 -11 -13 -23    0.00    0.24
 -13 -13 -23   -0.01    0.25
 -15 -13 -23   -0.09    0.25
 -17 -13 -23   -0.03    0.29
  21 -15 -23   -0.58    0.31
  19 -15 -23   -0.48    0.26
  17 -15 -23   -0.06    0.27
  15 -15 -23   -0.33    0.27
  13 -15 -23   -0.03    0.30
  11 -15 -23   -0.02    0.25
   9 -15 -23    0.00    0.24
   7 -15 -23   -0.08    0.25
   5 -15 -23    0.04    0.28
   3 -15 -23   -0.11    0.22
   1 -15 -23    0.16    0.25
  -1 -15 -23    0.16    0.22
  -3 -15 -23   -0.03    0.21
  -3 -15 -23    0.20    0.24
  -5 -15 -23   -0.06    0.24
  -7 -15 -23   -0.26    0.21
  -9 -15 -23   -0.21    0.22
 -11 -15 -23   -0.09    0.25
 -13 -15 -23   -0.23    0.25
 -15 -15 -23    0.02    0.30
  19 -17 -23   -0.24    0.32
  17 -17 -23   -0.20    0.32
  15 -17 -23   -0.19    0.30
  13 -17 -23    0.31    0.33
  11 -17 -23    0.39    0.34
   9 -17 -23    0.11    0.27
   7 -17 -23    0.22    0.30
   5 -17 -23   -0.24    0.22
   3 -17 -23    0.68    0.33
   1 -17 -23    0.52    0.31
  -1 -17 -23    0.67    0.34
  -3 -17 -23    0.06    0.28
  -3 -17 -23    0.58    0.31
  -5 -17 -23    0.12    0.25
  -5 -17 -23    0.23    0.28
  -7 -17 -23   -0.29    0.21
  -9 -17 -23    0.18    0.28
 -11 -17 -23    0.04    0.30
 -13 -17 -23   -0.27    0.26
  19 -19 -23    0.23    0.41
  17 -19 -23   -0.13    0.35
  15 -19 -23    0.11    0.33
  13 -19 -23    0.07    0.32
  11 -19 -23    0.09    0.31
   9 -19 -23   -0.17    0.27
   7 -19 -23    0.02    0.27
   5 -19 -23    0.12    0.28
   3 -19 -23    0.13    0.28
   1 -19 -23   -0.12    0.27
  -1 -19 -23    0.07    0.29
  -3 -19 -23    0.03    0.24
  -5 -19 -23    0.48    0.31
  -5 -19 -23    0.24    0.26
  -7 -19 -23   -0.20    0.25
  -9 -19 -23    0.06    0.29
 -11 -19 -23   -0.14    0.30
  15 -21 -23    0.02    0.38
  13 -21 -23    0.02    0.32
  11 -21 -23   -0.37    0.27
   9 -21 -23    0.12    0.28
   7 -21 -23   -0.23    0.23
   5 -21 -23    0.10    0.27
   3 -21 -23    0.14    0.26
   1 -21 -23   -0.08    0.24
  -1 -21 -23    0.11    0.27
  -3 -21 -23   -0.06    0.23
  -5 -21 -23    0.02    0.24
  -5 -21 -23   -0.19    0.27
  -7 -21 -23   -0.40    0.29
  -7 -21 -23    0.01    0.26
  -9 -21 -23    0.22    0.34
  13 -23 -23   -0.15    0.31
  11 -23 -23   -0.24    0.27
   9 -23 -23    0.43    0.35
   7 -23 -23   -0.01    0.27
   5 -23 -23   -0.04    0.28
   3 -23 -23   -0.07    0.27
   1 -23 -23    0.14    0.28
  -1 -23 -23    0.12    0.28
  -3 -23 -23    0.08    0.29
  -5 -23 -23   -0.15    0.31
  -5 -23 -23    0.04    0.28
  -7 -23 -23   -0.03    0.35
  -7 -23 -23   -0.16    0.25
  -9 -23 -23   -0.14    0.27
   9 -25 -23   -0.46    0.30
   7 -25 -23   -0.29    0.29
   5 -25 -23    0.10    0.33
   3 -25 -23   -0.13    0.30
   1 -25 -23   -0.08    0.29
  -1 -25 -23    0.21    0.31
  -3 -25 -23   -0.03    0.29
  -5 -25 -23    0.33    0.35
  -7 -25 -23    0.32    0.35
  -9 -25 -23    0.01    0.28
  -1 -27 -23    0.19    0.33
   6  26 -24    0.35    0.45
   4  26 -24    0.20    0.43
   2  26 -24   -0.21    0.36
  10  24 -24    1.12    0.48
   8  24 -24   12.59    1.03
   6  24 -24    0.11    0.39
   4  24 -24   12.91    1.03
   2  24 -24    0.18    0.38
  12  22 -24    0.05    0.37
  10  22 -24    0.38    0.41
   8  22 -24    0.37    0.41
   6  22 -24   -0.04    0.34
   4  22 -24   -0.10    0.34
  -4 -22  24    0.10    0.26
   2  22 -24    0.14    0.33
  -2 -22  24    0.46    0.30
   0  22 -24   -0.21    0.32
   0 -22  24    0.28    0.29
   2 -22  24    0.12    0.25
  16  20 -24    8.56    0.91
  14  20 -24    0.43    0.41
  12  20 -24   19.76    1.26
  10  20 -24    1.62    0.50
   8  20 -24   21.93    1.26
   6  20 -24    1.15    0.44
   4  20 -24   27.07    1.32
  -4 -20  24   26.13    1.21
   2  20 -24    1.44    0.44
  -2 -20  24    1.14    0.35
   0  20 -24   21.33    1.15
   0 -20  24   21.28    1.10
   2 -20  24    1.25    0.38
   4 -20  24   26.61    1.31
   6 -20  24    0.70    0.32
  18  18 -24   -0.35    0.31
  16  18 -24    0.34    0.38
  14  18 -24    0.19    0.38
  12  18 -24   -0.26    0.28
  10  18 -24    0.21    0.31
   8  18 -24    0.01    0.30
   6  18 -24   -0.28    0.28
   4  18 -24    0.25    0.33
  -4 -18  24    0.40    0.24
   2  18 -24    0.14    0.30
  -2 -18  24    0.03    0.21
   0  18 -24   -0.01    0.27
   0 -18  24    0.03    0.22
   2 -18  24    0.12    0.21
   4 -18  24    0.50    0.25
   6 -18  24    0.62    0.29
   8 -18  24    0.19    0.29
  10 -18  24   -0.20    0.21
  20  16 -24   11.27    0.98
  18  16 -24    0.03    0.32
  16  16 -24   21.11    1.30
  14  16 -24    0.17    0.37
  12  16 -24   12.86    0.95
  10  16 -24    0.50    0.36
   8  16 -24   30.06    1.39
   6  16 -24    0.13    0.27
   4  16 -24   24.09    1.19
  -4 -16  24   23.96    1.06
   2  16 -24    1.15    0.37
  -2 -16  24    0.70    0.28
   0  16 -24   40.26    1.49
   0 -16  24   39.51    1.48
   2 -16  24    0.92    0.31
   4 -16  24   24.05    1.15
   6 -16  24    0.21    0.23
   8 -16  24   32.73    1.41
  10 -16  24    1.04    0.36
  12 -16  24   15.94    1.03
  20  14 -24    0.34    0.38
  18  14 -24   -0.15    0.28
  16  14 -24    0.54    0.41
  14  14 -24   -0.23    0.30
  12  14 -24    0.45    0.35
  10  14 -24    0.66    0.33
   8  14 -24    1.01    0.37
   6  14 -24   -0.06    0.24
   4  14 -24    0.49    0.30
   2  14 -24    0.16    0.26
  -2 -14  24    0.30    0.22
   0  14 -24    0.06    0.23
   0 -14  24    0.12    0.21
   2 -14  24    0.77    0.27
   4 -14  24    0.37    0.24
   6 -14  24    0.30    0.23
   8 -14  24    0.82    0.33
  10 -14  24    0.83    0.34
  12 -14  24    0.12    0.25
  14 -14  24   -0.01    0.25
  22  12 -24    0.02    0.33
  20  12 -24   20.47    1.26
  18  12 -24    0.02    0.30
  16  12 -24   16.06    1.11
  14  12 -24    0.23    0.31
  12  12 -24   27.17    1.35
  10  12 -24    0.26    0.29
   8  12 -24   22.98    1.18
   6  12 -24    0.19    0.24
   4  12 -24   39.85    1.52
   2  12 -24    0.08    0.23
  -2 -12  24    0.28    0.20
   0  12 -24   21.18    1.03
   0 -12  24   24.27    1.05
   2 -12  24    0.44    0.23
   4 -12  24   41.05    1.49
   6 -12  24    0.37    0.26
   8 -12  24   22.88    1.12
  10 -12  24    0.12    0.22
  12 -12  24   26.52    1.27
  14 -12  24    0.55    0.30
  16 -12  24   15.60    1.00
  24  10 -24    0.59    0.42
  22  10 -24   -0.02    0.33
  20  10 -24    0.10    0.30
  18  10 -24    0.01    0.25
  16  10 -24    0.19    0.34
  14  10 -24    0.87    0.39
  12  10 -24   -0.19    0.23
  10  10 -24   -0.07    0.23
   8  10 -24    0.68    0.32
   6  10 -24    1.52    0.36
   4  10 -24    0.13    0.26
   2  10 -24    0.72    0.30
  -2 -10  24    0.68    0.25
   0  10 -24    0.15    0.24
   0 -10  24    0.11    0.19
  -2  10 -24    0.51    0.27
   2 -10  24    0.29    0.23
   4 -10  24    0.71    0.26
   6 -10  24    0.94    0.30
   8 -10  24    0.80    0.32
  10 -10  24    0.05    0.20
  12 -10  24    0.25    0.24
  14 -10  24    0.48    0.28
  16 -10  24    0.42    0.32
  18 -10  24   -0.03    0.25
  24   8 -24   14.93    1.11
  22   8 -24   -0.03    0.29
  20   8 -24   19.50    1.21
  18   8 -24   -0.20    0.22
  16   8 -24   31.91    1.50
  14   8 -24    0.37    0.30
  12   8 -24   26.47    1.30
  10   8 -24    0.65    0.32
   8   8 -24   64.15    2.06
   6   8 -24    0.67    0.29
   4   8 -24   54.19    1.78
   2   8 -24    1.60    0.35
  -2  -8  24    0.88    0.24
   0   8 -24   71.11    2.01
   0  -8  24   71.24    1.95
  -2   8 -24    1.38    0.33
   2  -8  24    0.87    0.28
   4  -8  24   54.83    1.71
   6  -8  24    0.50    0.25
   8  -8  24   63.30    1.95
  10  -8  24    0.34    0.24
  12  -8  24   22.41    1.12
  14  -8  24    0.16    0.24
  16  -8  24   35.18    1.50
  18  -8  24    0.18    0.29
  24   6 -24   -0.20    0.32
  22   6 -24   -0.36    0.27
  20   6 -24    0.82    0.39
  18   6 -24    0.54    0.31
  16   6 -24   -0.16    0.25
  14   6 -24    0.18    0.30
  12   6 -24    0.04    0.28
  10   6 -24    1.18    0.34
   8   6 -24    0.42    0.32
   6   6 -24    0.27    0.24
   4   6 -24    0.08    0.25
   2   6 -24    0.71    0.29
  -2  -6  24    0.59    0.21
   0   6 -24   -0.18    0.22
   0  -6  24   -0.05    0.17
  -2   6 -24    1.07    0.28
   2  -6  24    1.04    0.28
   4  -6  24    0.55    0.25
   6  -6  24    0.24    0.23
   8  -6  24   -0.03    0.22
  10  -6  24    1.62    0.37
  12  -6  24    0.14    0.21
  14  -6  24   -0.19    0.20
  16  -6  24    0.03    0.24
  18  -6  24    0.41    0.32
  20  -6  24    0.17    0.32
  26   4 -24    0.12    0.37
  24   4 -24   13.29    1.05
  22   4 -24   -0.02    0.26
  20   4 -24   26.97    1.39
  18   4 -24    0.41    0.28
  16   4 -24   25.13    1.29
  14   4 -24    0.49    0.30
  12   4 -24   43.38    1.67
  10   4 -24    0.59    0.32
   8   4 -24   50.84    1.75
   6   4 -24    0.79    0.29
   4   4 -24   79.92    2.25
   2   4 -24    0.68    0.28
  -2  -4  24    0.56    0.22
   0   4 -24   50.19    1.61
   0  -4  24   49.86    1.51
  -2   4 -24    0.77    0.26
   2  -4  24    0.58    0.24
   4  -4  24   76.85    2.06
   6  -4  24    0.58    0.25
   8  -4  24   51.46    1.69
  10  -4  24    0.09    0.22
  12  -4  24   45.37    1.64
  14  -4  24    0.07    0.20
  16  -4  24   23.62    1.19
  18  -4  24    0.17    0.25
  20  -4  24   28.25    1.40
  26   2 -24    0.05    0.34
  24   2 -24    0.08    0.31
  22   2 -24   -0.08    0.24
  20   2 -24    0.24    0.31
  18   2 -24    0.15    0.26
  16   2 -24    0.16    0.32
  14   2 -24    0.18    0.28
  12   2 -24   -0.32    0.24
  10   2 -24    0.69    0.30
   8   2 -24    0.91    0.36
   6   2 -24    0.66    0.29
   4   2 -24   -0.20    0.24
   2   2 -24    0.47    0.28
   0   2 -24   -0.42    0.20
   0  -2  24    0.11    0.18
  -2   2 -24    0.51    0.24
   2  -2  24    0.89    0.25
   4  -2  24    0.42    0.23
   6  -2  24    1.03    0.28
   8  -2  24    1.24    0.34
  10  -2  24    0.19    0.20
  12  -2  24   -0.18    0.19
  14  -2  24    0.19    0.24
  16  -2  24    0.53    0.30
  18  -2  24    0.26    0.26
  20  -2  24    0.58    0.39
  26   0 -24   -0.10    0.31
  24   0 -24   18.52    1.21
  22   0 -24    0.00    0.28
  20   0 -24   21.70    1.23
  18   0 -24    0.04    0.26
  16   0 -24   41.12    1.66
  14   0 -24   -0.05    0.24
  12   0 -24   22.00    1.14
  10   0 -24   -0.09    0.22
   8   0 -24   69.36    2.10
   6   0 -24   -0.12    0.19
   4   0 -24   48.50    1.63
   2   0 -24    0.17    0.23
   2   0 -24   -0.73    0.17
   0   0 -24   98.50    2.46
   0   0 -24   97.15    2.33
   0   0  24   92.94    2.27
  -2   0 -24    0.38    0.22
  -2   0 -24   -0.16    0.18
   2   0  24   -0.07    0.16
   4   0  24   44.61    1.45
   6   0  24    0.02    0.17
   8   0  24   71.63    2.04
  10   0  24   -0.16    0.15
  12   0  24   24.23    1.13
  14   0  24   -0.08    0.18
  16   0  24   43.39    1.66
  18   0  24   -0.05    0.23
 -20   0 -24   19.25    1.09
  26  -2 -24    0.12    0.38
  24  -2 -24    0.00    0.34
  22  -2 -24    0.09    0.29
  20  -2 -24    0.14    0.30
  18  -2 -24    0.11    0.25
  16  -2 -24    0.32    0.29
  14  -2 -24   -0.13    0.22
  14  -2 -24    0.36    0.28
  12  -2 -24    0.00    0.22
  12  -2 -24    0.17    0.24
  10  -2 -24    0.88    0.32
  10  -2 -24    0.70    0.28
   8  -2 -24    1.16    0.30
   6  -2 -24    0.93    0.27
   4  -2 -24    0.63    0.25
   2  -2 -24    0.17    0.21
   0  -2 -24    0.05    0.19
   0   2  24   -0.36    0.20
  -2  -2 -24    0.34    0.22
   2   2  24    0.80    0.26
   4   2  24    0.06    0.20
   6   2  24    1.07    0.30
   8   2  24    0.83    0.30
  10   2  24    0.64    0.28
 -12  -2 -24   -0.10    0.19
  12   2  24    0.06    0.20
 -14  -2 -24    0.18    0.22
  14   2  24    0.15    0.22
 -16  -2 -24    1.16    0.39
 -18  -2 -24    0.22    0.26
 -20  -2 -24    1.31    0.40
  26  -4 -24    0.19    0.36
  24  -4 -24   10.65    0.93
  22  -4 -24    0.20    0.27
  22  -4 -24    0.11    0.35
  20  -4 -24   24.15    1.21
  20  -4 -24   27.90    1.40
  18  -4 -24    0.19    0.29
  18  -4 -24    0.35    0.29
  16  -4 -24   24.14    1.14
  16  -4 -24   24.79    1.24
  14  -4 -24    0.04    0.23
  12  -4 -24   38.51    1.41
  10  -4 -24    0.39    0.28
   8  -4 -24   55.38    1.70
   6  -4 -24    0.16    0.24
   4  -4 -24   80.61    2.15
   2  -4 -24    0.10    0.25
   0  -4 -24   43.24    1.34
   0  -4 -24   45.74    1.48
  -2  -4 -24    0.11    0.20
  -2  -4 -24    0.41    0.25
  -4  -4 -24   76.28    2.03
  -6  -4 -24    0.00    0.19
  -8  -4 -24   52.98    1.69
 -10  -4 -24    0.42    0.27
 -12  -4 -24   39.06    1.48
 -14  -4 -24    0.33    0.24
 -16  -4 -24   20.18    1.09
 -18  -4 -24    0.17    0.28
 -20  -4 -24   28.85    1.39
  26  -6 -24    0.23    0.42
  24  -6 -24    0.25    0.35
  24  -6 -24    0.08    0.37
  22  -6 -24    0.32    0.34
  22  -6 -24    0.26    0.34
  20  -6 -24    0.45    0.33
  20  -6 -24    0.25    0.29
  18  -6 -24   -0.11    0.27
  16  -6 -24   -0.03    0.27
  14  -6 -24    0.33    0.28
  12  -6 -24    0.30    0.26
  10  -6 -24    0.92    0.32
   8  -6 -24    0.41    0.27
   6  -6 -24    0.31    0.22
   4  -6 -24    0.07    0.22
   2  -6 -24    1.18    0.31
   0  -6 -24    0.16    0.23
  -2  -6 -24    0.66    0.25
  -2  -6 -24    0.70    0.29
  -4  -6 -24    0.39    0.26
  -6  -6 -24    0.09    0.20
  -8  -6 -24    0.43    0.29
 -10  -6 -24    0.81    0.32
 -12  -6 -24   -0.28    0.22
 -14  -6 -24    0.28    0.28
 -16  -6 -24   -0.05    0.26
 -18  -6 -24    0.19    0.26
 -20  -6 -24    0.11    0.34
  26  -8 -24   -0.10    0.36
  24  -8 -24   18.69    1.18
  24  -8 -24   14.43    1.08
  22  -8 -24   -0.27    0.33
  20  -8 -24   19.57    1.14
  18  -8 -24   -0.07    0.29
  16  -8 -24   29.30    1.32
  14  -8 -24    0.12    0.29
  12  -8 -24   23.96    1.15
  10  -8 -24    0.85    0.34
   8  -8 -24   60.97    1.89
   6  -8 -24    0.55    0.33
   4  -8 -24   51.24    1.69
   2  -8 -24    1.03    0.35
   0  -8 -24   68.99    2.03
  -2  -8 -24    1.44    0.31
  -2  -8 -24    1.31    0.37
  -4  -8 -24   51.78    1.61
  -6  -8 -24    1.06    0.31
  -8  -8 -24   64.50    1.93
 -10  -8 -24    1.23    0.35
 -12  -8 -24   26.39    1.22
 -14  -8 -24    0.69    0.33
 -16  -8 -24   31.10    1.41
 -18  -8 -24    0.33    0.32
  24 -10 -24    1.00    0.50
  22 -10 -24   -0.26    0.29
  20 -10 -24    1.25    0.46
  18 -10 -24   -0.08    0.28
  16 -10 -24    0.68    0.37
  14 -10 -24    1.05    0.37
  12 -10 -24    0.11    0.28
  10 -10 -24    0.04    0.25
   8 -10 -24    0.46    0.26
   6 -10 -24    1.39    0.35
   4 -10 -24    0.37    0.28
   2 -10 -24    1.11    0.34
   0 -10 -24   -0.04    0.24
  -2 -10 -24    1.38    0.31
  -2 -10 -24    1.10    0.35
  -4 -10 -24    0.76    0.29
  -6 -10 -24    1.15    0.32
  -8 -10 -24    1.06    0.37
 -10 -10 -24    0.07    0.24
 -12 -10 -24    0.37    0.29
 -14 -10 -24    1.24    0.38
 -16 -10 -24    0.12    0.29
 -18 -10 -24   -0.13    0.26
  22 -12 -24   -0.08    0.31
  20 -12 -24   17.02    1.12
  18 -12 -24   -0.13    0.32
  16 -12 -24   14.54    0.96
  14 -12 -24   -0.17    0.29
  12 -12 -24   27.32    1.29
  10 -12 -24    0.03    0.28
   8 -12 -24   22.57    1.13
   6 -12 -24   -0.03    0.28
   4 -12 -24   41.37    1.57
   2 -12 -24    0.14    0.27
   0 -12 -24   21.03    1.08
  -2 -12 -24   -0.16    0.25
  -2 -12 -24    0.09    0.22
  -4 -12 -24   43.54    1.49
  -6 -12 -24    0.42    0.27
  -8 -12 -24   23.71    1.12
 -10 -12 -24    0.12    0.25
 -12 -12 -24   25.45    1.24
 -14 -12 -24    0.51    0.32
 -16 -12 -24   13.36    0.94
  22 -14 -24    0.27    0.41
  20 -14 -24    0.18    0.34
  18 -14 -24   -0.20    0.31
  16 -14 -24    0.82    0.39
  14 -14 -24    0.56    0.34
  12 -14 -24    0.27    0.33
  10 -14 -24    0.97    0.37
   8 -14 -24    0.23    0.28
   6 -14 -24    0.07    0.27
   4 -14 -24    0.01    0.26
   2 -14 -24    0.40    0.29
   0 -14 -24    0.03    0.22
  -2 -14 -24    0.12    0.27
  -4 -14 -24    0.21    0.27
  -4 -14 -24    0.05    0.27
  -6 -14 -24   -0.06    0.22
  -8 -14 -24    0.41    0.28
 -10 -14 -24    0.40    0.33
 -12 -14 -24    0.22    0.32
 -14 -14 -24   -0.32    0.25
 -16 -14 -24    0.22    0.35
  20 -16 -24   10.79    0.96
  18 -16 -24   -0.22    0.34
  16 -16 -24   21.96    1.26
  14 -16 -24   -0.12    0.32
  12 -16 -24   16.39    1.06
  10 -16 -24    0.36    0.33
   8 -16 -24   33.32    1.47
   6 -16 -24   -0.11    0.26
   4 -16 -24   23.69    1.21
   2 -16 -24    0.43    0.37
   0 -16 -24   42.33    1.67
  -2 -16 -24    0.26    0.31
  -4 -16 -24   23.43    1.09
  -4 -16 -24   21.75    1.17
  -6 -16 -24   -0.01    0.26
  -8 -16 -24   29.58    1.30
 -10 -16 -24    0.59    0.33
 -12 -16 -24   16.85    1.05
 -14 -16 -24    0.23    0.34
  18 -18 -24   -0.30    0.33
  16 -18 -24    0.09    0.36
  14 -18 -24   -0.03    0.34
  12 -18 -24    0.08    0.31
  10 -18 -24    0.26    0.31
   8 -18 -24    0.14    0.30
   6 -18 -24    0.13    0.27
   4 -18 -24    0.22    0.28
   2 -18 -24   -0.02    0.26
   0 -18 -24    0.05    0.27
  -2 -18 -24    0.24    0.31
  -4 -18 -24    0.18    0.32
  -4 -18 -24    0.32    0.32
  -6 -18 -24   -0.13    0.28
  -6 -18 -24    0.54    0.34
  -8 -18 -24    0.33    0.34
 -10 -18 -24   -0.26    0.28
 -12 -18 -24   -0.06    0.31
  16 -20 -24   10.78    0.95
  14 -20 -24   -0.01    0.38
  12 -20 -24   19.57    1.24
  10 -20 -24    1.18    0.45
   8 -20 -24   18.87    1.19
   6 -20 -24    0.49    0.39
   4 -20 -24   24.45    1.31
   2 -20 -24    0.26    0.40
   0 -20 -24   20.90    1.22
  -2 -20 -24    1.63    0.45
  -4 -20 -24   25.99    1.33
  -6 -20 -24    0.22    0.31
  -6 -20 -24    0.30    0.35
  -8 -20 -24   20.02    1.14
 -10 -20 -24    0.80    0.39
  12 -22 -24    0.27    0.36
  10 -22 -24    0.29    0.35
   8 -22 -24    0.28    0.32
   6 -22 -24   -0.04    0.27
   4 -22 -24    0.50    0.35
   2 -22 -24    0.23    0.30
   0 -22 -24   -0.07    0.28
  -2 -22 -24    0.18    0.26
  -4 -22 -24   -0.20    0.25
  -6 -22 -24    0.38    0.35
  -6 -22 -24    0.66    0.40
  -8 -22 -24    0.27    0.34
   8 -24 -24   14.66    1.06
   6 -24 -24   -0.15    0.30
   4 -24 -24   10.79    0.92
   2 -24 -24   -0.07    0.31
   0 -24 -24   19.58    1.22
  -2 -24 -24    0.59    0.36
  -4 -24 -24   10.59    0.92
  -6 -24 -24   -0.33    0.32
  -8 -24 -24   15.10    1.08
   0 -26 -24   -0.08    0.31
   5  25 -25    0.11    0.41
   3  25 -25    0.17    0.37
   9  23 -25   -0.53    0.34
   7  23 -25    0.29    0.40
   5  23 -25   -0.44    0.37
   3  23 -25   -0.12    0.37
   1  23 -25   -0.54    0.35
  13  21 -25   -0.11    0.39
  11  21 -25   -0.19    0.38
   9  21 -25    0.53    0.37
   7  21 -25   -0.08    0.31
   5  21 -25    0.17    0.37
   3  21 -25    0.23    0.38
  -3 -21  25    0.21    0.27
   1  21 -25    0.00    0.34
  -1 -21  25    0.05    0.22
   1 -21  25    0.03    0.25
  15  19 -25    0.05    0.41
  13  19 -25    1.17    0.48
  11  19 -25    0.11    0.32
   9  19 -25   -0.11    0.35
   7  19 -25   -0.08    0.29
   5  19 -25   -0.32    0.33
   3  19 -25    0.00    0.31
  -3 -19  25    0.17    0.24
   1  19 -25    0.15    0.33
  -1 -19  25    0.16    0.26
   1 -19  25    0.12    0.24
   3 -19  25    0.21    0.27
   5 -19  25   -0.21    0.22
   7 -19  25    0.17    0.26
  17  17 -25   -0.21    0.35
  15  17 -25    0.21    0.35
  13  17 -25   -0.15    0.32
  11  17 -25    0.28    0.34
   9  17 -25    0.13    0.29
   7  17 -25   -0.09    0.28
   5  17 -25   -0.32    0.24
   3  17 -25    0.00    0.28
  -3 -17  25    0.28    0.24
   1  17 -25    0.27    0.31
  -1 -17  25    0.16    0.25
   1 -17  25    0.27    0.25
   3 -17  25    0.07    0.23
   5 -17  25    0.27    0.24
   7 -17  25    0.19    0.26
   9 -17  25   -0.25    0.24
  19  15 -25   -0.05    0.32
  17  15 -25    0.34    0.41
  15  15 -25   -0.04    0.34
  13  15 -25    0.00    0.32
  11  15 -25    0.38    0.35
   9  15 -25   -0.02    0.32
   7  15 -25   -0.14    0.25
   5  15 -25   -0.08    0.27
   3  15 -25   -0.38    0.21
  -3 -15  25    0.28    0.22
   1  15 -25    0.17    0.30
  -1 -15  25    0.41    0.25
   1 -15  25    0.07    0.20
   3 -15  25   -0.10    0.21
   5 -15  25   -0.01    0.23
   7 -15  25    0.08    0.23
   9 -15  25   -0.11    0.22
  11 -15  25    0.32    0.28
  13 -15  25   -0.14    0.26
  21  13 -25   -0.18    0.34
  19  13 -25    0.17    0.32
  17  13 -25   -0.02    0.34
  15  13 -25   -0.14    0.33
  13  13 -25    0.06    0.28
  11  13 -25    0.09    0.31
   9  13 -25    0.27    0.28
   7  13 -25   -0.06    0.27
   5  13 -25   -0.04    0.25
   3  13 -25   -0.07    0.24
   1  13 -25   -0.26    0.22
  -1 -13  25   -0.02    0.16
  -1  13 -25   -0.31    0.20
   1 -13  25   -0.09    0.19
   3 -13  25    0.00    0.20
   5 -13  25   -0.08    0.20
   7 -13  25    0.13    0.23
   9 -13  25    0.01    0.21
  11 -13  25    0.28    0.24
  13 -13  25   -0.08    0.22
  15 -13  25   -0.18    0.23
  21  11 -25   -0.04    0.31
  19  11 -25    0.01    0.30
  17  11 -25   -0.17    0.31
  15  11 -25    0.71    0.39
  13  11 -25    0.12    0.28
  11  11 -25   -0.14    0.24
   9  11 -25   -0.20    0.23
   7  11 -25    0.04    0.26
   5  11 -25   -0.17    0.21
   3  11 -25    0.04    0.24
   1  11 -25   -0.07    0.23
  -1 -11  25   -0.02    0.19
  -1  11 -25   -0.12    0.22
   1 -11  25    0.00    0.19
   3 -11  25   -0.12    0.15
   5 -11  25   -0.14    0.18
   7 -11  25    0.02    0.21
   9 -11  25    0.01    0.18
  11 -11  25   -0.20    0.21
  13 -11  25   -0.32    0.21
  15 -11  25    0.35    0.28
  23   9 -25   -0.24    0.28
  21   9 -25   -0.07    0.32
  19   9 -25   -0.10    0.25
  17   9 -25    0.49    0.36
  15   9 -25   -0.04    0.26
  13   9 -25    0.14    0.29
  11   9 -25   -0.06    0.23
   9   9 -25   -0.10    0.22
   7   9 -25    0.06    0.22
   5   9 -25    0.16    0.25
   3   9 -25    0.48    0.27
   1   9 -25    0.07    0.21
  -1  -9  25    0.30    0.21
  -1   9 -25    0.27    0.24
   1  -9  25    0.04    0.19
   3  -9  25    0.01    0.18
   5  -9  25   -0.02    0.18
   7  -9  25   -0.01    0.18
   9  -9  25   -0.22    0.21
  11  -9  25    0.09    0.21
  13  -9  25    0.27    0.28
  15  -9  25   -0.15    0.21
  17  -9  25    0.51    0.32
  23   7 -25    0.08    0.34
  21   7 -25   -0.21    0.30
  19   7 -25    0.11    0.28
  17   7 -25   -0.08    0.26
  15   7 -25    0.17    0.30
  13   7 -25   -0.33    0.24
  11   7 -25    0.02    0.22
   9   7 -25   -0.26    0.19
   7   7 -25    0.15    0.26
   5   7 -25   -0.05    0.23
   3   7 -25    0.01    0.22
   1   7 -25   -0.15    0.19
  -1  -7  25    0.05    0.18
  -1   7 -25   -0.05    0.21
   1  -7  25    0.04    0.18
   3  -7  25    0.08    0.19
   5  -7  25   -0.01    0.19
   7  -7  25   -0.01    0.18
   9  -7  25   -0.08    0.20
  11  -7  25   -0.45    0.16
  13  -7  25    0.04    0.19
  15  -7  25    0.04    0.23
  17  -7  25    0.03    0.26
  23   5 -25    0.44    0.35
  21   5 -25    0.23    0.31
  19   5 -25    0.26    0.27
  17   5 -25   -0.15    0.24
  15   5 -25    0.59    0.31
  13   5 -25   -0.32    0.22
  11   5 -25    0.17    0.24
   9   5 -25   -0.07    0.23
   7   5 -25    0.11    0.22
   5   5 -25    0.25    0.23
   3   5 -25    0.06    0.23
   1   5 -25    0.26    0.24
  -1  -5  25    0.11    0.17
  -1   5 -25    0.15    0.21
   1  -5  25    0.08    0.19
   3  -5  25    0.05    0.19
   5  -5  25   -0.07    0.16
   7  -5  25    0.07    0.19
   9  -5  25    0.13    0.22
  11  -5  25    0.30    0.22
  13  -5  25   -0.01    0.19
  15  -5  25    0.17    0.24
  17  -5  25    0.07    0.21
  19  -5  25   -0.07    0.27
  25   3 -25    0.00    0.30
  23   3 -25    0.17    0.32
  21   3 -25    0.33    0.32
  19   3 -25   -0.15    0.23
  17   3 -25    0.31    0.30
  15   3 -25    0.10    0.28
  13   3 -25    0.11    0.25
  11   3 -25    0.05    0.26
   9   3 -25    0.57    0.30
   7   3 -25   -0.09    0.19
   5   3 -25    0.28    0.22
   3   3 -25    0.09    0.21
   1   3 -25   -0.12    0.22
  -1   3 -25   -0.06    0.21
   1  -3  25    0.01    0.18
   3  -3  25   -0.21    0.16
   5  -3  25   -0.18    0.16
   7  -3  25    0.04    0.20
   9  -3  25    0.07    0.22
  11  -3  25   -0.06    0.18
  13  -3  25    0.06    0.21
  15  -3  25    0.16    0.24
  17  -3  25    0.17    0.25
  19  -3  25   -0.29    0.22
  25   1 -25    0.13    0.36
  23   1 -25    0.12    0.33
  21   1 -25    0.09    0.29
  19   1 -25    0.25    0.30
  17   1 -25    0.36    0.25
  15   1 -25    0.06    0.28
  13   1 -25   -0.20    0.23
  11   1 -25    0.02    0.24
   9   1 -25    0.16    0.26
   7   1 -25   -0.12    0.23
   5   1 -25    0.21    0.26
   3   1 -25    0.07    0.22
   1   1 -25   -0.09    0.22
  -1   1 -25   -0.17    0.18
   1  -1  25   -0.12    0.15
   3  -1  25   -0.22    0.13
   5  -1  25    0.39    0.21
   7  -1  25    0.01    0.18
   9  -1  25   -0.03    0.17
  11  -1  25   -0.05    0.20
  13  -1  25   -0.41    0.16
  15  -1  25    0.51    0.28
  17  -1  25   -0.09    0.22
  19  -1  25    0.19    0.29
  25  -1 -25   -0.01    0.34
  23  -1 -25   -0.42    0.24
  21  -1 -25    0.23    0.32
  19  -1 -25   -0.13    0.27
  17  -1 -25   -0.02    0.24
  15  -1 -25    0.44    0.33
  13  -1 -25    0.04    0.25
  11  -1 -25    0.20    0.27
   9  -1 -25    0.06    0.25
   7  -1 -25   -0.19    0.22
   5  -1 -25    0.00    0.23
   3  -1 -25    0.02    0.19
   3  -1 -25   -0.09    0.19
   1  -1 -25    0.12    0.18
   1  -1 -25   -0.15    0.20
  -1  -1 -25   -0.14    0.19
  -1  -1 -25    0.08    0.20
   1   1  25   -0.03    0.16
   3   1  25    0.06    0.17
   5   1  25   -0.05    0.16
   7   1  25   -0.10    0.15
   9   1  25    0.06    0.21
  11   1  25    0.28    0.22
  13   1  25    0.09    0.21
 -15  -1 -25    0.64    0.30
  15   1  25    0.38    0.26
 -17  -1 -25    0.29    0.24
 -19  -1 -25    0.05    0.27
  25  -3 -25    0.50    0.37
  23  -3 -25    0.28    0.34
  21  -3 -25    0.24    0.33
  19  -3 -25   -0.11    0.26
  17  -3 -25    0.05    0.24
  15  -3 -25   -0.16    0.22
  13  -3 -25    0.36    0.27
  13  -3 -25   -0.05    0.24
  11  -3 -25    0.00    0.23
  11  -3 -25   -0.10    0.22
   9  -3 -25    0.26    0.24
   7  -3 -25   -0.14    0.19
   5  -3 -25    0.41    0.23
   3  -3 -25    0.03    0.19
   1  -3 -25   -0.13    0.18
  -1  -3 -25   -0.04    0.18
  -1  -3 -25   -0.27    0.19
  -3  -3 -25   -0.03    0.19
  -5  -3 -25    0.15    0.18
  -7  -3 -25   -0.10    0.18
  -9  -3 -25    0.06    0.20
 -11  -3 -25   -0.07    0.20
 -13  -3 -25   -0.06    0.23
 -15  -3 -25    0.24    0.29
 -17  -3 -25   -0.05    0.24
 -19  -3 -25    0.04    0.26
  23  -5 -25   -0.03    0.30
  21  -5 -25    0.18    0.36
  21  -5 -25    0.16    0.32
  19  -5 -25   -0.39    0.28
  19  -5 -25   -0.25    0.25
  17  -5 -25    0.09    0.22
  17  -5 -25    0.04    0.29
  15  -5 -25    0.07    0.27
  13  -5 -25   -0.04    0.25
  11  -5 -25    0.20    0.26
   9  -5 -25    0.27    0.24
   7  -5 -25   -0.11    0.20
   5  -5 -25   -0.14    0.18
   3  -5 -25   -0.10    0.18
   1  -5 -25    0.11    0.21
  -1  -5 -25   -0.09    0.17
  -1  -5 -25   -0.15    0.18
  -3  -5 -25    0.08    0.20
  -5  -5 -25    0.06    0.21
  -7  -5 -25   -0.13    0.19
  -9  -5 -25    0.20    0.24
 -11  -5 -25   -0.07    0.20
 -13  -5 -25   -0.07    0.23
 -15  -5 -25    0.09    0.28
 -17  -5 -25   -0.10    0.28
 -19  -5 -25   -0.07    0.27
  25  -7 -25    0.00    0.40
  23  -7 -25    0.09    0.35
  23  -7 -25   -0.30    0.31
  21  -7 -25    0.40    0.29
  21  -7 -25   -0.05    0.35
  19  -7 -25   -0.01    0.29
  17  -7 -25    0.25    0.34
  15  -7 -25    0.09    0.27
  13  -7 -25   -0.26    0.24
  11  -7 -25   -0.21    0.22
   9  -7 -25   -0.12    0.19
   7  -7 -25   -0.03    0.19
   5  -7 -25   -0.06    0.23
   3  -7 -25   -0.09    0.21
   1  -7 -25   -0.03    0.24
  -1  -7 -25    0.02    0.24
  -3  -7 -25   -0.11    0.18
  -3  -7 -25   -0.40    0.20
  -5  -7 -25   -0.06    0.22
  -7  -7 -25   -0.03    0.21
  -9  -7 -25   -0.05    0.21
 -11  -7 -25   -0.20    0.21
 -13  -7 -25    0.06    0.24
 -15  -7 -25    0.27    0.31
 -17  -7 -25   -0.16    0.27
  23  -9 -25    0.14    0.36
  23  -9 -25   -0.23    0.29
  21  -9 -25   -0.19    0.34
  19  -9 -25   -0.11    0.34
  17  -9 -25   -0.29    0.27
  15  -9 -25   -0.10    0.27
  13  -9 -25   -0.40    0.22
  11  -9 -25    0.02    0.25
   9  -9 -25   -0.04    0.24
   7  -9 -25   -0.24    0.20
   5  -9 -25    0.14    0.25
   3  -9 -25    0.32    0.26
   1  -9 -25   -0.14    0.20
  -1  -9 -25    0.05    0.21
  -3  -9 -25    0.69    0.31
  -3  -9 -25    0.07    0.23
  -5  -9 -25   -0.06    0.18
  -7  -9 -25   -0.03    0.23
  -9  -9 -25    0.04    0.24
 -11  -9 -25   -0.27    0.23
 -13  -9 -25    0.13    0.29
 -15  -9 -25   -0.06    0.26
 -17  -9 -25    0.13    0.31
  23 -11 -25    0.00    0.40
  21 -11 -25    0.04    0.36
  19 -11 -25   -0.12    0.30
  17 -11 -25   -0.14    0.27
  15 -11 -25    0.58    0.35
  13 -11 -25   -0.33    0.25
  11 -11 -25    0.10    0.27
   9 -11 -25   -0.27    0.18
   7 -11 -25   -0.19    0.23
   5 -11 -25   -0.18    0.23
   3 -11 -25   -0.13    0.22
   1 -11 -25   -0.11    0.20
  -1 -11 -25    0.17    0.26
  -3 -11 -25    0.06    0.23
  -3 -11 -25   -0.11    0.22
  -5 -11 -25   -0.02    0.24
  -7 -11 -25   -0.07    0.22
  -9 -11 -25    0.10    0.25
 -11 -11 -25   -0.08    0.25
 -13 -11 -25    0.05    0.29
 -15 -11 -25    0.04    0.28
  21 -13 -25   -0.37    0.33
  19 -13 -25   -0.69    0.32
  17 -13 -25   -0.17    0.32
  15 -13 -25   -0.16    0.29
  13 -13 -25   -0.15    0.25
  11 -13 -25    0.04    0.28
   9 -13 -25    0.38    0.32
   7 -13 -25   -0.11    0.20
   5 -13 -25   -0.04    0.23
   3 -13 -25   -0.12    0.23
   1 -13 -25    0.16    0.24
  -1 -13 -25   -0.13    0.25
  -3 -13 -25    0.06    0.25
  -3 -13 -25   -0.08    0.23
  -5 -13 -25   -0.01    0.23
  -7 -13 -25   -0.14    0.20
  -9 -13 -25    0.22    0.32
 -11 -13 -25   -0.03    0.27
 -13 -13 -25    0.02    0.26
 -15 -13 -25   -0.04    0.28
  19 -15 -25   -0.49    0.33
  17 -15 -25    0.31    0.38
  15 -15 -25    0.00    0.33
  13 -15 -25   -0.17    0.32
  11 -15 -25    0.73    0.38
   9 -15 -25   -0.06    0.26
   7 -15 -25    0.18    0.30
   5 -15 -25    0.33    0.31
   3 -15 -25   -0.12    0.24
   1 -15 -25    0.71    0.35
  -1 -15 -25    0.23    0.30
  -3 -15 -25   -0.21    0.24
  -5 -15 -25    0.11    0.29
  -5 -15 -25    0.00    0.27
  -7 -15 -25   -0.09    0.27
  -9 -15 -25   -0.42    0.26
 -11 -15 -25    0.48    0.32
 -13 -15 -25   -0.19    0.29
  17 -17 -25   -0.12    0.35
  15 -17 -25   -0.20    0.31
  13 -17 -25    0.04    0.32
  11 -17 -25   -0.22    0.29
   9 -17 -25    0.21    0.32
   7 -17 -25   -0.33    0.24
   5 -17 -25   -0.08    0.26
   3 -17 -25    0.01    0.28
   1 -17 -25    0.05    0.28
  -1 -17 -25    0.11    0.29
  -3 -17 -25    0.14    0.27
  -5 -17 -25    0.10    0.27
  -5 -17 -25    0.08    0.28
  -7 -17 -25   -0.24    0.29
  -9 -17 -25    0.08    0.30
 -11 -17 -25   -0.09    0.32
  15 -19 -25    0.50    0.39
  13 -19 -25   -0.45    0.33
  11 -19 -25    0.03    0.35
   9 -19 -25   -0.16    0.27
   7 -19 -25    0.32    0.33
   5 -19 -25    0.22    0.35
   3 -19 -25   -0.05    0.27
   1 -19 -25    0.08    0.31
  -1 -19 -25    0.30    0.33
  -3 -19 -25    0.23    0.31
  -5 -19 -25    0.12    0.31
  -7 -19 -25    0.48    0.36
  -7 -19 -25    0.24    0.31
  -9 -19 -25   -0.36    0.29
  13 -21 -25   -0.31    0.30
  11 -21 -25   -0.16    0.34
   9 -21 -25    0.30    0.36
   7 -21 -25    0.15    0.33
   5 -21 -25    0.10    0.35
   3 -21 -25    0.16    0.33
   1 -21 -25    0.07    0.31
  -1 -21 -25   -0.23    0.24
  -3 -21 -25   -0.37    0.26
  -5 -21 -25   -0.10    0.27
  -7 -21 -25    0.43    0.39
  -7 -21 -25    0.17    0.28
  -9 -21 -25   -0.04    0.27
   9 -23 -25    0.21    0.32
   7 -23 -25    0.28    0.32
   5 -23 -25    0.06    0.28
   3 -23 -25    0.24    0.31
   1 -23 -25    0.21    0.28
  -1 -23 -25    0.28    0.32
  -3 -23 -25    0.44    0.31
  -5 -23 -25    0.13    0.33
  -7 -23 -25    0.40    0.35
  -9 -23 -25   -0.06    0.32
   1 -25 -25   -0.03    0.32
   6  24 -26   -0.20    0.36
   4  24 -26   -0.25    0.37
  10  22 -26    3.67    0.69
   8  22 -26    0.17    0.44
   6  22 -26    4.51    0.68
   4  22 -26    1.45    0.50
   2  22 -26    4.86    0.67
  12  20 -26    0.15    0.39
  10  20 -26   -0.26    0.33
   8  20 -26    0.68    0.41
   6  20 -26    0.48    0.39
   4  20 -26    0.13    0.35
   2  20 -26   -0.26    0.28
  -2 -20  26    0.23    0.27
   0 -20  26    0.08    0.26
   2 -20  26   -0.08    0.24
  14  18 -26    3.42    0.62
  12  18 -26   -0.03    0.34
  10  18 -26    2.93    0.59
   8  18 -26    0.33    0.39
   6  18 -26    4.40    0.62
   4  18 -26   -0.03    0.34
   2  18 -26    3.75    0.57
  -2 -18  26    3.44    0.49
   0 -18  26    0.95    0.35
   2 -18  26    4.25    0.57
   4 -18  26   -0.04    0.24
   6 -18  26    3.43    0.53
  16  16 -26   -0.08    0.39
  14  16 -26    0.07    0.34
  12  16 -26   -0.43    0.30
  10  16 -26    0.11    0.34
   8  16 -26   -0.07    0.30
   6  16 -26    0.02    0.32
   4  16 -26    0.17    0.29
   2  16 -26    0.44    0.33
  -2 -16  26    0.38    0.27
   0 -16  26    0.13    0.21
   2 -16  26    0.36    0.26
   4 -16  26   -0.02    0.24
   6 -16  26    0.01    0.24
   8 -16  26    0.02    0.25
  10 -16  26   -0.18    0.25
  18  14 -26    5.21    0.75
  16  14 -26    0.10    0.37
  14  14 -26    5.66    0.72
  12  14 -26    1.01    0.43
  10  14 -26    5.92    0.69
   8  14 -26   -0.11    0.26
   6  14 -26    6.56    0.70
   4  14 -26    1.27    0.39
   2  14 -26    7.79    0.69
  -2 -14  26    7.06    0.62
   0  14 -26    0.09    0.27
   0 -14  26    0.21    0.22
   2 -14  26    8.52    0.67
   4 -14  26    1.31    0.37
   6 -14  26    6.04    0.63
   8 -14  26    0.08    0.26
  10 -14  26    6.54    0.70
  12 -14  26    1.82    0.44
  20  12 -26    0.21    0.32
  18  12 -26    0.52    0.40
  16  12 -26    0.39    0.36
  14  12 -26    0.96    0.44
  12  12 -26   -0.05    0.27
  10  12 -26    0.14    0.31
   8  12 -26    0.28    0.31
   6  12 -26    0.34    0.32
   4  12 -26    0.08    0.28
   2  12 -26    0.18    0.28
   0  12 -26    0.03    0.25
   0 -12  26    0.15    0.22
   2 -12  26    0.43    0.27
   4 -12  26    0.30    0.22
   6 -12  26    1.30    0.37
   8 -12  26    0.18    0.25
  10 -12  26   -0.02    0.23
  12 -12  26   -0.03    0.24
  14 -12  26    1.35    0.39
  20  10 -26   -0.15    0.33
  18  10 -26    2.73    0.55
  16  10 -26    0.02    0.27
  14  10 -26    6.60    0.73
  12  10 -26   -0.04    0.26
  10  10 -26    3.77    0.56
   8  10 -26    0.78    0.36
   6  10 -26    4.32    0.56
   4  10 -26    0.33    0.28
   2  10 -26    6.36    0.62
   0  10 -26    1.43    0.36
   0 -10  26    1.22    0.31
   2 -10  26    5.89    0.57
   4 -10  26    0.22    0.21
   6 -10  26    4.74    0.54
   8 -10  26    1.60    0.38
  10 -10  26    4.68    0.58
  12 -10  26    0.22    0.26
  14 -10  26    5.61    0.66
  22   8 -26    0.36    0.37
  20   8 -26    0.15    0.33
  18   8 -26    0.62    0.37
  16   8 -26    0.25    0.33
  14   8 -26    0.14    0.28
  12   8 -26    0.00    0.27
  10   8 -26    1.31    0.40
   8   8 -26    0.15    0.28
   6   8 -26    0.00    0.24
   4   8 -26   -0.17    0.21
   2   8 -26    0.48    0.29
   0   8 -26    0.02    0.23
   0  -8  26    0.14    0.19
   2  -8  26    0.18    0.19
   4  -8  26   -0.09    0.19
   6  -8  26    0.02    0.20
   8  -8  26    0.06    0.21
  10  -8  26    0.95    0.33
  12  -8  26    0.21    0.22
  14  -8  26    0.06    0.24
  16  -8  26    0.06    0.28
  22   6 -26    4.28    0.66
  20   6 -26    0.57    0.35
  18   6 -26    3.15    0.56
  16   6 -26    0.21    0.32
  14   6 -26    5.78    0.67
  12   6 -26    1.22    0.39
  10   6 -26    4.58    0.58
   8   6 -26    0.10    0.24
   6   6 -26    4.10    0.53
   4   6 -26    0.97    0.35
   2   6 -26    4.05    0.51
   0   6 -26   -0.04    0.20
   0  -6  26    0.17    0.20
   2  -6  26    3.99    0.47
   4  -6  26    1.25    0.32
   6  -6  26    2.24    0.40
   8  -6  26    0.28    0.24
  10  -6  26    3.73    0.49
  12  -6  26    0.22    0.25
  14  -6  26    4.95    0.60
  16  -6  26    0.02    0.26
  22   4 -26    0.93    0.43
  20   4 -26    0.20    0.31
  18   4 -26   -0.23    0.26
  16   4 -26   -0.20    0.27
  14   4 -26    1.64    0.45
  12   4 -26    0.02    0.27
  10   4 -26   -0.12    0.26
   8   4 -26   -0.14    0.20
   6   4 -26    1.96    0.40
   4   4 -26    0.17    0.25
   2   4 -26    0.44    0.29
   0   4 -26    0.22    0.23
   0  -4  26    0.13    0.17
   2  -4  26    1.44    0.30
   4  -4  26    0.19    0.21
   6  -4  26    1.14    0.31
   8  -4  26    0.14    0.21
  10  -4  26    0.23    0.24
  12  -4  26    0.30    0.27
  14  -4  26    1.87    0.42
  16  -4  26   -0.06    0.23
  18  -4  26    0.48    0.31
  24   2 -26    0.09    0.33
  22   2 -26    4.96    0.68
  20   2 -26   -0.03    0.27
  18   2 -26    4.06    0.60
  16   2 -26   -0.15    0.27
  14   2 -26    6.51    0.70
  12   2 -26    0.08    0.24
  10   2 -26    5.24    0.60
   8   2 -26   -0.15    0.20
   6   2 -26    3.69    0.50
   4   2 -26    0.51    0.28
   2   2 -26    7.13    0.62
   0   2 -26   -0.10    0.20
   2  -2  26    7.32    0.57
   4  -2  26    0.90    0.28
   6  -2  26    4.72    0.51
   8  -2  26   -0.03    0.20
  10  -2  26    5.19    0.56
  12  -2  26    0.42    0.25
  14  -2  26    7.18    0.69
  16  -2  26    0.03    0.25
  18  -2  26    4.59    0.62
  24   0 -26    0.17    0.33
  22   0 -26    0.63    0.38
  20   0 -26    0.06    0.27
  18   0 -26    0.92    0.38
  16   0 -26   -0.02    0.25
  14   0 -26    0.32    0.31
  12   0 -26    0.27    0.28
  10   0 -26    0.97    0.37
   8   0 -26    0.01    0.23
   6   0 -26    0.12    0.24
   4   0 -26   -0.21    0.19
   2   0 -26   -0.28    0.19
   0   0 -26   -0.11    0.21
  -2   0 -26   -0.04    0.22
   2   0  26    0.17    0.21
   4   0  26   -0.02    0.18
   6   0  26    0.00    0.17
   8   0  26   -0.25    0.17
  10   0  26    1.65    0.36
  12   0  26   -0.06    0.19
  14   0  26    0.42    0.28
  16   0  26    0.08    0.23
 -18   0 -26    0.91    0.37
  18   0  26    1.82    0.46
  24  -2 -26   -0.02    0.35
  22  -2 -26    5.00    0.67
  20  -2 -26    0.03    0.28
  18  -2 -26    3.47    0.58
  16  -2 -26   -0.02    0.30
  14  -2 -26    8.23    0.75
  12  -2 -26    0.11    0.24
  10  -2 -26    5.29    0.59
   8  -2 -26    0.30    0.28
   6  -2 -26    3.68    0.49
   4  -2 -26    1.01    0.33
   4  -2 -26    0.45    0.26
   2  -2 -26    7.09    0.59
   2  -2 -26    7.42    0.62
   0  -2 -26    0.28    0.23
   0  -2 -26   -0.11    0.20
  -2  -2 -26    7.65    0.61
  -2  -2 -26    8.33    0.63
   2   2  26    8.04    0.58
   4   2  26    0.50    0.23
   6   2  26    3.45    0.44
  -8  -2 -26    0.11    0.20
   8   2  26    0.22    0.20
 -10  -2 -26    5.12    0.52
  10   2  26    4.20    0.50
 -12  -2 -26    0.02    0.23
 -14  -2 -26    7.90    0.71
 -16  -2 -26    0.15    0.30
 -18  -2 -26    4.41    0.62
  22  -4 -26    1.18    0.45
  20  -4 -26   -0.08    0.27
  18  -4 -26   -0.01    0.27
  16  -4 -26    0.06    0.28
  14  -4 -26    1.55    0.41
  14  -4 -26    1.21    0.37
  12  -4 -26   -0.15    0.24
  10  -4 -26    0.05    0.25
   8  -4 -26   -0.14    0.20
   6  -4 -26    0.93    0.30
   4  -4 -26   -0.04    0.20
   2  -4 -26    0.59    0.29
   0  -4 -26   -0.08    0.21
  -2  -4 -26    0.92    0.28
  -2  -4 -26    0.59    0.27
  -4  -4 -26   -0.13    0.18
  -6  -4 -26    1.75    0.37
  -8  -4 -26    0.24    0.25
 -10  -4 -26   -0.02    0.22
 -12  -4 -26    0.21    0.25
 -14  -4 -26    1.44    0.41
 -16  -4 -26    0.10    0.27
 -18  -4 -26    0.65    0.39
  22  -6 -26    5.60    0.74
  20  -6 -26    0.23    0.32
  20  -6 -26    0.93    0.43
  18  -6 -26    4.25    0.58
  18  -6 -26    3.24    0.55
  16  -6 -26    0.22    0.32
  14  -6 -26    5.02    0.59
  12  -6 -26    0.90    0.35
  10  -6 -26    3.14    0.48
   8  -6 -26   -0.09    0.25
   6  -6 -26    2.84    0.44
   4  -6 -26    1.54    0.36
   2  -6 -26    4.57    0.51
   0  -6 -26   -0.28    0.19
  -2  -6 -26    4.91    0.53
  -2  -6 -26    4.13    0.46
  -4  -6 -26    1.42    0.33
  -6  -6 -26    2.98    0.44
  -8  -6 -26    0.28    0.24
 -10  -6 -26    5.66    0.60
 -12  -6 -26    0.19    0.26
 -14  -6 -26    5.42    0.61
 -16  -6 -26    0.27    0.29
  24  -8 -26   -0.02    0.36
  22  -8 -26    0.30    0.43
  22  -8 -26    0.32    0.34
  20  -8 -26    0.11    0.37
  18  -8 -26    1.20    0.44
  16  -8 -26    0.32    0.33
  14  -8 -26    0.20    0.30
  12  -8 -26   -0.02    0.26
  10  -8 -26    0.85    0.37
   8  -8 -26    0.27    0.25
   6  -8 -26    0.24    0.24
   4  -8 -26    0.17    0.25
   2  -8 -26    0.23    0.22
   0  -8 -26   -0.01    0.23
  -2  -8 -26    0.03    0.25
  -4  -8 -26    0.03    0.23
  -6  -8 -26    0.06    0.25
  -8  -8 -26   -0.42    0.20
 -10  -8 -26    0.86    0.35
 -12  -8 -26    0.27    0.30
 -14  -8 -26    0.41    0.34
 -16  -8 -26   -0.25    0.28
  22 -10 -26    3.47    0.65
  20 -10 -26   -0.19    0.33
  18 -10 -26    2.38    0.52
  16 -10 -26    0.15    0.33
  14 -10 -26    4.44    0.59
  12 -10 -26   -0.17    0.28
  10 -10 -26    4.63    0.58
   8 -10 -26    1.10    0.38
   6 -10 -26    5.33    0.59
   4 -10 -26    0.33    0.26
   2 -10 -26    5.81    0.62
   0 -10 -26    1.14    0.36
  -2 -10 -26    4.57    0.55
  -4 -10 -26    0.11    0.25
  -4 -10 -26    0.13    0.25
  -6 -10 -26    3.39    0.49
  -8 -10 -26    1.11    0.37
 -10 -10 -26    4.29    0.56
 -12 -10 -26    0.27    0.31
 -14 -10 -26    5.64    0.69
 -16 -10 -26    0.07    0.33
  20 -12 -26    0.23    0.38
  18 -12 -26    0.09    0.33
  16 -12 -26   -0.34    0.27
  14 -12 -26    1.26    0.45
  12 -12 -26    0.20    0.32
  10 -12 -26   -0.22    0.26
   8 -12 -26    0.00    0.25
   6 -12 -26    1.33    0.39
   4 -12 -26    0.27    0.31
   2 -12 -26    0.01    0.27
   0 -12 -26   -0.02    0.25
  -2 -12 -26    0.32    0.29
  -4 -12 -26    0.21    0.27
  -4 -12 -26   -0.02    0.25
  -6 -12 -26    0.50    0.30
  -8 -12 -26    0.00    0.27
 -10 -12 -26    0.39    0.30
 -12 -12 -26   -0.03    0.26
 -14 -12 -26    1.30    0.42
  20 -14 -26    0.69    0.45
  18 -14 -26    4.45    0.66
  16 -14 -26    0.02    0.32
  14 -14 -26    5.39    0.68
  12 -14 -26    1.44    0.44
  10 -14 -26    6.26    0.70
   8 -14 -26   -0.12    0.25
   6 -14 -26    5.88    0.66
   4 -14 -26    1.34    0.42
   2 -14 -26    7.91    0.74
   0 -14 -26    0.37    0.30
  -2 -14 -26    8.68    0.77
  -4 -14 -26    0.81    0.37
  -6 -14 -26    6.73    0.64
  -8 -14 -26    0.16    0.29
 -10 -14 -26    5.78    0.66
 -12 -14 -26    0.74    0.41
  18 -16 -26   -0.13    0.38
  16 -16 -26   -0.13    0.36
  14 -16 -26    0.08    0.33
  12 -16 -26   -0.05    0.28
  10 -16 -26    0.14    0.32
   8 -16 -26   -0.04    0.26
   6 -16 -26    0.25    0.27
   4 -16 -26    0.06    0.27
   2 -16 -26    0.17    0.28
   0 -16 -26    0.08    0.27
  -2 -16 -26   -0.18    0.25
  -4 -16 -26   -0.02    0.28
  -6 -16 -26    0.24    0.31
  -6 -16 -26   -0.01    0.28
  -8 -16 -26   -0.20    0.30
 -10 -16 -26    0.07    0.33
 -12 -16 -26    0.31    0.35
  16 -18 -26    0.53    0.43
  14 -18 -26    3.45    0.62
  12 -18 -26    0.35    0.38
  10 -18 -26    3.80    0.64
   8 -18 -26    0.53    0.39
   6 -18 -26    3.68    0.59
   4 -18 -26    0.62    0.42
   2 -18 -26    3.73    0.59
   0 -18 -26    1.26    0.45
  -2 -18 -26    3.84    0.61
  -4 -18 -26    0.17    0.33
  -6 -18 -26    3.52    0.60
  -6 -18 -26    3.75    0.56
  -8 -18 -26    0.49    0.37
 -10 -18 -26    3.28    0.57
  12 -20 -26   -0.13    0.34
  10 -20 -26   -0.14    0.34
   8 -20 -26    0.26    0.35
   6 -20 -26    0.35    0.37
   4 -20 -26   -0.37    0.29
   2 -20 -26   -0.25    0.29
   0 -20 -26   -0.08    0.28
  -2 -20 -26    0.20    0.34
  -4 -20 -26    0.39    0.33
  -6 -20 -26    0.26    0.37
  -8 -20 -26    0.52    0.42
   8 -22 -26   -0.16    0.31
   6 -22 -26    5.22    0.71
   4 -22 -26    0.75    0.41
   2 -22 -26    4.80    0.69
   0 -22 -26    0.24    0.33
  -2 -22 -26    4.79    0.69
  -4 -22 -26    0.99    0.41
  -6 -22 -26    5.17    0.70
  -8 -22 -26    0.14    0.33
   7  23 -27    0.04    0.38
   5  23 -27    0.12    0.40
   3  23 -27   -0.13    0.37
   9  21 -27   -0.11    0.40
   7  21 -27   -0.06    0.37
   5  21 -27   -0.38    0.37
   3  21 -27    0.09    0.37
  13  19 -27    0.18    0.42
  11  19 -27   -0.18    0.38
   9  19 -27   -0.07    0.35
   7  19 -27   -0.35    0.33
   5  19 -27    0.30    0.37
   3  19 -27    0.10    0.36
  -1 -19  27    0.02    0.23
   1 -19  27    0.20    0.27
  15  17 -27   -0.18    0.36
  13  17 -27   -0.21    0.31
  11  17 -27    0.11    0.38
   9  17 -27   -0.03    0.31
   7  17 -27    0.19    0.37
   5  17 -27   -0.15    0.30
   3  17 -27   -0.06    0.30
  -1 -17  27    0.21    0.27
   1 -17  27    0.01    0.26
   3 -17  27   -0.28    0.25
   5 -17  27   -0.04    0.25
  17  15 -27   -0.16    0.32
  15  15 -27   -0.15    0.37
  13  15 -27    0.72    0.42
  11  15 -27   -0.25    0.29
   9  15 -27    0.04    0.34
   7  15 -27   -0.05    0.32
   5  15 -27    0.30    0.34
   3  15 -27    0.47    0.33
   1  15 -27    0.54    0.32
  -1 -15  27    0.50    0.27
   1 -15  27    0.68    0.29
   3 -15  27    0.44    0.30
   5 -15  27   -0.03    0.25
   7 -15  27   -0.10    0.25
   9 -15  27    0.18    0.25
  17  13 -27    0.48    0.39
  15  13 -27   -0.04    0.35
  13  13 -27   -0.12    0.34
  11  13 -27   -0.31    0.30
   9  13 -27    0.38    0.33
   7  13 -27   -0.42    0.27
   5  13 -27   -0.07    0.31
   3  13 -27    0.01    0.24
   1  13 -27   -0.13    0.26
  -1 -13  27   -0.26    0.20
   1 -13  27   -0.01    0.19
   3 -13  27    0.03    0.24
   5 -13  27    0.27    0.26
   7 -13  27    0.10    0.26
   9 -13  27   -0.02    0.23
  11 -13  27   -0.08    0.27
  19  11 -27    0.06    0.31
  17  11 -27    0.14    0.32
  15  11 -27    0.10    0.34
  13  11 -27    0.29    0.35
  11  11 -27    0.34    0.33
   9  11 -27   -0.09    0.26
   7  11 -27   -0.09    0.27
   5  11 -27   -0.25    0.26
   3  11 -27    0.11    0.28
   1  11 -27    0.13    0.27
   1 -11  27    0.03    0.23
   3 -11  27   -0.09    0.21
   5 -11  27    0.12    0.24
   7 -11  27    0.35    0.26
   9 -11  27   -0.14    0.22
  11 -11  27    0.13    0.24
  13 -11  27   -0.38    0.22
  19   9 -27   -0.21    0.29
  17   9 -27   -0.51    0.26
  15   9 -27    0.06    0.32
  13   9 -27    0.05    0.30
  11   9 -27   -0.13    0.27
   9   9 -27    0.05    0.30
   7   9 -27    0.14    0.28
   5   9 -27    0.06    0.28
   3   9 -27   -0.01    0.25
   1   9 -27    0.15    0.26
   1  -9  27   -0.03    0.20
   3  -9  27   -0.14    0.20
   5  -9  27   -0.06    0.20
   7  -9  27    0.12    0.25
   9  -9  27   -0.17    0.21
  11  -9  27   -0.26    0.22
  13  -9  27   -0.18    0.23
  21   7 -27   -0.04    0.32
  19   7 -27   -0.07    0.30
  17   7 -27    0.14    0.36
  15   7 -27    0.31    0.34
  13   7 -27   -0.12    0.28
  11   7 -27    0.01    0.28
   9   7 -27    0.04    0.28
   7   7 -27    0.07    0.27
   5   7 -27   -0.06    0.23
   3   7 -27    0.12    0.26
   1   7 -27   -0.08    0.22
   1  -7  27    0.21    0.22
   3  -7  27    0.19    0.22
   5  -7  27    0.19    0.24
   7  -7  27   -0.09    0.20
   9  -7  27    0.23    0.24
  11  -7  27    0.17    0.21
  13  -7  27    0.41    0.30
  15  -7  27   -0.12    0.24
  21   5 -27    0.11    0.31
  19   5 -27    0.12    0.30
  17   5 -27    0.26    0.31
  15   5 -27    0.27    0.35
  13   5 -27   -0.11    0.24
  11   5 -27   -0.13    0.24
   9   5 -27    0.07    0.28
   7   5 -27    0.15    0.27
   5   5 -27   -0.05    0.24
   3   5 -27    0.05    0.24
   1   5 -27    0.35    0.26
   1  -5  27    0.37    0.22
   3  -5  27    0.20    0.19
   5  -5  27   -0.03    0.21
   7  -5  27    0.11    0.22
   9  -5  27    0.23    0.24
  11  -5  27   -0.17    0.21
  13  -5  27   -0.04    0.22
  15  -5  27    0.44    0.26
  21   3 -27    0.26    0.33
  19   3 -27    0.01    0.27
  17   3 -27   -0.12    0.29
  15   3 -27   -0.16    0.30
  13   3 -27    0.01    0.27
  11   3 -27   -0.31    0.22
   9   3 -27   -0.19    0.23
   7   3 -27    0.04    0.26
   5   3 -27    0.03    0.24
   3   3 -27   -0.19    0.22
   1   3 -27   -0.05    0.21
  -1   3 -27   -0.02    0.23
   1  -3  27    0.15    0.19
   3  -3  27   -0.04    0.18
   5  -3  27    0.27    0.21
   7  -3  27    0.00    0.20
   9  -3  27   -0.02    0.21
  11  -3  27    0.11    0.23
  13  -3  27   -0.16    0.21
  15  -3  27   -0.16    0.21
  21   1 -27    0.10    0.31
  19   1 -27    0.15    0.31
  17   1 -27    0.00    0.27
  15   1 -27    0.84    0.37
  13   1 -27   -0.05    0.25
  11   1 -27    0.53    0.34
   9   1 -27    0.24    0.28
   7   1 -27    0.44    0.27
   5   1 -27    0.03    0.25
   3   1 -27    0.21    0.24
   1   1 -27    0.12    0.25
  -1   1 -27    0.14    0.22
   3  -1  27   -0.02    0.18
   5  -1  27    0.04    0.19
   7  -1  27    0.32    0.23
   9  -1  27   -0.06    0.18
  11  -1  27    0.10    0.22
  13  -1  27    0.19    0.24
  15  -1  27    0.49    0.30
  17  -1  27    0.14    0.28
  21  -1 -27    0.16    0.31
  19  -1 -27   -0.10    0.25
  17  -1 -27    0.03    0.28
  15  -1 -27    0.00    0.29
  13  -1 -27   -0.02    0.28
  11  -1 -27    0.24    0.31
   9  -1 -27    0.00    0.21
   7  -1 -27   -0.19    0.20
   5  -1 -27    0.02    0.25
   3  -1 -27   -0.22    0.20
   1  -1 -27    0.01    0.23
  -1  -1 -27    0.06    0.23
   3   1  27   -0.06    0.18
   5   1  27    0.24    0.20
   7   1  27    0.14    0.23
   9   1  27    0.05    0.22
  11   1  27    0.07    0.21
 -13  -1 -27    0.02    0.23
  13   1  27   -0.03    0.21
 -15  -1 -27    0.51    0.30
 -17  -1 -27   -0.04    0.26
  21  -3 -27    0.21    0.33
  19  -3 -27    0.19    0.29
  17  -3 -27   -0.31    0.22
  15  -3 -27    0.04    0.31
  13  -3 -27    0.27    0.29
  11  -3 -27    0.12    0.26
   9  -3 -27   -0.03    0.22
   7  -3 -27   -0.09    0.21
   5  -3 -27    0.14    0.24
   3  -3 -27    0.10    0.24
   1  -3 -27    0.27    0.25
  -1  -3 -27    0.10    0.22
  -3  -3 -27   -0.12    0.21
  -3  -3 -27   -0.22    0.18
  -5  -3 -27    0.02    0.20
  -7  -3 -27    0.13    0.24
  -9  -3 -27    0.02    0.23
 -11  -3 -27   -0.17    0.25
 -13  -3 -27    0.18    0.27
 -15  -3 -27   -0.14    0.27
 -17  -3 -27    0.01    0.30
  21  -5 -27   -0.13    0.32
  19  -5 -27    0.33    0.33
  17  -5 -27    0.10    0.31
  15  -5 -27   -0.02    0.30
  15  -5 -27    0.05    0.31
  13  -5 -27   -0.03    0.27
  11  -5 -27    0.03    0.26
   9  -5 -27    0.16    0.25
   7  -5 -27    0.04    0.24
   5  -5 -27   -0.20    0.20
   3  -5 -27    0.55    0.29
   1  -5 -27    0.42    0.25
  -1  -5 -27    0.21    0.24
  -3  -5 -27    0.20    0.26
  -3  -5 -27   -0.12    0.20
  -5  -5 -27    0.01    0.22
  -7  -5 -27    0.07    0.24
  -9  -5 -27   -0.06    0.24
 -11  -5 -27    0.33    0.27
 -13  -5 -27   -0.05    0.25
 -15  -5 -27   -0.10    0.26
  21  -7 -27   -0.38    0.29
  21  -7 -27   -0.38    0.36
  19  -7 -27    0.03    0.35
  19  -7 -27    0.31    0.31
  17  -7 -27   -0.52    0.29
  15  -7 -27    0.06    0.30
  13  -7 -27    0.02    0.25
  11  -7 -27   -0.22    0.24
   9  -7 -27   -0.35    0.23
   7  -7 -27   -0.05    0.24
   5  -7 -27    0.20    0.26
   3  -7 -27   -0.03    0.23
   1  -7 -27    0.76    0.30
  -1  -7 -27    0.28    0.28
  -3  -7 -27   -0.13    0.19
  -5  -7 -27    0.04    0.24
  -7  -7 -27    0.10    0.25
  -9  -7 -27   -0.13    0.24
 -11  -7 -27    0.32    0.30
 -13  -7 -27    0.07    0.28
 -15  -7 -27   -0.03    0.31
  23  -9 -27    0.46    0.43
  21  -9 -27    0.17    0.33
  21  -9 -27    0.27    0.36
  19  -9 -27   -0.18    0.33
  17  -9 -27   -0.21    0.29
  15  -9 -27   -0.29    0.27
  13  -9 -27   -0.19    0.26
  11  -9 -27    0.48    0.32
   9  -9 -27   -0.10    0.23
   7  -9 -27    0.02    0.26
   5  -9 -27    0.16    0.28
   3  -9 -27    0.23    0.28
   1  -9 -27    0.21    0.27
  -1  -9 -27    0.06    0.26
  -3  -9 -27   -0.04    0.25
  -5  -9 -27   -0.02    0.23
  -7  -9 -27   -0.24    0.23
  -9  -9 -27    0.05    0.27
 -11  -9 -27   -0.21    0.27
 -13  -9 -27   -0.19    0.28
 -15  -9 -27    0.33    0.36
  21 -11 -27   -0.68    0.32
  19 -11 -27   -0.27    0.32
  17 -11 -27    0.23    0.36
  15 -11 -27   -0.13    0.31
  13 -11 -27   -0.07    0.30
  11 -11 -27   -0.15    0.26
   9 -11 -27   -0.10    0.28
   7 -11 -27    0.02    0.28
   5 -11 -27   -0.07    0.27
   3 -11 -27   -0.33    0.21
   1 -11 -27   -0.24    0.25
  -1 -11 -27    0.28    0.28
  -3 -11 -27   -0.16    0.22
  -5 -11 -27   -0.16    0.22
  -5 -11 -27    0.19    0.28
  -7 -11 -27   -0.18    0.24
  -9 -11 -27   -0.11    0.25
 -11 -11 -27   -0.14    0.27
 -13 -11 -27    0.06    0.28
  19 -13 -27    0.07    0.39
  17 -13 -27   -0.20    0.34
  15 -13 -27   -0.05    0.32
  13 -13 -27   -0.15    0.31
  11 -13 -27   -0.20    0.31
   9 -13 -27   -0.26    0.24
   7 -13 -27    0.06    0.28
   5 -13 -27   -0.02    0.26
   3 -13 -27    0.25    0.30
   1 -13 -27    0.23    0.30
  -1 -13 -27   -0.07    0.25
  -3 -13 -27    0.22    0.30
  -5 -13 -27    0.17    0.28
  -5 -13 -27   -0.15    0.26
  -7 -13 -27   -0.04    0.30
  -9 -13 -27   -0.05    0.27
 -11 -13 -27   -0.28    0.28
 -13 -13 -27    0.12    0.34
  17 -15 -27    0.31    0.37
  15 -15 -27   -0.39    0.30
  13 -15 -27    0.05    0.35
  11 -15 -27   -0.27    0.31
   9 -15 -27    0.15    0.31
   7 -15 -27   -0.18    0.26
   5 -15 -27    0.05    0.28
   3 -15 -27    0.12    0.27
   1 -15 -27    0.31    0.34
  -1 -15 -27    0.41    0.32
  -3 -15 -27    0.45    0.33
  -5 -15 -27   -0.17    0.27
  -7 -15 -27    0.15    0.33
  -9 -15 -27    0.06    0.32
 -11 -15 -27   -0.12    0.33
  15 -17 -27   -0.07    0.34
  13 -17 -27   -0.02    0.36
  11 -17 -27   -0.11    0.33
   9 -17 -27    0.21    0.33
   7 -17 -27   -0.27    0.27
   5 -17 -27   -0.18    0.30
   3 -17 -27   -0.01    0.29
   1 -17 -27    0.02    0.31
  -1 -17 -27    0.16    0.30
  -3 -17 -27   -0.04    0.30
  -5 -17 -27   -0.04    0.33
  -7 -17 -27   -0.07    0.30
  -7 -17 -27   -0.12    0.31
  -9 -17 -27   -0.18    0.31
  11 -19 -27   -0.08    0.34
   9 -19 -27    0.21    0.37
   7 -19 -27   -0.02    0.36
   5 -19 -27   -0.16    0.29
   3 -19 -27   -0.30    0.28
   1 -19 -27   -0.34    0.29
  -1 -19 -27    0.31    0.36
  -3 -19 -27    0.27    0.34
  -5 -19 -27    0.01    0.34
  -7 -19 -27   -0.04    0.35
  -9 -19 -27    0.09    0.34
   7 -21 -27   -0.12    0.33
   5 -21 -27    0.30    0.36
   3 -21 -27   -0.25    0.30
   1 -21 -27   -0.45    0.27
  -1 -21 -27    0.01    0.37
  -3 -21 -27    0.21    0.35
  -5 -21 -27   -0.31    0.31
  -7 -21 -27    0.24    0.37
   6  22 -28    0.42    0.45
   4  22 -28   -0.03    0.38
  10  20 -28    0.25    0.43
   8  20 -28   14.69    1.15
   6  20 -28    0.33    0.41
   4  20 -28   10.57    0.93
  12  18 -28   -0.16    0.38
  10  18 -28    0.10    0.38
   8  18 -28    0.25    0.39
   6  18 -28   -0.08    0.35
   4  18 -28    0.04    0.37
   0 -18  28   -0.06    0.25
   2 -18  28    0.20    0.30
  14  16 -28    0.44    0.46
  12  16 -28   17.15    1.21
  10  16 -28    0.18    0.39
   8  16 -28   13.80    1.04
   6  16 -28    0.31    0.36
   4  16 -28   17.37    1.09
   2  16 -28    0.63    0.39
   0 -16  28   15.32    0.95
   2 -16  28    0.99    0.36
   4 -16  28   18.35    1.10
  16  14 -28    0.05    0.38
  14  14 -28   -0.21    0.34
  12  14 -28   -0.06    0.38
  10  14 -28    0.07    0.36
   8  14 -28    0.45    0.37
   6  14 -28   -0.17    0.28
   4  14 -28    0.06    0.32
   2  14 -28   -0.05    0.30
   0 -14  28    0.18    0.26
   2 -14  28    0.61    0.30
   4 -14  28    0.50    0.30
   6 -14  28   -0.07    0.25
   8 -14  28   -0.11    0.27
  16  12 -28   14.09    1.13
  14  12 -28    0.35    0.38
  12  12 -28   15.72    1.10
  10  12 -28    0.56    0.38
   8  12 -28   21.65    1.22
   6  12 -28   -0.04    0.31
   4  12 -28   15.75    1.02
   2  12 -28    0.38    0.33
   2 -12  28   -0.05    0.24
   4 -12  28   16.80    0.98
   6 -12  28    0.21    0.27
   8 -12  28   21.58    1.18
  10 -12  28    0.23    0.28
  18  10 -28    0.07    0.34
  16  10 -28    0.25    0.35
  14  10 -28    0.03    0.33
  12  10 -28    0.11    0.32
  10  10 -28    0.72    0.35
   8  10 -28    0.40    0.34
   6  10 -28    0.47    0.33
   4  10 -28    0.10    0.30
   2  10 -28    0.03    0.26
   2 -10  28    0.29    0.26
   4 -10  28   -0.07    0.24
   6 -10  28    0.16    0.23
   8 -10  28    0.41    0.28
  10 -10  28   -0.12    0.25
  12 -10  28    0.28    0.30
  18   8 -28    0.14    0.36
  16   8 -28   10.74    0.94
  14   8 -28    0.18    0.31
  12   8 -28   20.24    1.22
  10   8 -28    0.17    0.30
   8   8 -28   18.72    1.10
   6   8 -28    0.45    0.31
   4   8 -28   26.42    1.28
   2   8 -28   -0.13    0.25
   2  -8  28    0.20    0.23
   4  -8  28   25.49    1.18
   6  -8  28    0.71    0.32
   8  -8  28   18.19    1.03
  10  -8  28   -0.08    0.24
  12  -8  28   25.62    1.32
  20   6 -28    0.14    0.33
  18   6 -28   -0.18    0.35
  16   6 -28    0.33    0.35
  14   6 -28   -0.28    0.30
  12   6 -28   -0.40    0.30
  10   6 -28    0.28    0.34
   8   6 -28    0.07    0.33
   6   6 -28   -0.24    0.24
   4   6 -28   -0.01    0.28
   2   6 -28   -0.13    0.25
   2  -6  28    0.17    0.23
   4  -6  28    0.21    0.24
   6  -6  28    0.00    0.19
   8  -6  28    0.09    0.24
  10  -6  28   -0.07    0.23
  12  -6  28   -0.13    0.27
  14  -6  28   -0.23    0.21
  20   4 -28   12.43    1.03
  18   4 -28   -0.02    0.34
  16   4 -28   17.39    1.16
  14   4 -28    0.15    0.29
  12   4 -28   17.37    1.12
  10   4 -28    0.00    0.26
   8   4 -28   27.43    1.35
   6   4 -28    0.18    0.28
   4   4 -28   18.43    1.05
   2   4 -28   -0.16    0.22
   0   4 -28   27.82    1.24
   2  -4  28    0.25    0.23
   4  -4  28   17.67    0.96
   6  -4  28   -0.01    0.20
   8  -4  28   27.57    1.27
  10  -4  28    0.14    0.26
  12  -4  28   18.38    1.07
  14  -4  28    0.19    0.27
  20   2 -28    0.86    0.44
  18   2 -28    0.18    0.32
  16   2 -28   -0.15    0.32
  14   2 -28   -0.06    0.28
  12   2 -28   -0.33    0.28
  10   2 -28    0.17    0.32
   8   2 -28    0.41    0.33
   6   2 -28    0.11    0.28
   4   2 -28   -0.06    0.27
   2   2 -28    0.27    0.29
   0   2 -28   -0.24    0.26
   4  -2  28   -0.01    0.22
   6  -2  28   -0.16    0.20
   8  -2  28    0.12    0.26
  10  -2  28    0.20    0.26
  12  -2  28   -0.02    0.26
  14  -2  28   -0.06    0.23
  20   0 -28   14.16    1.08
  18   0 -28    0.04    0.26
  16   0 -28   16.21    1.09
  14   0 -28   -0.12    0.28
  12   0 -28   25.13    1.32
  10   0 -28    0.29    0.33
   8   0 -28   18.78    1.10
   6   0 -28    0.11    0.27
   4   0 -28   28.15    1.28
   2   0 -28    0.02    0.26
   0   0 -28   19.84    1.04
   4   0  28   28.23    1.19
   6   0  28    0.24    0.25
   8   0  28   18.79    1.03
  10   0  28    0.19    0.27
  12   0  28   23.28    1.20
  14   0  28   -0.16    0.23
  20  -2 -28    0.62    0.42
  18  -2 -28   -0.27    0.26
  16  -2 -28    0.50    0.36
  14  -2 -28    0.02    0.33
  12  -2 -28   -0.38    0.30
  10  -2 -28    0.18    0.31
   8  -2 -28   -0.01    0.30
   6  -2 -28   -0.18    0.25
   4  -2 -28    0.01    0.24
   2  -2 -28    0.28    0.28
   0  -2 -28    0.02    0.25
  -4  -2 -28    0.35    0.26
  -6  -2 -28   -0.07    0.20
  -8  -2 -28    0.48    0.28
 -10  -2 -28    0.07    0.24
 -12  -2 -28   -0.06    0.28
 -14  -2 -28    0.18    0.29
  20  -4 -28   10.02    0.93
  18  -4 -28   -0.55    0.21
  16  -4 -28   18.44    1.18
  14  -4 -28    0.50    0.36
  12  -4 -28   17.50    1.10
  10  -4 -28    0.12    0.28
   6  -4 -28    0.09    0.28
   4  -4 -28   19.43    1.02
   2  -4 -28   -0.57    0.23
   0  -4 -28   26.25    1.18
  -2  -4 -28   -0.21    0.25
  -4  -4 -28   20.08    1.04
  -4  -4 -28   18.87    0.97
  -6  -4 -28   -0.04    0.22
  -8  -4 -28   24.85    1.17
 -10  -4 -28    0.29    0.28
 -12  -4 -28   16.74    1.03
 -14  -4 -28    0.34    0.32
  20  -6 -28    0.61    0.38
  18  -6 -28   -0.07    0.28
  16  -6 -28   -0.01    0.34
  14  -6 -28    0.33    0.32
  12  -6 -28    0.24    0.31
  10  -6 -28    0.06    0.28
   8  -6 -28    0.19    0.28
   6  -6 -28    0.03    0.27
   4  -6 -28   -0.21    0.23
   2  -6 -28   -0.40    0.22
   0  -6 -28    0.02    0.23
  -2  -6 -28    0.05    0.26
  -4  -6 -28    0.29    0.28
  -4  -6 -28    0.55    0.32
  -6  -6 -28    0.03    0.24
  -8  -6 -28   -0.31    0.26
 -10  -6 -28    0.03    0.26
 -12  -6 -28    0.38    0.32
 -14  -6 -28   -0.23    0.26
  20  -8 -28   10.95    0.93
  18  -8 -28    0.01    0.37
  16  -8 -28   12.67    0.95
  14  -8 -28    0.29    0.34
  12  -8 -28   22.48    1.20
  10  -8 -28    0.10    0.28
   8  -8 -28   21.47    1.14
   6  -8 -28   -0.24    0.25
   4  -8 -28   26.04    1.24
   2  -8 -28    0.06    0.32
   0  -8 -28   18.67    1.05
  -2  -8 -28    0.11    0.26
  -4  -8 -28   24.75    1.22
  -6  -8 -28    0.05    0.25
  -8  -8 -28   20.11    1.09
 -10  -8 -28    0.01    0.27
 -12  -8 -28   21.75    1.19
 -14  -8 -28    0.09    0.32
  20 -10 -28    0.11    0.37
  18 -10 -28   -0.14    0.37
  16 -10 -28    0.61    0.37
  14 -10 -28    0.42    0.36
  12 -10 -28    0.51    0.37
  10 -10 -28   -0.12    0.29
   8 -10 -28    0.36    0.30
   6 -10 -28    0.25    0.27
   4 -10 -28    0.23    0.30
   2 -10 -28    0.12    0.29
   0 -10 -28   -0.03    0.26
  -2 -10 -28    0.07    0.26
  -4 -10 -28    0.17    0.29
  -6 -10 -28    0.15    0.27
  -8 -10 -28    0.24    0.31
 -10 -10 -28    0.18    0.31
 -12 -10 -28   -0.12    0.31
  18 -12 -28   -0.08    0.40
  16 -12 -28   16.67    1.13
  14 -12 -28   -0.13    0.35
  12 -12 -28   14.24    1.02
  10 -12 -28   -0.22    0.27
   8 -12 -28   22.06    1.22
   6 -12 -28   -0.19    0.30
   4 -12 -28   15.66    1.01
   2 -12 -28   -0.64    0.27
   0 -12 -28   23.94    1.26
  -2 -12 -28   -0.14    0.30
  -4 -12 -28   16.87    1.05
  -6 -12 -28    0.38    0.36
  -6 -12 -28    0.54    0.33
  -8 -12 -28   20.03    1.10
 -10 -12 -28    0.03    0.30
 -12 -12 -28   14.42    0.99
  16 -14 -28   -0.20    0.38
  14 -14 -28   -0.02    0.37
  12 -14 -28    0.17    0.34
  10 -14 -28   -0.26    0.28
   8 -14 -28    0.23    0.33
   6 -14 -28    0.01    0.28
   4 -14 -28    0.21    0.32
   2 -14 -28   -0.28    0.25
   0 -14 -28    0.33    0.33
  -2 -14 -28   -0.07    0.31
  -4 -14 -28   -0.10    0.30
  -6 -14 -28   -0.07    0.28
  -8 -14 -28    0.25    0.34
 -10 -14 -28    0.25    0.32
  14 -16 -28   -0.10    0.39
  12 -16 -28   14.02    1.05
  10 -16 -28    0.05    0.35
   8 -16 -28   10.96    0.94
   6 -16 -28    0.31    0.38
   4 -16 -28   17.36    1.13
   2 -16 -28   -0.01    0.37
   0 -16 -28   17.97    1.15
  -2 -16 -28    0.48    0.37
  -4 -16 -28   16.97    1.11
  -6 -16 -28   -0.18    0.31
  -8 -16 -28   12.02    0.90
  12 -18 -28   -0.06    0.37
  10 -18 -28   -0.20    0.34
   8 -18 -28    0.17    0.38
   6 -18 -28   -0.48    0.25
   4 -18 -28    0.25    0.37
   2 -18 -28   -0.15    0.31
   0 -18 -28    0.11    0.36
  -2 -18 -28    0.55    0.39
  -4 -18 -28   -0.15    0.31
  -6 -18 -28   -0.26    0.32
  -8 -18 -28   -0.21    0.32
   8 -20 -28   11.93    1.04
   6 -20 -28    0.57    0.46
   4 -20 -28   12.09    1.02
   2 -20 -28    0.04    0.40
   0 -20 -28   16.07    1.16
  -2 -20 -28    0.60    0.43
  -4 -20 -28   12.64    1.02
  -6 -20 -28    0.02    0.37
   5  21 -29    0.31    0.43
   9  19 -29    0.03    0.40
   7  19 -29   -0.40    0.34
   5  19 -29    0.19    0.42
  11  17 -29    0.07    0.34
   9  17 -29   -0.11    0.33
   7  17 -29    0.36    0.41
   5  17 -29    0.15    0.36
   3  17 -29    0.34    0.39
   1 -17  29   -0.06    0.24
  13  15 -29   -0.11    0.35
  11  15 -29    0.21    0.40
   9  15 -29   -0.25    0.34
   7  15 -29   -0.20    0.33
   5  15 -29   -0.19    0.34
   3  15 -29   -0.05    0.33
   1 -15  29   -0.39    0.23
   3 -15  29    0.15    0.24
   5 -15  29    0.37    0.33
  15  13 -29   -0.29    0.37
  13  13 -29   -0.28    0.34
  11  13 -29   -0.20    0.34
   9  13 -29   -0.17    0.34
   7  13 -29    0.11    0.36
   5  13 -29   -0.42    0.29
   3  13 -29    0.03    0.31
   3 -13  29   -0.15    0.24
   5 -13  29   -0.01    0.27
   7 -13  29   -0.02    0.26
  15  11 -29   -0.02    0.35
  13  11 -29    0.02    0.37
  11  11 -29    0.06    0.35
   9  11 -29   -0.12    0.27
   7  11 -29   -0.03    0.29
   5  11 -29    0.05    0.32
   3  11 -29   -0.15    0.28
   3 -11  29   -0.01    0.25
   5 -11  29    0.19    0.30
   7 -11  29    0.31    0.28
   9 -11  29   -0.21    0.26
  17   9 -29   -0.14    0.34
  15   9 -29    0.27    0.38
  13   9 -29   -0.30    0.29
  11   9 -29    0.39    0.36
   9   9 -29    0.02    0.28
   7   9 -29    0.28    0.32
   5   9 -29   -0.12    0.27
   3   9 -29    0.00    0.26
   3  -9  29   -0.06    0.21
   5  -9  29    0.08    0.21
   7  -9  29    0.01    0.25
   9  -9  29    0.00    0.28
  11  -9  29    0.44    0.30
  17   7 -29   -0.19    0.32
  15   7 -29    0.02    0.32
  13   7 -29    0.23    0.35
  11   7 -29   -0.06    0.31
   9   7 -29    0.00    0.30
   7   7 -29    0.12    0.30
   5   7 -29    0.26    0.32
   3   7 -29    0.14    0.30
   1   7 -29    0.29    0.29
   3  -7  29    0.10    0.24
   5  -7  29    0.08    0.23
   7  -7  29    0.07    0.25
   9  -7  29    0.17    0.26
  11  -7  29    0.13    0.29
  19   5 -29   -0.07    0.37
  17   5 -29    0.24    0.35
  15   5 -29    0.27    0.36
  13   5 -29    0.47    0.34
  11   5 -29   -0.06    0.30
   9   5 -29    0.23    0.31
   7   5 -29    0.00    0.28
   5   5 -29   -0.02    0.27
   3   5 -29   -0.20    0.25
   1   5 -29    0.01    0.26
   3  -5  29    0.10    0.22
   5  -5  29   -0.09    0.22
   7  -5  29   -0.09    0.24
   9  -5  29    0.11    0.28
  11  -5  29   -0.30    0.22
  13  -5  29   -0.10    0.22
  19   3 -29   -0.09    0.28
  17   3 -29   -0.20    0.33
  15   3 -29    0.07    0.31
  13   3 -29   -0.09    0.31
  11   3 -29    0.00    0.29
   9   3 -29   -0.09    0.25
   7   3 -29    0.30    0.31
   5   3 -29    0.11    0.25
   3   3 -29    0.22    0.27
   1   3 -29   -0.01    0.26
   3  -3  29   -0.17    0.19
   5  -3  29    0.21    0.24
   7  -3  29   -0.01    0.21
   9  -3  29    0.20    0.25
  11  -3  29   -0.20    0.24
  13  -3  29   -0.02    0.24
  19   1 -29   -0.08    0.29
  17   1 -29   -0.23    0.33
  15   1 -29   -0.04    0.33
  13   1 -29    0.06    0.29
  11   1 -29    0.22    0.30
   9   1 -29    0.09    0.28
   7   1 -29   -0.07    0.25
   5   1 -29   -0.01    0.25
   3   1 -29   -0.06    0.23
   1   1 -29    0.05    0.25
   5  -1  29   -0.05    0.22
   7  -1  29   -0.31    0.19
   9  -1  29    0.37    0.26
  11  -1  29   -0.01    0.23
  13  -1  29    0.19    0.27
  19  -1 -29   -0.13    0.32
  17  -1 -29    0.13    0.32
  15  -1 -29   -0.06    0.30
  13  -1 -29    0.16    0.32
  11  -1 -29   -0.02    0.25
   9  -1 -29   -0.01    0.27
   7  -1 -29   -0.05    0.25
   5  -1 -29   -0.17    0.25
   3  -1 -29    0.08    0.28
   1  -1 -29   -0.12    0.24
   5   1  29    0.19    0.23
  -7  -1 -29    0.04    0.19
   7   1  29    0.02    0.19
  -9  -1 -29    0.28    0.26
   9   1  29   -0.07    0.22
 -11  -1 -29    0.31    0.26
  11   1  29    0.00    0.22
 -13  -1 -29    0.32    0.32
  19  -3 -29    0.35    0.31
  17  -3 -29   -0.03    0.33
  15  -3 -29   -0.42    0.27
  13  -3 -29   -0.06    0.31
  11  -3 -29    0.17    0.30
   9  -3 -29    0.13    0.29
   7  -3 -29   -0.36    0.21
   5  -3 -29   -0.02    0.26
   3  -3 -29   -0.33    0.24
   1  -3 -29    0.11    0.24
  -5  -3 -29    0.06    0.25
  -7  -3 -29    0.30    0.27
  -9  -3 -29    0.42    0.33
 -11  -3 -29    0.28    0.29
 -13  -3 -29   -0.06    0.28
  19  -5 -29    0.27    0.31
  17  -5 -29    0.15    0.33
  15  -5 -29   -0.44    0.31
  13  -5 -29   -0.04    0.26
  11  -5 -29   -0.13    0.27
   5  -5 -29    0.08    0.24
   3  -5 -29   -0.12    0.24
   1  -5 -29    0.00    0.25
  -1  -5 -29    0.01    0.25
  -3  -5 -29   -0.04    0.24
  -5  -5 -29    0.01    0.26
  -5  -5 -29    0.23    0.29
  -7  -5 -29   -0.02    0.24
  -9  -5 -29    0.21    0.27
 -11  -5 -29   -0.17    0.26
 -13  -5 -29    0.50    0.32
  17  -7 -29    0.07    0.30
  13  -7 -29   -0.05    0.30
  11  -7 -29   -0.02    0.30
   9  -7 -29    0.29    0.32
   7  -7 -29   -0.23    0.23
   5  -7 -29    0.18    0.27
   3  -7 -29    0.11    0.27
   1  -7 -29   -0.08    0.24
  -1  -7 -29   -0.08    0.23
  -3  -7 -29   -0.22    0.24
  -5  -7 -29    0.12    0.30
  -7  -7 -29    0.09    0.27
  -9  -7 -29    0.13    0.29
 -11  -7 -29    0.10    0.29
 -13  -7 -29    0.29    0.33
  19  -9 -29    0.15    0.38
  17  -9 -29    0.46    0.42
  15  -9 -29    0.05    0.34
  13  -9 -29   -0.20    0.28
  11  -9 -29   -0.05    0.29
   9  -9 -29    0.14    0.29
   7  -9 -29   -0.10    0.24
   5  -9 -29    0.09    0.28
   3  -9 -29    0.14    0.30
   1  -9 -29    0.12    0.28
  -1  -9 -29   -0.18    0.28
  -3  -9 -29    0.35    0.31
  -5  -9 -29   -0.10    0.27
  -7  -9 -29    0.08    0.31
  -9  -9 -29    0.01    0.30
 -11  -9 -29    0.08    0.30
  19 -11 -29    0.13    0.44
  17 -11 -29   -0.35    0.35
  15 -11 -29    0.20    0.36
  13 -11 -29    0.54    0.38
  11 -11 -29    0.36    0.37
   9 -11 -29   -0.01    0.26
   7 -11 -29   -0.04    0.30
   5 -11 -29    0.16    0.30
   3 -11 -29   -0.08    0.29
   1 -11 -29   -0.03    0.30
  -1 -11 -29    0.00    0.30
  -3 -11 -29   -0.02    0.30
  -5 -11 -29   -0.02    0.27
  -7 -11 -29    0.65    0.36
  -9 -11 -29   -0.08    0.30
 -11 -11 -29   -0.13    0.30
  17 -13 -29    0.07    0.39
  15 -13 -29    0.20    0.41
  13 -13 -29   -0.21    0.35
  11 -13 -29    0.09    0.35
   9 -13 -29    0.19    0.35
   7 -13 -29   -0.32    0.29
   5 -13 -29    0.09    0.32
   3 -13 -29   -0.05    0.31
   1 -13 -29    0.44    0.34
  -1 -13 -29    0.08    0.31
  -3 -13 -29    0.08    0.29
  -5 -13 -29   -0.02    0.26
  -7 -13 -29    0.84    0.41
  -9 -13 -29   -0.28    0.30
  15 -15 -29    0.02    0.36
  13 -15 -29   -0.23    0.35
  11 -15 -29    0.40    0.42
   9 -15 -29   -0.12    0.32
   7 -15 -29    0.08    0.34
   5 -15 -29    0.48    0.39
   3 -15 -29    0.07    0.33
   1 -15 -29   -0.04    0.32
  -1 -15 -29   -0.12    0.30
  -3 -15 -29   -0.11    0.30
  -5 -15 -29    0.28    0.36
  -7 -15 -29   -0.09    0.31
  11 -17 -29    0.00    0.35
   9 -17 -29   -0.01    0.38
   7 -17 -29    0.16    0.33
   5 -17 -29   -0.08    0.34
   3 -17 -29   -0.19    0.34
   1 -17 -29    0.07    0.31
  -1 -17 -29    0.09    0.31
  -3 -17 -29    0.17    0.37
  -5 -17 -29    0.15    0.32
  -7 -17 -29    0.12    0.33
  -9 -17 -29    0.25    0.40
   7 -19 -29    0.42    0.40
   5 -19 -29    0.30    0.38
   3 -19 -29   -0.25    0.31
   1 -19 -29    0.15    0.35
  -1 -19 -29    0.02    0.36
  -3 -19 -29   -0.11    0.32
  -5 -19 -29    0.15    0.38
  -7 -19 -29    0.01    0.38
   6  20 -30   -0.18    0.42
   8  18 -30    0.10    0.37
   6  18 -30    2.02    0.55
   4  18 -30    0.88    0.47
  10  16 -30    0.27    0.39
   8  16 -30    0.05    0.39
   6  16 -30    0.37    0.38
   4  16 -30    0.23    0.40
  12  14 -30    0.11    0.41
  10  14 -30    4.50    0.70
   8  14 -30   -0.02    0.35
   6  14 -30    4.57    0.67
   4  14 -30    0.20    0.32
   2 -14  30    7.64    0.72
   4 -14  30    0.20    0.27
  14  12 -30    0.11    0.37
  12  12 -30   -0.29    0.31
  10  12 -30    0.14    0.38
   8  12 -30   -0.09    0.33
   6  12 -30   -0.09    0.31
   4  12 -30    0.14    0.34
   4 -12  30   -0.18    0.26
   6 -12  30   -0.33    0.23
  14  10 -30    5.31    0.74
  12  10 -30    0.70    0.43
  10  10 -30    5.14    0.69
   8  10 -30    0.05    0.33
   6  10 -30    5.07    0.66
   4  10 -30    0.85    0.41
   4 -10  30    0.83    0.34
   6 -10  30    3.99    0.57
   8 -10  30   -0.07    0.26
  16   8 -30    0.00    0.37
  14   8 -30    0.62    0.38
  12   8 -30   -0.01    0.34
  10   8 -30    0.44    0.37
   8   8 -30   -0.31    0.28
   6   8 -30   -0.03    0.30
   4   8 -30   -0.30    0.26
   2   8 -30   -0.10    0.29
   4  -8  30   -0.10    0.23
   6  -8  30    0.37    0.27
   8  -8  30    0.15    0.27
  10  -8  30    0.44    0.34
  16   6 -30   -0.19    0.34
  14   6 -30    5.22    0.73
  12   6 -30    0.43    0.37
  10   6 -30    5.27    0.70
   8   6 -30   -0.12    0.30
   6   6 -30    3.82    0.57
   4   6 -30    0.13    0.29
   2   6 -30    4.81    0.58
   4  -6  30    0.10    0.27
   6  -6  30    2.57    0.46
   8  -6  30    0.06    0.24
  10  -6  30    4.66    0.60
  18   4 -30    1.08    0.50
  16   4 -30    0.26    0.38
  14   4 -30   -0.04    0.31
  12   4 -30   -0.05    0.29
  10   4 -30    1.50    0.47
   8   4 -30    0.10    0.32
   6   4 -30    0.02    0.29
   4   4 -30   -0.28    0.25
   2   4 -30    0.05    0.29
   4  -4  30    0.09    0.24
   6  -4  30   -0.05    0.23
   8  -4  30    0.12    0.25
  10  -4  30    1.20    0.38
  12  -4  30   -0.05    0.25
  18   2 -30    3.02    0.64
  16   2 -30   -0.15    0.35
  14   2 -30    6.70    0.76
  12   2 -30    0.01    0.34
  10   2 -30    7.89    0.79
   8   2 -30   -0.01    0.28
   6   2 -30    4.13    0.58
   4   2 -30    0.15    0.31
   2   2 -30    9.78    0.80
   4  -2  30    0.06    0.22
   6  -2  30    3.97    0.53
   8  -2  30   -0.01    0.23
  10  -2  30    6.03    0.66
  12  -2  30    0.16    0.28
  18   0 -30    0.72    0.42
  16   0 -30   -0.09    0.35
  14   0 -30    0.51    0.36
  12   0 -30    0.09    0.32
  10   0 -30    0.54    0.36
   8   0 -30    0.08    0.31
   6   0 -30    0.03    0.29
   4   0 -30    0.23    0.29
   2   0 -30    0.22    0.30
   6   0  30    0.35    0.27
   8   0  30   -0.08    0.21
  10   0  30   -0.28    0.23
 -12   0 -30    0.27    0.28
  12   0  30    0.13    0.27
  18  -2 -30    2.01    0.55
  16  -2 -30    0.31    0.38
  14  -2 -30    5.95    0.74
  12  -2 -30    0.16    0.32
  10  -2 -30    6.84    0.75
   8  -2 -30    0.12    0.30
   6  -2 -30    3.28    0.54
   4  -2 -30   -0.17    0.26
   2  -2 -30    6.92    0.68
  -6  -2 -30    3.75    0.53
  -8  -2 -30   -0.14    0.26
 -10  -2 -30    4.51    0.59
 -12  -2 -30    0.12    0.28
  18  -4 -30    0.81    0.48
  16  -4 -30   -0.22    0.34
  14  -4 -30   -0.33    0.32
  12  -4 -30   -0.01    0.30
  10  -4 -30    1.37    0.45
   8  -4 -30    0.10    0.29
   6  -4 -30    0.13    0.29
   4  -4 -30    0.11    0.28
   2  -4 -30   -0.20    0.26
  -6  -4 -30    0.05    0.29
  -8  -4 -30   -0.12    0.25
 -10  -4 -30    1.35    0.42
 -12  -4 -30   -0.06    0.29
  16  -6 -30    0.31    0.40
  14  -6 -30    3.83    0.62
  12  -6 -30   -0.03    0.31
   6  -6 -30    3.47    0.52
   4  -6 -30   -0.23    0.25
   2  -6 -30    4.85    0.58
   0  -6 -30    0.38    0.30
  -2  -6 -30    3.81    0.55
  -4  -6 -30   -0.20    0.24
  -6  -6 -30    3.16    0.50
  -8  -6 -30    0.08    0.30
 -10  -6 -30    4.90    0.63
 -12  -6 -30    0.10    0.30
  16  -8 -30    0.08    0.34
  14  -8 -30    0.58    0.41
  12  -8 -30    0.13    0.34
  10  -8 -30    0.13    0.34
   8  -8 -30   -0.12    0.27
   6  -8 -30    0.13    0.28
   4  -8 -30    0.15    0.30
   2  -8 -30    0.11    0.29
   0  -8 -30   -0.04    0.28
  -2  -8 -30    0.16    0.30
  -4  -8 -30   -0.37    0.25
  -6  -8 -30    0.06    0.29
  -8  -8 -30   -0.07    0.28
 -10  -8 -30   -0.12    0.27
  18 -10 -30    2.87    0.63
  16 -10 -30   -0.13    0.32
  14 -10 -30    4.34    0.64
  12 -10 -30    0.86    0.43
  10 -10 -30    5.42    0.68
   8 -10 -30   -0.19    0.28
   6 -10 -30    5.17    0.64
   4 -10 -30    0.91    0.41
   2 -10 -30    4.90    0.61
   0 -10 -30    0.25    0.33
  -2 -10 -30    6.76    0.71
  -4 -10 -30    1.58    0.47
  -6 -10 -30    5.24    0.66
  -8 -10 -30    0.03    0.31
 -10 -10 -30    4.11    0.61
  16 -12 -30    0.25    0.43
  14 -12 -30    0.44    0.42
  12 -12 -30   -0.14    0.36
  10 -12 -30    0.08    0.36
   8 -12 -30   -0.26    0.32
   6 -12 -30   -0.31    0.31
   4 -12 -30    0.48    0.36
   2 -12 -30   -0.15    0.30
   0 -12 -30   -0.20    0.26
  -2 -12 -30   -0.12    0.29
  -4 -12 -30    0.20    0.35
  -6 -12 -30    0.45    0.36
  -8 -12 -30    0.10    0.34
  14 -14 -30    4.76    0.71
  12 -14 -30    0.01    0.36
  10 -14 -30    4.62    0.69
   8 -14 -30    0.38    0.39
   6 -14 -30    4.45    0.64
   4 -14 -30    0.29    0.37
   2 -14 -30    6.40    0.75
   0 -14 -30    1.55    0.49
  -2 -14 -30    6.69    0.76
  -4 -14 -30    0.35    0.39
  -6 -14 -30    5.65    0.70
  -8 -14 -30    0.04    0.33
  10 -16 -30    0.16    0.37
   8 -16 -30   -0.15    0.37
   6 -16 -30    0.26    0.37
   4 -16 -30    0.09    0.36
   2 -16 -30    0.01    0.31
   0 -16 -30   -0.04    0.31
  -2 -16 -30   -0.22    0.32
  -4 -16 -30   -0.16    0.29
  -6 -16 -30    0.01    0.38
  -8 -16 -30   -0.05    0.35
   6 -18 -30    2.30    0.57
   4 -18 -30    0.54    0.40
   2 -18 -30    2.93    0.61
   0 -18 -30    0.75    0.43
  -2 -18 -30    3.50    0.67
  -4 -18 -30   -0.06    0.39
   7  17 -31   -0.28    0.36
   5  17 -31   -0.20    0.35
   9  15 -31    0.12    0.37
   7  15 -31   -0.20    0.37
   5  15 -31    0.16    0.38
  11  13 -31   -0.08    0.37
   9  13 -31    0.19    0.38
   7  13 -31   -0.42    0.35
   5  13 -31   -0.16    0.34
  13  11 -31   -0.25    0.34
  11  11 -31   -0.62    0.27
   9  11 -31    0.27    0.41
   7  11 -31    0.23    0.38
   5  11 -31   -0.28    0.28
   5 -11  31   -0.11    0.27
  13   9 -31    0.08    0.38
  11   9 -31    0.21    0.37
   9   9 -31    0.04    0.35
   7   9 -31    0.05    0.35
   5   9 -31    0.01    0.30
   3   9 -31   -0.28    0.31
   5  -9  31    0.23    0.30
   7  -9  31    0.08    0.27
  15   7 -31   -0.13    0.36
  13   7 -31   -0.08    0.32
  11   7 -31   -0.30    0.33
   9   7 -31    0.03    0.34
   7   7 -31    0.04    0.30
   5   7 -31   -0.26    0.29
   3   7 -31   -0.04    0.31
   5  -7  31    0.02    0.29
   7  -7  31    0.16    0.28
   9  -7  31    0.45    0.31
  15   5 -31    0.48    0.43
  13   5 -31    0.41    0.40
  11   5 -31    0.29    0.34
   9   5 -31   -0.29    0.32
   7   5 -31    0.28    0.33
   5   5 -31    0.03    0.30
   3   5 -31   -0.02    0.32
   5  -5  31    0.05    0.25
   7  -5  31    0.01    0.27
   9  -5  31    0.22    0.29
  15   3 -31   -0.02    0.37
  13   3 -31   -0.01    0.35
  11   3 -31    0.20    0.36
   9   3 -31   -0.62    0.25
   7   3 -31   -0.28    0.28
   5   3 -31    0.14    0.30
   3   3 -31   -0.15    0.27
   5  -3  31    0.02    0.24
   7  -3  31   -0.14    0.24
   9  -3  31   -0.03    0.24
  15   1 -31    0.02    0.38
  13   1 -31    0.10    0.34
  11   1 -31    0.34    0.35
   9   1 -31    0.03    0.32
   7   1 -31    0.42    0.33
   5   1 -31    0.52    0.35
   3   1 -31    0.20    0.31
   7  -1  31    0.01    0.26
   9  -1  31   -0.02    0.25
  11  -1  31    0.07    0.30
  15  -1 -31    0.37    0.37
  13  -1 -31    0.37    0.36
  11  -1 -31    0.15    0.33
   9  -1 -31    0.39    0.35
   7  -1 -31   -0.13    0.26
   5  -1 -31    0.07    0.30
   3  -1 -31   -0.09    0.28
  -7  -1 -31   -0.12    0.26
  -9  -1 -31   -0.18    0.27
 -11  -1 -31    0.16    0.32
  15  -3 -31   -0.20    0.34
  13  -3 -31    0.30    0.37
  11  -3 -31   -0.01    0.32
   9  -3 -31   -0.08    0.32
   7  -3 -31   -0.13    0.28
   5  -3 -31    0.00    0.28
   3  -3 -31   -0.23    0.26
  -7  -3 -31   -0.07    0.27
  -9  -3 -31   -0.22    0.27
 -11  -3 -31   -0.31    0.26
  15  -5 -31   -0.06    0.36
  13  -5 -31   -0.09    0.29
  11  -5 -31    0.25    0.35
   9  -5 -31    0.21    0.34
   7  -5 -31    0.07    0.31
   5  -5 -31    0.08    0.30
   3  -5 -31    0.09    0.29
   1  -5 -31   -0.17    0.28
  -7  -5 -31    0.32    0.32
  -9  -5 -31    0.33    0.33
  15  -7 -31   -0.34    0.35
  13  -7 -31   -0.15    0.31
   5  -7 -31    0.21    0.32
   3  -7 -31   -0.04    0.29
   1  -7 -31    0.20    0.31
  -1  -7 -31    0.16    0.28
  -3  -7 -31   -0.03    0.27
  -5  -7 -31   -0.08    0.29
  -9  -7 -31    0.05    0.30
  13  -9 -31    0.89    0.45
  11  -9 -31   -0.22    0.34
   9  -9 -31   -0.08    0.34
   7  -9 -31    0.02    0.33
   5  -9 -31   -0.02    0.27
   3  -9 -31    0.00    0.30
   1  -9 -31   -0.12    0.29
  -1  -9 -31    0.33    0.35
  -3  -9 -31   -0.19    0.29
  -5  -9 -31    0.06    0.29
  -7  -9 -31    0.41    0.33
  -9  -9 -31   -0.15    0.35
  15 -11 -31   -0.14    0.35
  13 -11 -31   -0.52    0.30
  11 -11 -31   -0.17    0.31
   9 -11 -31   -0.33    0.31
   7 -11 -31    0.10    0.35
   5 -11 -31    0.32    0.35
   3 -11 -31    0.15    0.31
   1 -11 -31   -0.13    0.33
  -1 -11 -31    0.16    0.35
  -3 -11 -31    0.05    0.33
  -5 -11 -31    0.26    0.35
  -7 -11 -31   -0.16    0.29
  13 -13 -31    0.19    0.36
  11 -13 -31   -0.32    0.36
   9 -13 -31   -0.27    0.36
   7 -13 -31   -0.39    0.32
   5 -13 -31   -0.16    0.30
   3 -13 -31    0.26    0.39
   1 -13 -31    0.50    0.36
  -1 -13 -31    0.12    0.33
  -3 -13 -31   -0.13    0.32
  -5 -13 -31    0.01    0.35
  -7 -13 -31    0.04    0.33
   9 -15 -31   -0.12    0.37
   7 -15 -31   -0.09    0.38
   5 -15 -31   -0.14    0.34
   3 -15 -31   -0.22    0.36
   1 -15 -31   -0.25    0.33
  -1 -15 -31    0.14    0.39
  -3 -15 -31   -0.15    0.31
  -5 -15 -31    0.01    0.36
  -7 -15 -31    0.05    0.39
  -9 -15 -31   -0.18    0.33
   5 -17 -31    0.12    0.37
   3 -17 -31   -0.15    0.33
   1 -17 -31    0.00    0.36
  -1 -17 -31    0.40    0.44
  -3 -17 -31    0.21    0.38
   6  16 -32    0.03    0.40
   8  14 -32   -0.02    0.41
   6  14 -32    0.31    0.37
  10  12 -32   -0.38    0.35
   8  12 -32    9.11    0.91
   6  12 -32    0.42    0.39
  12  10 -32   -0.04    0.37
  10  10 -32    0.25    0.38
   8  10 -32    0.51    0.43
   6  10 -32    0.34    0.37
   4  10 -32   -0.12    0.36
  12   8 -32   13.51    1.10
  10   8 -32    0.17    0.37
   8   8 -32   15.20    1.08
   6   8 -32    0.16    0.36
   4   8 -32   13.90    1.01
   6  -8  32    0.42    0.32
  14   6 -32   -0.06    0.34
  12   6 -32   -0.24    0.37
  10   6 -32    0.62    0.37
   8   6 -32    0.08    0.33
   6   6 -32    0.20    0.33
   4   6 -32   -0.30    0.32
   6  -6  32   -0.39    0.24
  14   4 -32    0.34    0.40
  12   4 -32   10.21    0.93
  10   4 -32    0.64    0.41
   8   4 -32   13.84    1.05
   6   4 -32    0.36    0.35
   4   4 -32   14.76    1.04
   6  -4  32    0.23    0.28
   8  -4  32   13.36    0.95
  14   2 -32    0.10    0.40
  12   2 -32    0.00    0.36
  10   2 -32    0.09    0.31
   8   2 -32   -0.48    0.33
   6   2 -32    0.03    0.30
   4   2 -32   -0.10    0.35
   8  -2  32    0.17    0.33
  14   0 -32   -0.23    0.33
  12   0 -32   13.39    1.07
  10   0 -32   -0.02    0.34
   8   0 -32   19.28    1.18
   6   0 -32    0.22    0.32
   4   0 -32   15.03    1.01
  -8   0 -32   17.21    1.03
   8   0  32   19.20    1.10
  14  -2 -32   -0.38    0.34
  12  -2 -32   -0.11    0.34
  10  -2 -32    0.31    0.38
   8  -2 -32    0.01    0.35
   6  -2 -32   -0.21    0.32
   4  -2 -32   -0.48    0.30
  -8  -2 -32    0.17    0.35
  14  -4 -32    0.07    0.40
  12  -4 -32   14.95    1.14
  10  -4 -32    0.06    0.31
   8  -4 -32   12.04    0.98
   6  -4 -32    0.04    0.31
   4  -4 -32   15.12    1.04
   2  -4 -32    0.42    0.36
  -8  -4 -32   13.89    0.97
  12  -6 -32    0.13    0.40
  10  -6 -32    0.26    0.35
   8  -6 -32    0.10    0.32
   6  -6 -32   -0.02    0.31
   4  -6 -32   -0.13    0.31
   2  -6 -32   -0.29    0.31
   4  -8 -32   12.53    0.94
   2  -8 -32   -0.53    0.31
   0  -8 -32   18.16    1.12
  -2  -8 -32   -0.37    0.30
  -4  -8 -32   11.80    0.93
  -6  -8 -32   -0.35    0.31
  12 -10 -32    0.15    0.40
  10 -10 -32   -0.06    0.36
   8 -10 -32    0.09    0.35
   6 -10 -32   -0.18    0.33
   4 -10 -32    0.39    0.38
   2 -10 -32    0.14    0.35
   0 -10 -32   -0.21    0.28
  -2 -10 -32    0.06    0.36
  -4 -10 -32   -0.21    0.34
  -6 -10 -32    0.58    0.40
  -8 -10 -32    0.00    0.39
  12 -12 -32   11.64    1.01
  10 -12 -32   -0.57    0.33
   8 -12 -32    9.20    0.86
   6 -12 -32    0.15    0.37
   4 -12 -32   13.62    1.04
   2 -12 -32   -0.08    0.36
   0 -12 -32   12.24    0.99
  -2 -12 -32    0.08    0.39
  -4 -12 -32   13.53    1.04
  -6 -12 -32   -0.10    0.35
  -8 -12 -32   10.72    0.98
   8 -14 -32    0.52    0.41
   6 -14 -32    0.06    0.39
   4 -14 -32    0.34    0.42
   2 -14 -32   -0.19    0.33
   0 -14 -32   -0.30    0.33
  -2 -14 -32    0.19    0.37
  -4 -14 -32    0.17    0.38
  -6 -14 -32    0.06    0.37
  -8 -14 -32    0.20    0.39
   0 -16 -32   17.56    1.22
   7  13 -33    0.09    0.37
   9  11 -33    0.48    0.42
   7  11 -33    0.10    0.39
   5  11 -33   -0.09    0.39
   9   9 -33   -0.11    0.37
   7   9 -33   -0.04    0.37
   5   9 -33   -0.02    0.37
  11   7 -33   -0.12    0.32
   9   7 -33   -0.24    0.30
   7   7 -33   -0.25    0.33
   5   7 -33    0.02    0.37
  11   5 -33   -0.04    0.38
   9   5 -33   -0.20    0.34
   7   5 -33    0.11    0.38
   5   5 -33    0.04    0.35
  13   3 -33   -0.11    0.36
  11   3 -33    0.07    0.36
   9   3 -33    0.01    0.33
   7   3 -33    0.01    0.32
   5   3 -33    0.16    0.35
  13   1 -33    0.02    0.40
  11   1 -33    0.15    0.36
   9   1 -33   -0.36    0.33
   7   1 -33   -0.30    0.32
   5   1 -33    0.34    0.38
  13  -1 -33    0.07    0.38
  11  -1 -33    0.37    0.39
   9  -1 -33    0.11    0.36
   7  -1 -33    0.05    0.33
   5  -1 -33    0.42    0.38
  11  -3 -33   -0.57    0.29
   9  -3 -33   -0.11    0.36
   7  -3 -33   -0.06    0.33
   5  -3 -33   -0.47    0.30
   3  -3 -33    0.03    0.36
  11  -5 -33   -0.07    0.36
   9  -5 -33    0.02    0.36
   7  -5 -33   -0.16    0.33
   5  -5 -33    0.07    0.33
   3  -5 -33    0.01    0.33
  11  -7 -33   -0.08    0.36
   9  -7 -33    0.06    0.33
   7  -7 -33    0.06    0.34
   5  -7 -33    0.32    0.36
  -7  -7 -33   -0.36    0.28
   3  -9 -33   -0.15    0.34
   1  -9 -33    0.15    0.36
  -1  -9 -33    0.40    0.37
  -3  -9 -33   -0.33    0.31
  -5  -9 -33    0.07    0.36
  -7  -9 -33    0.11    0.35
  -9  -9 -33   -0.08    0.34
  11 -11 -33   -0.16    0.37
   9 -11 -33   -0.11    0.36
   7 -11 -33    0.09    0.37
   5 -11 -33    0.11    0.36
   3 -11 -33    0.19    0.37
   1 -11 -33   -0.08    0.36
  -1 -11 -33    0.19    0.40
  -3 -11 -33   -0.26    0.31
  -5 -11 -33   -0.24    0.29
  -7 -11 -33    0.95    0.45
  -9 -11 -33   -0.35    0.29
   7 -13 -33    0.09    0.42
   5 -13 -33    0.34    0.37
   3 -13 -33    0.17    0.39
   1 -13 -33    0.07    0.39
  -1 -13 -33   -0.02    0.40
  -3 -13 -33    0.06    0.35
  -5 -13 -33   -0.40    0.36
   6  12 -34    0.43    0.46
   8  10 -34    0.07    0.43
   6  10 -34    1.71    0.55
   8   8 -34   -0.02    0.37
   6   8 -34    0.20    0.38
  10   6 -34    1.89    0.57
   8   6 -34   -0.09    0.36
   6   6 -34    2.70    0.60
  10   4 -34    0.23    0.41
   8   4 -34    0.84    0.45
   6   4 -34    0.04    0.38
  10   2 -34    3.97    0.68
   8   2 -34    0.06    0.34
   6   2 -34    3.83    0.64
  10   0 -34   -0.05    0.39
   8   0 -34   -0.16    0.35
   6   0 -34   -0.22    0.36
  10  -2 -34    3.97    0.68
   8  -2 -34    0.06    0.34
   6  -2 -34    2.37    0.56
   4  -2 -34    0.37    0.41
  10  -4 -34    0.20    0.40
   8  -4 -34   -0.15    0.38
   6  -4 -34   -0.24    0.36
   4  -4 -34    0.02    0.38
   8  -6 -34    0.37    0.38
   6  -6 -34    1.43    0.51
   4  -6 -34    0.19    0.37
   8  -8 -34    0.00    0.37
   6  -8 -34   -0.04    0.35
   4 -10 -34   -0.18    0.36
   2 -10 -34    3.25    0.61
   0 -10 -34    0.51    0.39
  -2 -10 -34    4.10    0.66
  -4 -10 -34   -0.16    0.35
  -6 -10 -34    3.10    0.61
  -8 -10 -34    0.24    0.42
   6 -12 -34   -0.16    0.37
   4 -12 -34   -0.14    0.35
   2 -12 -34    0.03    0.37
   0 -12 -34   -0.03    0.38
  -2 -12 -34    0.06    0.39
  -4 -12 -34    0.14    0.41
   7   7 -35   -0.47    0.34
   7   5 -35   -0.04    0.37
   9   3 -35    0.09    0.41
   7   3 -35   -0.13    0.36
   9   1 -35    1.01    0.48
   7   1 -35    0.21    0.39
   9  -1 -35   -0.02    0.40
   7  -1 -35    0.09    0.40
   5  -1 -35   -0.09    0.36
   7  -3 -35    0.11    0.39
   5  -3 -35    0.14    0.37
   7  -5 -35    0.14    0.40
   5  -5 -35   -0.15    0.35
   7  -7 -35   -0.18    0.35
   5  -7 -35    0.30    0.40
   3 -11 -35   -0.31    0.37
   1 -11 -35    0.25    0.44
  -1 -11 -35   -0.21    0.39
   6   0 -36   -0.22    0.39
   6  -2 -36   -0.20    0.38
   6  -4 -36    0.79    0.49
   0   0   0    0.00    0.00
;
_shelx_hkl_checksum              19434
loop_
_space_group_symop_operation_xyz
'x, y, z'
'-x+1/4, -y+3/4, z+1/2'
'-x+3/4, y+1/2, -z+1/4'
'x+1/2, -y+1/4, -z+3/4'
'z, x, y'
'z+1/2, -x+1/4, -y+3/4'
'-z+1/4, -x+3/4, y+1/2'
'-z+3/4, x+1/2, -y+1/4'
'y, z, x'
'-y+3/4, z+1/2, -x+1/4'
'y+1/2, -z+1/4, -x+3/4'
'-y+1/4, -z+3/4, x+1/2'
'y+3/4, x+1/4, -z'
'-y+1/2, -x+1/2, -z+1/2'
'y+1/4, -x, z+3/4'
'-y, x+3/4, z+1/4'
'x+3/4, z+1/4, -y'
'-x, z+3/4, y+1/4'
'-x+1/2, -z+1/2, -y+1/2'
'x+1/4, -z, y+3/4'
'z+3/4, y+1/4, -x'
'z+1/4, -y, x+3/4'
'-z, y+3/4, x+1/4'
'-z+1/2, -y+1/2, -x+1/2'
'x, y+1/2, z+1/2'
'-x+1/4, -y+5/4, z+1'
'-x+3/4, y+1, -z+3/4'
'x+1/2, -y+3/4, -z+5/4'
'z, x+1/2, y+1/2'
'z+1/2, -x+3/4, -y+5/4'
'-z+1/4, -x+5/4, y+1'
'-z+3/4, x+1, -y+3/4'
'y, z+1/2, x+1/2'
'-y+3/4, z+1, -x+3/4'
'y+1/2, -z+3/4, -x+5/4'
'-y+1/4, -z+5/4, x+1'
'y+3/4, x+3/4, -z+1/2'
'-y+1/2, -x+1, -z+1'
'y+1/4, -x+1/2, z+5/4'
'-y, x+5/4, z+3/4'
'x+3/4, z+3/4, -y+1/2'
'-x, z+5/4, y+3/4'
'-x+1/2, -z+1, -y+1'
'x+1/4, -z+1/2, y+5/4'
'z+3/4, y+3/4, -x+1/2'
'z+1/4, -y+1/2, x+5/4'
'-z, y+5/4, x+3/4'
'-z+1/2, -y+1, -x+1'
'x+1/2, y, z+1/2'
'-x+3/4, -y+3/4, z+1'
'-x+5/4, y+1/2, -z+3/4'
'x+1, -y+1/4, -z+5/4'
'z+1/2, x, y+1/2'
'z+1, -x+1/4, -y+5/4'
'-z+3/4, -x+3/4, y+1'
'-z+5/4, x+1/2, -y+3/4'
'y+1/2, z, x+1/2'
'-y+5/4, z+1/2, -x+3/4'
'y+1, -z+1/4, -x+5/4'
'-y+3/4, -z+3/4, x+1'
'y+5/4, x+1/4, -z+1/2'
'-y+1, -x+1/2, -z+1'
'y+3/4, -x, z+5/4'
'-y+1/2, x+3/4, z+3/4'
'x+5/4, z+1/4, -y+1/2'
'-x+1/2, z+3/4, y+3/4'
'-x+1, -z+1/2, -y+1'
'x+3/4, -z, y+5/4'
'z+5/4, y+1/4, -x+1/2'
'z+3/4, -y, x+5/4'
'-z+1/2, y+3/4, x+3/4'
'-z+1, -y+1/2, -x+1'
'x+1/2, y+1/2, z'
'-x+3/4, -y+5/4, z+1/2'
'-x+5/4, y+1, -z+1/4'
'x+1, -y+3/4, -z+3/4'
'z+1/2, x+1/2, y'
'z+1, -x+3/4, -y+3/4'
'-z+3/4, -x+5/4, y+1/2'
'-z+5/4, x+1, -y+1/4'
'y+1/2, z+1/2, x'
'-y+5/4, z+1, -x+1/4'
'y+1, -z+3/4, -x+3/4'
'-y+3/4, -z+5/4, x+1/2'
'y+5/4, x+3/4, -z'
'-y+1, -x+1, -z+1/2'
'y+3/4, -x+1/2, z+3/4'
'-y+1/2, x+5/4, z+1/4'
'x+5/4, z+3/4, -y'
'-x+1/2, z+5/4, y+1/4'
'-x+1, -z+1, -y+1/2'
'x+3/4, -z+1/2, y+3/4'
'z+5/4, y+3/4, -x'
'z+3/4, -y+1/2, x+3/4'
'-z+1/2, y+5/4, x+1/4'
'-z+1, -y+1, -x+1/2'
'-x, -y, -z'
'x-1/4, y-3/4, -z-1/2'
'x-3/4, -y-1/2, z-1/4'
'-x-1/2, y-1/4, z-3/4'
'-z, -x, -y'
'-z-1/2, x-1/4, y-3/4'
'z-1/4, x-3/4, -y-1/2'
'z-3/4, -x-1/2, y-1/4'
'-y, -z, -x'
'y-3/4, -z-1/2, x-1/4'
'-y-1/2, z-1/4, x-3/4'
'y-1/4, z-3/4, -x-1/2'
'-y-3/4, -x-1/4, z'
'y-1/2, x-1/2, z-1/2'
'-y-1/4, x, -z-3/4'
'y, -x-3/4, -z-1/4'
'-x-3/4, -z-1/4, y'
'x, -z-3/4, -y-1/4'
'x-1/2, z-1/2, y-1/2'
'-x-1/4, z, -y-3/4'
'-z-3/4, -y-1/4, x'
'-z-1/4, y, -x-3/4'
'z, -y-3/4, -x-1/4'
'z-1/2, y-1/2, x-1/2'
'-x, -y+1/2, -z+1/2'
'x-1/4, y-1/4, -z'
'x-3/4, -y, z+1/4'
'-x-1/2, y+1/4, z-1/4'
'-z, -x+1/2, -y+1/2'
'-z-1/2, x+1/4, y-1/4'
'z-1/4, x-1/4, -y'
'z-3/4, -x, y+1/4'
'-y, -z+1/2, -x+1/2'
'y-3/4, -z, x+1/4'
'-y-1/2, z+1/4, x-1/4'
'y-1/4, z-1/4, -x'
'-y-3/4, -x+1/4, z+1/2'
'y-1/2, x, z'
'-y-1/4, x+1/2, -z-1/4'
'y, -x-1/4, -z+1/4'
'-x-3/4, -z+1/4, y+1/2'
'x, -z-1/4, -y+1/4'
'x-1/2, z, y'
'-x-1/4, z+1/2, -y-1/4'
'-z-3/4, -y+1/4, x+1/2'
'-z-1/4, y+1/2, -x-1/4'
'z, -y-1/4, -x+1/4'
'z-1/2, y, x'
'-x+1/2, -y, -z+1/2'
'x+1/4, y-3/4, -z'
'x-1/4, -y-1/2, z+1/4'
'-x, y-1/4, z-1/4'
'-z+1/2, -x, -y+1/2'
'-z, x-1/4, y-1/4'
'z+1/4, x-3/4, -y'
'z-1/4, -x-1/2, y+1/4'
'-y+1/2, -z, -x+1/2'
'y-1/4, -z-1/2, x+1/4'
'-y, z-1/4, x-1/4'
'y+1/4, z-3/4, -x'
'-y-1/4, -x-1/4, z+1/2'
'y, x-1/2, z'
'-y+1/4, x, -z-1/4'
'y+1/2, -x-3/4, -z+1/4'
'-x-1/4, -z-1/4, y+1/2'
'x+1/2, -z-3/4, -y+1/4'
'x, z-1/2, y'
'-x+1/4, z, -y-1/4'
'-z-1/4, -y-1/4, x+1/2'
'-z+1/4, y, -x-1/4'
'z+1/2, -y-3/4, -x+1/4'
'z, y-1/2, x'
'-x+1/2, -y+1/2, -z'
'x+1/4, y-1/4, -z-1/2'
'x-1/4, -y, z-1/4'
'-x, y+1/4, z-3/4'
'-z+1/2, -x+1/2, -y'
'-z, x+1/4, y-3/4'
'z+1/4, x-1/4, -y-1/2'
'z-1/4, -x, y-1/4'
'-y+1/2, -z+1/2, -x'
'y-1/4, -z, x-1/4'
'-y, z+1/4, x-3/4'
'y+1/4, z-1/4, -x-1/2'
'-y-1/4, -x+1/4, z'
'y, x, z-1/2'
'-y+1/4, x+1/2, -z-3/4'
'y+1/2, -x-1/4, -z-1/4'
'-x-1/4, -z+1/4, y'
'x+1/2, -z-1/4, -y-1/4'
'x, z, y-1/2'
'-x+1/4, z+1/2, -y-3/4'
'-z-1/4, -y+1/4, x'
'-z+1/4, y+1/2, -x-3/4'
'z+1/2, -y-1/4, -x-1/4'
'z, y, x-1/2'
loop_
_atom_site_label
_atom_site_type_symbol
_atom_site_fract_x
_atom_site_fract_y
_atom_site_fract_z
_atom_site_U_iso_or_equiv
_atom_site_adp_type
_atom_site_occupancy
_atom_site_site_symmetry_order
_atom_site_calc_flag
_atom_site_refinement_flags_posn
_atom_site_refinement_flags_adp
_atom_site_refinement_flags_occupancy
Gd1 Gd 0.5000 0.2500 0.5000 0.0285(2) Uani 1 6 d S T P
Co1 Co 0.5000 0.2500 0.2500 0.0275(4) Uani 1 6 d S T P
Co2 Co 0.6250 0.1250 0.1250 0.0535(7) Uani 1 12 d S T P
C1 C 0.49786(17) 0.24207(18) 0.3721(2) 0.0358(12) Uani 1 1 d . . .
C2 C 0.5559(2) 0.2473(2) 0.37938(19) 0.0503(14) Uani 1 1 d . . .
H4A H 0.5734 0.2177 0.3641 0.060 Uiso 1 1 calc R U .
H4B H 0.5681 0.2784 0.3621 0.060 Uiso 1 1 calc R U .
O1 O 0.56735(12) 0.2500 0.43265(12) 0.0417(12) Uani 1 2 d S T P
O2 O 0.47013(14) 0.24153(14) 0.41243(13) 0.0452(8) Uani 1 1 d . . .
O3 O 0.47919(14) 0.23671(13) 0.32767(14) 0.0431(8) Uani 1 1 d . . .
O4 O 0.6250 0.2066(2) 0.1250 0.0692(17) Uani 1 2 d S T P
H4 H 0.5956 0.2172 0.1311 0.104 Uiso 0.5 1 calc R U P
O5 O 0.6250 0.3302(9) 0.1250 0.235(7) Uani 1 2 d S T P
loop_
_atom_site_aniso_label
_atom_site_aniso_U_11
_atom_site_aniso_U_22
_atom_site_aniso_U_33
_atom_site_aniso_U_23
_atom_site_aniso_U_13
_atom_site_aniso_U_12
Gd1 0.0285(2) 0.0285(2) 0.0285(2) -0.00986(11) 0.00986(11) -0.00986(11)
Co1 0.0275(4) 0.0275(4) 0.0275(4) 0.0034(3) -0.0034(3) -0.0034(3)
Co2 0.0535(7) 0.0535(7) 0.0535(7) 0.000 0.000 0.000
C1 0.043(3) 0.029(2) 0.035(3) -0.0070(16) 0.0086(19) -0.0042(18)
C2 0.043(3) 0.071(4) 0.037(3) -0.010(2) 0.013(2) -0.009(2)
O1 0.0324(14) 0.060(3) 0.0324(14) -0.0112(15) 0.0061(18) -0.0112(15)
O2 0.0394(19) 0.061(2) 0.0351(19) -0.0141(15) 0.0078(15) -0.0097(16)
O3 0.046(2) 0.046(2) 0.038(2) -0.0056(15) 0.0049(16) -0.0047(17)
O4 0.049(3) 0.064(4) 0.095(5) 0.000 -0.006(4) 0.000
O5 0.199(15) 0.25(2) 0.258(19) 0.000 0.023(13) 0.000
loop_
_atom_type_symbol
_atom_type_description
_atom_type_scat_dispersion_real
_atom_type_scat_dispersion_imag
_atom_type_scat_source
C C 0.0033 0.0016 'International Tables Vol C Tables 4.2.6.8 and 6.1.1.4'
H H 0.0000 0.0000 'International Tables Vol C Tables 4.2.6.8 and 6.1.1.4'
O O 0.0106 0.0060 'International Tables Vol C Tables 4.2.6.8 and 6.1.1.4'
Co Co 0.3494 0.9721 'International Tables Vol C Tables 4.2.6.8 and 6.1.1.4'
Gd Gd -0.1653 3.9035 'International Tables Vol C Tables 4.2.6.8 and 6.1.1.4'
loop_
_geom_angle_atom_site_label_1
_geom_angle_atom_site_label_2
_geom_angle_atom_site_label_3
_geom_angle
_geom_angle_site_symmetry_1
_geom_angle_site_symmetry_3
O2 Gd1 O2 86.07(17) 72 60_554
O2 Gd1 O2 79.18(13) 72 18_645
O2 Gd1 O2 146.07(17) 60_554 18_645
O2 Gd1 O2 79.18(13) 72 85_446
O2 Gd1 O2 127.90(16) 60_554 85_446
O2 Gd1 O2 79.18(13) 18_645 85_446
O2 Gd1 O2 146.07(17) 72 78_455
O2 Gd1 O2 79.18(13) 60_554 78_455
O2 Gd1 O2 127.90(17) 18_645 78_455
O2 Gd1 O2 86.07(17) 85_446 78_455
O2 Gd1 O2 127.90(17) 72 .
O2 Gd1 O2 79.18(13) 60_554 .
O2 Gd1 O2 86.07(17) 18_645 .
O2 Gd1 O2 146.07(17) 85_446 .
O2 Gd1 O2 79.17(13) 78_455 .
O2 Gd1 O1 63.95(8) 72 .
O2 Gd1 O1 73.04(8) 60_554 .
O2 Gd1 O1 73.04(8) 18_645 .
O2 Gd1 O1 136.96(8) 85_446 .
O2 Gd1 O1 136.96(8) 78_455 .
O2 Gd1 O1 63.95(8) . .
O2 Gd1 O1 73.04(8) 72 60_554
O2 Gd1 O1 63.95(8) 60_554 60_554
O2 Gd1 O1 136.96(8) 18_645 60_554
O2 Gd1 O1 63.95(8) 85_446 60_554
O2 Gd1 O1 73.04(8) 78_455 60_554
O2 Gd1 O1 136.96(8) . 60_554
O1 Gd1 O1 120.0 . 60_554
O2 Gd1 O1 136.96(8) 72 78_455
O2 Gd1 O1 136.96(8) 60_554 78_455
O2 Gd1 O1 63.95(8) 18_645 78_455
O2 Gd1 O1 73.04(8) 85_446 78_455
O2 Gd1 O1 63.95(8) 78_455 78_455
O2 Gd1 O1 73.03(8) . 78_455
O1 Gd1 O1 120.0 . 78_455
O1 Gd1 O1 120.0 60_554 78_455
O3 Co1 O3 180.00(19) 106_665 34_545
O3 Co1 O3 87.34(12) 106_665 175_556
O3 Co1 O3 92.66(12) 34_545 175_556
O3 Co1 O3 92.66(13) 106_665 55_554
O3 Co1 O3 87.34(12) 34_545 55_554
O3 Co1 O3 180.00(18) 175_556 55_554
O3 Co1 O3 87.34(12) 106_665 121_655
O3 Co1 O3 92.66(12) 34_545 121_655
O3 Co1 O3 87.34(12) 175_556 121_655
O3 Co1 O3 92.66(12) 55_554 121_655
O3 Co1 O3 92.66(12) 106_665 .
O3 Co1 O3 87.34(12) 34_545 .
O3 Co1 O3 92.66(12) 175_556 .
O3 Co1 O3 87.34(12) 55_554 .
O3 Co1 O3 180.0 121_655 .
O4 Co2 O4 90.0 . 34_545
O4 Co2 O4 180.0 . 26_644
O4 Co2 O4 90.0 34_545 26_644
O4 Co2 O4 90.0 . 77_545
O4 Co2 O4 90.0 34_545 77_545
O4 Co2 O4 90.0 26_644 77_545
O4 Co2 O4 90.0 . 30_554
O4 Co2 O4 90.0 34_545 30_554
O4 Co2 O4 90.0 26_644 30_554
O4 Co2 O4 180.0 77_545 30_554
O4 Co2 O4 90.0 . 57_554
O4 Co2 O4 180.0 34_545 57_554
O4 Co2 O4 90.0 26_644 57_554
O4 Co2 O4 90.0 77_545 57_554
O4 Co2 O4 90.0 30_554 57_554
O3 C1 O2 122.4(4) . .
O3 C1 C2 120.3(4) . .
O2 C1 C2 117.2(4) . .
O1 C2 C1 109.5(4) . .
O1 C2 H4A 109.8 . .
C1 C2 H4A 109.8 . .
O1 C2 H4B 109.8 . .
C1 C2 H4B 109.8 . .
H4A C2 H4B 108.2 . .
C2 O1 C2 114.4(5) . 72
C2 O1 Gd1 122.8(3) . .
C2 O1 Gd1 122.8(3) 72 .
C1 O2 Gd1 126.4(3) . .
C1 O3 Co1 139.2(3) . .
Co2 O4 H4 109.5 . .
loop_
_geom_bond_atom_site_label_1
_geom_bond_atom_site_label_2
_geom_bond_distance
_geom_bond_site_symmetry_2
Gd1 O2 2.394(3) 72
Gd1 O2 2.394(3) 60_554
Gd1 O2 2.394(3) 18_645
Gd1 O2 2.394(3) 85_446
Gd1 O2 2.394(3) 78_455
Gd1 O2 2.394(3) .
Gd1 O1 2.454(4) .
Gd1 O1 2.454(4) 60_554
Gd1 O1 2.454(4) 78_455
Co1 O3 2.100(4) 106_665
Co1 O3 2.100(4) 34_545
Co1 O3 2.100(4) 175_556
Co1 O3 2.100(4) 55_554
Co1 O3 2.100(4) 121_655
Co1 O3 2.100(4) .
Co2 O4 2.103(6) .
Co2 O4 2.103(6) 34_545
Co2 O4 2.103(6) 26_644
Co2 O4 2.103(6) 77_545
Co2 O4 2.103(6) 30_554
Co2 O4 2.103(6) 57_554
C1 O3 1.248(6) .
C1 O2 1.262(6) .
C1 C2 1.512(7) .
C2 O1 1.405(6) .
C2 H4A 0.9700 .
C2 H4B 0.9700 .
O1 C2 1.406(6) 72
O4 H4 0.8200 .
loop_
_geom_torsion_atom_site_label_1
_geom_torsion_atom_site_label_2
_geom_torsion_atom_site_label_3
_geom_torsion_atom_site_label_4
_geom_torsion
_geom_torsion_site_symmetry_4
O3 C1 C2 O1 -176.8(4) .
O2 C1 C2 O1 0.7(6) .
C1 C2 O1 C2 177.4(5) 72
C1 C2 O1 Gd1 -2.6(5) .
O3 C1 O2 Gd1 179.0(3) .
C2 C1 O2 Gd1 1.6(6) .
O2 C1 O3 Co1 162.5(3) .
C2 C1 O3 Co1 -20.1(7) .
